MODEL 1
REMARK VINA RESULT:      -8.4      0.000      0.000
REMARK  Name = 
REMARK  5 active torsions:
REMARK  status: ('A' for Active; 'I' for Inactive)
REMARK    1  A    between atoms: N_2  and  C_4
REMARK    2  A    between atoms: C_11  and  O_12
REMARK    3  A    between atoms: O_12  and  C_13
REMARK    4  A    between atoms: C_13  and  C_14
REMARK    5  A    between atoms: C_19  and  C_20
REMARK                            x       y       z     vdW  Elec       q    Type
REMARK                         _______ _______ _______ _____ _____    ______ ____
ROOT
ATOM      1  O   UNL     1       6.031   5.569  19.559  0.00  0.00    +0.000 OA
ENDROOT
BRANCH   1   9
ATOM      2  C   UNL     1       6.310   4.278  14.240  0.00  0.00    +0.000 A 
ATOM      3  C   UNL     1       6.260   3.544  15.412  0.00  0.00    +0.000 A 
ATOM      4  N   UNL     1       6.691   4.423  16.359  0.00  0.00    +0.000 N 
ATOM      5  C   UNL     1       6.972   5.613  15.770  0.00  0.00    +0.000 A 
ATOM      6  N   UNL     1       6.757   5.568  14.473  0.00  0.00    +0.000 NA
ATOM      7  O   UNL     1       7.515   6.629  16.415  0.00  0.00    +0.000 OA
ATOM      8  C   UNL     1       7.235   6.710  17.814  0.00  0.00    +0.000 C 
ATOM      9  C   UNL     1       7.110   5.389  18.612  0.00  0.00    +0.000 C 
ATOM     10  C   UNL     1       6.935   4.137  17.742  0.00  0.00    +0.000 C 
BRANCH   2  12
ATOM     11  O   UNL     1       4.797   3.632  12.645  0.00  0.00    +0.000 OA
ATOM     12  N   UNL     1       5.998   3.804  12.911  0.00  0.00    +0.000 N 
ATOM     13  O   UNL     1       6.939   3.603  12.135  0.00  0.00    +0.000 OA
ENDBRANCH   2  12
ENDBRANCH   1   9
BRANCH   1  14
ATOM     14  C   UNL     1       4.739   5.718  18.953  0.00  0.00    +0.000 C 
BRANCH  14  15
ATOM     15  C   UNL     1       3.633   4.964  19.664  0.00  0.00    +0.000 A 
ATOM     16  C   UNL     1       3.857   3.615  20.015  0.00  0.00    +0.000 A 
ATOM     17  C   UNL     1       2.863   2.842  20.608  0.00  0.00    +0.000 A 
ATOM     18  C   UNL     1       1.623   3.404  20.860  0.00  0.00    +0.000 A 
ATOM     19  C   UNL     1       1.387   4.745  20.547  0.00  0.00    +0.000 A 
ATOM     20  C   UNL     1       2.372   5.570  19.953  0.00  0.00    +0.000 A 
BRANCH  20  21
ATOM     21  C   UNL     1       2.021   6.994  19.659  0.00  0.00    +0.000 A 
ATOM     22  C   UNL     1       1.509   7.851  20.649  0.00  0.00    +0.000 A 
ATOM     23  C   UNL     1       1.189   9.182  20.362  0.00  0.00    +0.000 A 
ATOM     24  C   UNL     1       1.354   9.636  19.068  0.00  0.00    +0.000 A 
ATOM     25  N   UNL     1       1.866   8.875  18.085  0.00  0.00    +0.000 NA
ATOM     26  C   UNL     1       2.223   7.608  18.420  0.00  0.00    +0.000 A 
ENDBRANCH  20  21
ENDBRANCH  14  15
ENDBRANCH   1  14
TORSDOF 5
ENDMDL
MODEL 2
REMARK VINA RESULT:      -8.4      1.861      3.635
REMARK  Name = 
REMARK  5 active torsions:
REMARK  status: ('A' for Active; 'I' for Inactive)
REMARK    1  A    between atoms: N_2  and  C_4
REMARK    2  A    between atoms: C_11  and  O_12
REMARK    3  A    between atoms: O_12  and  C_13
REMARK    4  A    between atoms: C_13  and  C_14
REMARK    5  A    between atoms: C_19  and  C_20
REMARK                            x       y       z     vdW  Elec       q    Type
REMARK                         _______ _______ _______ _____ _____    ______ ____
ROOT
ATOM      1  O   UNL     1       4.584   5.380  18.962  0.00  0.00    +0.000 OA
ENDROOT
BRANCH   1   9
ATOM      2  C   UNL     1       6.959   4.740  14.064  0.00  0.00    +0.000 A 
ATOM      3  C   UNL     1       5.695   4.484  14.567  0.00  0.00    +0.000 A 
ATOM      4  N   UNL     1       5.897   4.399  15.911  0.00  0.00    +0.000 N 
ATOM      5  C   UNL     1       7.212   4.602  16.181  0.00  0.00    +0.000 A 
ATOM      6  N   UNL     1       7.899   4.810  15.078  0.00  0.00    +0.000 NA
ATOM      7  O   UNL     1       7.732   4.472  17.387  0.00  0.00    +0.000 OA
ATOM      8  C   UNL     1       6.854   4.734  18.484  0.00  0.00    +0.000 C 
ATOM      9  C   UNL     1       5.365   4.332  18.339  0.00  0.00    +0.000 C 
ATOM     10  C   UNL     1       4.924   4.036  16.900  0.00  0.00    +0.000 C 
BRANCH   2  12
ATOM     11  O   UNL     1       6.889   4.007  11.894  0.00  0.00    +0.000 OA
ATOM     12  N   UNL     1       7.321   4.874  12.672  0.00  0.00    +0.000 N 
ATOM     13  O   UNL     1       8.030   5.835  12.351  0.00  0.00    +0.000 OA
ENDBRANCH   2  12
ENDBRANCH   1   9
BRANCH   1  14
ATOM     14  C   UNL     1       3.495   5.853  18.158  0.00  0.00    +0.000 C 
BRANCH  14  15
ATOM     15  C   UNL     1       2.564   6.808  18.878  0.00  0.00    +0.000 A 
ATOM     16  C   UNL     1       2.512   8.152  18.444  0.00  0.00    +0.000 A 
ATOM     17  C   UNL     1       1.733   9.099  19.100  0.00  0.00    +0.000 A 
ATOM     18  C   UNL     1       0.991   8.723  20.207  0.00  0.00    +0.000 A 
ATOM     19  C   UNL     1       1.004   7.394  20.637  0.00  0.00    +0.000 A 
ATOM     20  C   UNL     1       1.774   6.395  19.994  0.00  0.00    +0.000 A 
BRANCH  20  21
ATOM     21  C   UNL     1       1.718   5.001  20.532  0.00  0.00    +0.000 A 
ATOM     22  C   UNL     1       0.914   4.010  19.943  0.00  0.00    +0.000 A 
ATOM     23  C   UNL     1       0.875   2.708  20.453  0.00  0.00    +0.000 A 
ATOM     24  C   UNL     1       1.621   2.418  21.578  0.00  0.00    +0.000 A 
ATOM     25  N   UNL     1       2.433   3.313  22.170  0.00  0.00    +0.000 NA
ATOM     26  C   UNL     1       2.490   4.547  21.606  0.00  0.00    +0.000 A 
ENDBRANCH  20  21
ENDBRANCH  14  15
ENDBRANCH   1  14
TORSDOF 5
ENDMDL
MODEL 3
REMARK VINA RESULT:      -8.4      0.682      1.164
REMARK  Name = 
REMARK  5 active torsions:
REMARK  status: ('A' for Active; 'I' for Inactive)
REMARK    1  A    between atoms: N_2  and  C_4
REMARK    2  A    between atoms: C_11  and  O_12
REMARK    3  A    between atoms: O_12  and  C_13
REMARK    4  A    between atoms: C_13  and  C_14
REMARK    5  A    between atoms: C_19  and  C_20
REMARK                            x       y       z     vdW  Elec       q    Type
REMARK                         _______ _______ _______ _____ _____    ______ ____
ROOT
ATOM      1  O   UNL     1       5.633   5.835  19.076  0.00  0.00    +0.000 OA
ENDROOT
BRANCH   1   9
ATOM      2  C   UNL     1       6.601   4.256  13.917  0.00  0.00    +0.000 A 
ATOM      3  C   UNL     1       6.252   3.595  15.082  0.00  0.00    +0.000 A 
ATOM      4  N   UNL     1       6.643   4.452  16.066  0.00  0.00    +0.000 N 
ATOM      5  C   UNL     1       7.186   5.562  15.504  0.00  0.00    +0.000 A 
ATOM      6  N   UNL     1       7.185   5.482  14.191  0.00  0.00    +0.000 NA
ATOM      7  O   UNL     1       7.755   6.524  16.206  0.00  0.00    +0.000 OA
ATOM      8  C   UNL     1       7.262   6.712  17.535  0.00  0.00    +0.000 C 
ATOM      9  C   UNL     1       6.817   5.461  18.332  0.00  0.00    +0.000 C 
ATOM     10  C   UNL     1       6.611   4.204  17.477  0.00  0.00    +0.000 C 
BRANCH   2  12
ATOM     11  O   UNL     1       7.248   4.198  11.720  0.00  0.00    +0.000 OA
ATOM     12  N   UNL     1       6.449   3.764  12.568  0.00  0.00    +0.000 N 
ATOM     13  O   UNL     1       5.544   2.950  12.349  0.00  0.00    +0.000 OA
ENDBRANCH   2  12
ENDBRANCH   1   9
BRANCH   1  14
ATOM     14  C   UNL     1       4.403   5.449  18.449  0.00  0.00    +0.000 C 
BRANCH  14  15
ATOM     15  C   UNL     1       3.397   4.823  19.395  0.00  0.00    +0.000 A 
ATOM     16  C   UNL     1       3.579   3.474  19.773  0.00  0.00    +0.000 A 
ATOM     17  C   UNL     1       2.659   2.815  20.583  0.00  0.00    +0.000 A 
ATOM     18  C   UNL     1       1.537   3.491  21.030  0.00  0.00    +0.000 A 
ATOM     19  C   UNL     1       1.351   4.834  20.692  0.00  0.00    +0.000 A 
ATOM     20  C   UNL     1       2.265   5.547  19.880  0.00  0.00    +0.000 A 
BRANCH  20  21
ATOM     21  C   UNL     1       1.975   6.982  19.578  0.00  0.00    +0.000 A 
ATOM     22  C   UNL     1       2.165   7.524  18.294  0.00  0.00    +0.000 A 
ATOM     23  C   UNL     1       1.885   8.867  18.024  0.00  0.00    +0.000 A 
ATOM     24  C   UNL     1       1.447   9.670  19.059  0.00  0.00    +0.000 A 
ATOM     25  N   UNL     1       1.217   9.206  20.300  0.00  0.00    +0.000 NA
ATOM     26  C   UNL     1       1.441   7.882  20.505  0.00  0.00    +0.000 A 
ENDBRANCH  20  21
ENDBRANCH  14  15
ENDBRANCH   1  14
TORSDOF 5
ENDMDL
MODEL 4
REMARK VINA RESULT:      -8.3      1.623      3.386
REMARK  Name = 
REMARK  5 active torsions:
REMARK  status: ('A' for Active; 'I' for Inactive)
REMARK    1  A    between atoms: N_2  and  C_4
REMARK    2  A    between atoms: C_11  and  O_12
REMARK    3  A    between atoms: O_12  and  C_13
REMARK    4  A    between atoms: C_13  and  C_14
REMARK    5  A    between atoms: C_19  and  C_20
REMARK                            x       y       z     vdW  Elec       q    Type
REMARK                         _______ _______ _______ _____ _____    ______ ____
ROOT
ATOM      1  O   UNL     1       5.134   5.591  18.921  0.00  0.00    +0.000 OA
ENDROOT
BRANCH   1   9
ATOM      2  C   UNL     1       6.353   4.112  13.786  0.00  0.00    +0.000 A 
ATOM      3  C   UNL     1       5.861   3.444  14.893  0.00  0.00    +0.000 A 
ATOM      4  N   UNL     1       6.248   4.229  15.938  0.00  0.00    +0.000 N 
ATOM      5  C   UNL     1       6.926   5.304  15.464  0.00  0.00    +0.000 A 
ATOM      6  N   UNL     1       7.019   5.270  14.152  0.00  0.00    +0.000 NA
ATOM      7  O   UNL     1       7.521   6.186  16.245  0.00  0.00    +0.000 OA
ATOM      8  C   UNL     1       6.946   6.372  17.540  0.00  0.00    +0.000 C 
ATOM      9  C   UNL     1       6.335   5.139  18.250  0.00  0.00    +0.000 C 
ATOM     10  C   UNL     1       6.086   3.935  17.331  0.00  0.00    +0.000 C 
BRANCH   2  12
ATOM     11  O   UNL     1       5.149   3.299  12.015  0.00  0.00    +0.000 OA
ATOM     12  N   UNL     1       6.263   3.683  12.409  0.00  0.00    +0.000 N 
ATOM     13  O   UNL     1       7.291   3.727  11.723  0.00  0.00    +0.000 OA
ENDBRANCH   2  12
ENDBRANCH   1   9
BRANCH   1  14
ATOM     14  C   UNL     1       4.009   5.766  18.049  0.00  0.00    +0.000 C 
BRANCH  14  15
ATOM     15  C   UNL     1       2.990   6.771  18.549  0.00  0.00    +0.000 A 
ATOM     16  C   UNL     1       3.023   8.080  18.020  0.00  0.00    +0.000 A 
ATOM     17  C   UNL     1       2.164   9.073  18.480  0.00  0.00    +0.000 A 
ATOM     18  C   UNL     1       1.256   8.778  19.482  0.00  0.00    +0.000 A 
ATOM     19  C   UNL     1       1.186   7.482  20.000  0.00  0.00    +0.000 A 
ATOM     20  C   UNL     1       2.032   6.439  19.555  0.00  0.00    +0.000 A 
BRANCH  20  21
ATOM     21  C   UNL     1       1.877   5.087  20.173  0.00  0.00    +0.000 A 
ATOM     22  C   UNL     1       1.177   4.051  19.528  0.00  0.00    +0.000 A 
ATOM     23  C   UNL     1       1.043   2.790  20.115  0.00  0.00    +0.000 A 
ATOM     24  C   UNL     1       1.585   2.585  21.369  0.00  0.00    +0.000 A 
ATOM     25  N   UNL     1       2.290   3.523  22.024  0.00  0.00    +0.000 NA
ATOM     26  C   UNL     1       2.452   4.715  21.392  0.00  0.00    +0.000 A 
ENDBRANCH  20  21
ENDBRANCH  14  15
ENDBRANCH   1  14
TORSDOF 5
ENDMDL
MODEL 5
REMARK VINA RESULT:      -8.3      1.291      1.684
REMARK  Name = 
REMARK  5 active torsions:
REMARK  status: ('A' for Active; 'I' for Inactive)
REMARK    1  A    between atoms: N_2  and  C_4
REMARK    2  A    between atoms: C_11  and  O_12
REMARK    3  A    between atoms: O_12  and  C_13
REMARK    4  A    between atoms: C_13  and  C_14
REMARK    5  A    between atoms: C_19  and  C_20
REMARK                            x       y       z     vdW  Elec       q    Type
REMARK                         _______ _______ _______ _____ _____    ______ ____
ROOT
ATOM      1  O   UNL     1       6.419   5.007  19.444  0.00  0.00    +0.000 OA
ENDROOT
BRANCH   1   9
ATOM      2  C   UNL     1       6.060   4.242  14.029  0.00  0.00    +0.000 A 
ATOM      3  C   UNL     1       6.732   3.600  15.054  0.00  0.00    +0.000 A 
ATOM      4  N   UNL     1       6.800   4.544  16.033  0.00  0.00    +0.000 N 
ATOM      5  C   UNL     1       6.192   5.679  15.604  0.00  0.00    +0.000 A 
ATOM      6  N   UNL     1       5.729   5.540  14.381  0.00  0.00    +0.000 NA
ATOM      7  O   UNL     1       6.193   6.805  16.293  0.00  0.00    +0.000 OA
ATOM      8  C   UNL     1       6.274   6.675  17.714  0.00  0.00    +0.000 C 
ATOM      9  C   UNL     1       7.131   5.523  18.295  0.00  0.00    +0.000 C 
ATOM     10  C   UNL     1       7.497   4.431  17.280  0.00  0.00    +0.000 C 
BRANCH   2  12
ATOM     11  O   UNL     1       6.729   3.388  12.011  0.00  0.00    +0.000 OA
ATOM     12  N   UNL     1       5.760   3.702  12.722  0.00  0.00    +0.000 N 
ATOM     13  O   UNL     1       4.571   3.589  12.404  0.00  0.00    +0.000 OA
ENDBRANCH   2  12
ENDBRANCH   1   9
BRANCH   1  14
ATOM     14  C   UNL     1       5.086   5.518  19.584  0.00  0.00    +0.000 C 
BRANCH  14  15
ATOM     15  C   UNL     1       4.026   4.673  18.908  0.00  0.00    +0.000 A 
ATOM     16  C   UNL     1       4.319   3.317  18.637  0.00  0.00    +0.000 A 
ATOM     17  C   UNL     1       3.420   2.500  17.959  0.00  0.00    +0.000 A 
ATOM     18  C   UNL     1       2.210   3.022  17.535  0.00  0.00    +0.000 A 
ATOM     19  C   UNL     1       1.887   4.352  17.817  0.00  0.00    +0.000 A 
ATOM     20  C   UNL     1       2.766   5.216  18.512  0.00  0.00    +0.000 A 
BRANCH  20  21
ATOM     21  C   UNL     1       2.324   6.622  18.765  0.00  0.00    +0.000 A 
ATOM     22  C   UNL     1       2.308   7.590  17.746  0.00  0.00    +0.000 A 
ATOM     23  C   UNL     1       1.888   8.900  17.995  0.00  0.00    +0.000 A 
ATOM     24  C   UNL     1       1.518   9.241  19.281  0.00  0.00    +0.000 A 
ATOM     25  N   UNL     1       1.483   8.355  20.292  0.00  0.00    +0.000 NA
ATOM     26  C   UNL     1       1.838   7.078  19.994  0.00  0.00    +0.000 A 
ENDBRANCH  20  21
ENDBRANCH  14  15
ENDBRANCH   1  14
TORSDOF 5
ENDMDL
MODEL 6
REMARK VINA RESULT:      -8.3      3.563      7.776
REMARK  Name = 
REMARK  5 active torsions:
REMARK  status: ('A' for Active; 'I' for Inactive)
REMARK    1  A    between atoms: N_2  and  C_4
REMARK    2  A    between atoms: C_11  and  O_12
REMARK    3  A    between atoms: O_12  and  C_13
REMARK    4  A    between atoms: C_13  and  C_14
REMARK    5  A    between atoms: C_19  and  C_20
REMARK                            x       y       z     vdW  Elec       q    Type
REMARK                         _______ _______ _______ _____ _____    ______ ____
ROOT
ATOM      1  O   UNL     1       3.887   7.608  17.850  0.00  0.00    +0.000 OA
ENDROOT
BRANCH   1   9
ATOM      2  C   UNL     1       0.607   9.654  21.736  0.00  0.00    +0.000 A 
ATOM      3  C   UNL     1       1.346   8.491  21.608  0.00  0.00    +0.000 A 
ATOM      4  N   UNL     1       1.521   8.370  20.262  0.00  0.00    +0.000 N 
ATOM      5  C   UNL     1       0.922   9.415  19.637  0.00  0.00    +0.000 A 
ATOM      6  N   UNL     1       0.346  10.222  20.501  0.00  0.00    +0.000 NA
ATOM      7  O   UNL     1       0.828   9.515  18.324  0.00  0.00    +0.000 OA
ATOM      8  C   UNL     1       1.866   8.886  17.568  0.00  0.00    +0.000 C 
ATOM      9  C   UNL     1       2.463   7.563  18.107  0.00  0.00    +0.000 C 
ATOM     10  C   UNL     1       2.132   7.270  19.576  0.00  0.00    +0.000 C 
BRANCH   2  12
ATOM     11  O   UNL     1       0.269   9.558  24.000  0.00  0.00    +0.000 OA
ATOM     12  N   UNL     1       0.102  10.224  22.964  0.00  0.00    +0.000 N 
ATOM     13  O   UNL     1      -0.456  11.325  22.903  0.00  0.00    +0.000 OA
ENDBRANCH   2  12
ENDBRANCH   1   9
BRANCH   1  14
ATOM     14  C   UNL     1       4.606   6.470  18.346  0.00  0.00    +0.000 C 
BRANCH  14  15
ATOM     15  C   UNL     1       5.091   5.527  17.264  0.00  0.00    +0.000 A 
ATOM     16  C   UNL     1       6.105   5.974  16.387  0.00  0.00    +0.000 A 
ATOM     17  C   UNL     1       6.552   5.188  15.329  0.00  0.00    +0.000 A 
ATOM     18  C   UNL     1       5.991   3.939  15.124  0.00  0.00    +0.000 A 
ATOM     19  C   UNL     1       5.007   3.464  15.995  0.00  0.00    +0.000 A 
ATOM     20  C   UNL     1       4.530   4.225  17.090  0.00  0.00    +0.000 A 
BRANCH  20  21
ATOM     21  C   UNL     1       3.476   3.625  17.964  0.00  0.00    +0.000 A 
ATOM     22  C   UNL     1       2.110   3.699  17.637  0.00  0.00    +0.000 A 
ATOM     23  C   UNL     1       1.134   3.130  18.461  0.00  0.00    +0.000 A 
ATOM     24  C   UNL     1       1.536   2.517  19.632  0.00  0.00    +0.000 A 
ATOM     25  N   UNL     1       2.827   2.387  19.985  0.00  0.00    +0.000 NA
ATOM     26  C   UNL     1       3.747   2.898  19.126  0.00  0.00    +0.000 A 
ENDBRANCH  20  21
ENDBRANCH  14  15
ENDBRANCH   1  14
TORSDOF 5
ENDMDL
MODEL 7
REMARK VINA RESULT:      -8.2      3.500      7.699
REMARK  Name = 
REMARK  5 active torsions:
REMARK  status: ('A' for Active; 'I' for Inactive)
REMARK    1  A    between atoms: N_2  and  C_4
REMARK    2  A    between atoms: C_11  and  O_12
REMARK    3  A    between atoms: O_12  and  C_13
REMARK    4  A    between atoms: C_13  and  C_14
REMARK    5  A    between atoms: C_19  and  C_20
REMARK                            x       y       z     vdW  Elec       q    Type
REMARK                         _______ _______ _______ _____ _____    ______ ____
ROOT
ATOM      1  O   UNL     1       4.264   7.302  18.129  0.00  0.00    +0.000 OA
ENDROOT
BRANCH   1   9
ATOM      2  C   UNL     1       0.591   9.489  21.559  0.00  0.00    +0.000 A 
ATOM      3  C   UNL     1       1.317   8.311  21.543  0.00  0.00    +0.000 A 
ATOM      4  N   UNL     1       1.647   8.158  20.230  0.00  0.00    +0.000 N 
ATOM      5  C   UNL     1       1.145   9.197  19.517  0.00  0.00    +0.000 A 
ATOM      6  N   UNL     1       0.487  10.034  20.290  0.00  0.00    +0.000 NA
ATOM      7  O   UNL     1       1.208   9.269  18.200  0.00  0.00    +0.000 OA
ATOM      8  C   UNL     1       2.315   8.606  17.585  0.00  0.00    +0.000 C 
ATOM      9  C   UNL     1       2.819   7.286  18.218  0.00  0.00    +0.000 C 
ATOM     10  C   UNL     1       2.312   7.032  19.644  0.00  0.00    +0.000 C 
BRANCH   2  12
ATOM     11  O   UNL     1       0.312   9.685  23.825  0.00  0.00    +0.000 OA
ATOM     12  N   UNL     1      -0.044  10.095  22.708  0.00  0.00    +0.000 N 
ATOM     13  O   UNL     1      -0.889  10.974  22.503  0.00  0.00    +0.000 OA
ENDBRANCH   2  12
ENDBRANCH   1   9
BRANCH   1  14
ATOM     14  C   UNL     1       4.880   6.038  18.411  0.00  0.00    +0.000 C 
BRANCH  14  15
ATOM     15  C   UNL     1       5.311   5.271  17.177  0.00  0.00    +0.000 A 
ATOM     16  C   UNL     1       6.404   5.762  16.429  0.00  0.00    +0.000 A 
ATOM     17  C   UNL     1       6.812   5.149  15.248  0.00  0.00    +0.000 A 
ATOM     18  C   UNL     1       6.133   4.033  14.790  0.00  0.00    +0.000 A 
ATOM     19  C   UNL     1       5.068   3.512  15.529  0.00  0.00    +0.000 A 
ATOM     20  C   UNL     1       4.625   4.097  16.739  0.00  0.00    +0.000 A 
BRANCH  20  21
ATOM     21  C   UNL     1       3.476   3.462  17.455  0.00  0.00    +0.000 A 
ATOM     22  C   UNL     1       3.658   2.392  18.349  0.00  0.00    +0.000 A 
ATOM     23  C   UNL     1       2.576   1.810  19.015  0.00  0.00    +0.000 A 
ATOM     24  C   UNL     1       1.306   2.287  18.753  0.00  0.00    +0.000 A 
ATOM     25  N   UNL     1       1.069   3.326  17.933  0.00  0.00    +0.000 NA
ATOM     26  C   UNL     1       2.154   3.904  17.354  0.00  0.00    +0.000 A 
ENDBRANCH  20  21
ENDBRANCH  14  15
ENDBRANCH   1  14
TORSDOF 5
ENDMDL
MODEL 8
REMARK VINA RESULT:      -8.1      1.828      3.661
REMARK  Name = 
REMARK  5 active torsions:
REMARK  status: ('A' for Active; 'I' for Inactive)
REMARK    1  A    between atoms: N_2  and  C_4
REMARK    2  A    between atoms: C_11  and  O_12
REMARK    3  A    between atoms: O_12  and  C_13
REMARK    4  A    between atoms: C_13  and  C_14
REMARK    5  A    between atoms: C_19  and  C_20
REMARK                            x       y       z     vdW  Elec       q    Type
REMARK                         _______ _______ _______ _____ _____    ______ ____
ROOT
ATOM      1  O   UNL     1       4.418   6.173  19.042  0.00  0.00    +0.000 OA
ENDROOT
BRANCH   1   9
ATOM      2  C   UNL     1       6.859   4.819  14.325  0.00  0.00    +0.000 A 
ATOM      3  C   UNL     1       5.543   4.910  14.741  0.00  0.00    +0.000 A 
ATOM      4  N   UNL     1       5.628   4.810  16.097  0.00  0.00    +0.000 N 
ATOM      5  C   UNL     1       6.930   4.675  16.455  0.00  0.00    +0.000 A 
ATOM      6  N   UNL     1       7.718   4.671  15.401  0.00  0.00    +0.000 NA
ATOM      7  O   UNL     1       7.319   4.446  17.696  0.00  0.00    +0.000 OA
ATOM      8  C   UNL     1       6.469   4.953  18.727  0.00  0.00    +0.000 C 
ATOM      9  C   UNL     1       4.940   4.945  18.482  0.00  0.00    +0.000 C 
ATOM     10  C   UNL     1       4.532   4.736  17.018  0.00  0.00    +0.000 C 
BRANCH   2  12
ATOM     11  O   UNL     1       8.162   5.697  12.657  0.00  0.00    +0.000 OA
ATOM     12  N   UNL     1       7.335   4.821  12.960  0.00  0.00    +0.000 N 
ATOM     13  O   UNL     1       6.891   3.957  12.194  0.00  0.00    +0.000 OA
ENDBRANCH   2  12
ENDBRANCH   1   9
BRANCH   1  14
ATOM     14  C   UNL     1       3.213   6.635  18.415  0.00  0.00    +0.000 C 
BRANCH  14  15
ATOM     15  C   UNL     1       2.205   7.231  19.377  0.00  0.00    +0.000 A 
ATOM     16  C   UNL     1       1.980   8.625  19.335  0.00  0.00    +0.000 A 
ATOM     17  C   UNL     1       1.121   9.251  20.233  0.00  0.00    +0.000 A 
ATOM     18  C   UNL     1       0.470   8.495  21.193  0.00  0.00    +0.000 A 
ATOM     19  C   UNL     1       0.655   7.111  21.235  0.00  0.00    +0.000 A 
ATOM     20  C   UNL     1       1.512   6.432  20.336  0.00  0.00    +0.000 A 
BRANCH  20  21
ATOM     21  C   UNL     1       1.639   4.947  20.463  0.00  0.00    +0.000 A 
ATOM     22  C   UNL     1       2.348   4.351  21.520  0.00  0.00    +0.000 A 
ATOM     23  C   UNL     1       2.456   2.962  21.631  0.00  0.00    +0.000 A 
ATOM     24  C   UNL     1       1.877   2.176  20.653  0.00  0.00    +0.000 A 
ATOM     25  N   UNL     1       1.161   2.683  19.634  0.00  0.00    +0.000 NA
ATOM     26  C   UNL     1       1.027   4.035  19.599  0.00  0.00    +0.000 A 
ENDBRANCH  20  21
ENDBRANCH  14  15
ENDBRANCH   1  14
TORSDOF 5
ENDMDL
MODEL 9
REMARK VINA RESULT:      -8.0      1.070      1.241
REMARK  Name = 
REMARK  5 active torsions:
REMARK  status: ('A' for Active; 'I' for Inactive)
REMARK    1  A    between atoms: N_2  and  C_4
REMARK    2  A    between atoms: C_11  and  O_12
REMARK    3  A    between atoms: O_12  and  C_13
REMARK    4  A    between atoms: C_13  and  C_14
REMARK    5  A    between atoms: C_19  and  C_20
REMARK                            x       y       z     vdW  Elec       q    Type
REMARK                         _______ _______ _______ _____ _____    ______ ____
ROOT
ATOM      1  O   UNL     1       5.289   5.750  18.774  0.00  0.00    +0.000 OA
ENDROOT
BRANCH   1   9
ATOM      2  C   UNL     1       6.566   4.171  13.683  0.00  0.00    +0.000 A 
ATOM      3  C   UNL     1       6.119   3.514  14.815  0.00  0.00    +0.000 A 
ATOM      4  N   UNL     1       6.465   4.354  15.830  0.00  0.00    +0.000 N 
ATOM      5  C   UNL     1       7.078   5.450  15.316  0.00  0.00    +0.000 A 
ATOM      6  N   UNL     1       7.165   5.378  14.005  0.00  0.00    +0.000 NA
ATOM      7  O   UNL     1       7.624   6.391  16.063  0.00  0.00    +0.000 OA
ATOM      8  C   UNL     1       7.046   6.587  17.355  0.00  0.00    +0.000 C 
ATOM      9  C   UNL     1       6.511   5.345  18.110  0.00  0.00    +0.000 C 
ATOM     10  C   UNL     1       6.328   4.099  17.234  0.00  0.00    +0.000 C 
BRANCH   2  12
ATOM     11  O   UNL     1       7.367   4.098  11.538  0.00  0.00    +0.000 OA
ATOM     12  N   UNL     1       6.494   3.691  12.322  0.00  0.00    +0.000 N 
ATOM     13  O   UNL     1       5.578   2.913  12.033  0.00  0.00    +0.000 OA
ENDBRANCH   2  12
ENDBRANCH   1   9
BRANCH   1  14
ATOM     14  C   UNL     1       4.847   4.839  19.790  0.00  0.00    +0.000 C 
BRANCH  14  15
ATOM     15  C   UNL     1       3.604   4.056  19.419  0.00  0.00    +0.000 A 
ATOM     16  C   UNL     1       3.716   2.658  19.250  0.00  0.00    +0.000 A 
ATOM     17  C   UNL     1       2.633   1.884  18.844  0.00  0.00    +0.000 A 
ATOM     18  C   UNL     1       1.415   2.494  18.596  0.00  0.00    +0.000 A 
ATOM     19  C   UNL     1       1.273   3.872  18.784  0.00  0.00    +0.000 A 
ATOM     20  C   UNL     1       2.345   4.695  19.206  0.00  0.00    +0.000 A 
BRANCH  20  21
ATOM     21  C   UNL     1       2.089   6.158  19.379  0.00  0.00    +0.000 A 
ATOM     22  C   UNL     1       1.645   6.694  20.600  0.00  0.00    +0.000 A 
ATOM     23  C   UNL     1       1.414   8.065  20.751  0.00  0.00    +0.000 A 
ATOM     24  C   UNL     1       1.598   8.889  19.657  0.00  0.00    +0.000 A 
ATOM     25  N   UNL     1       2.049   8.442  18.471  0.00  0.00    +0.000 NA
ATOM     26  C   UNL     1       2.322   7.114  18.386  0.00  0.00    +0.000 A 
ENDBRANCH  20  21
ENDBRANCH  14  15
ENDBRANCH   1  14
TORSDOF 5
ENDMDL
