MODEL 1
REMARK VINA RESULT:      -7.8      0.000      0.000
REMARK  Name = 
REMARK  5 active torsions:
REMARK  status: ('A' for Active; 'I' for Inactive)
REMARK    1  A    between atoms: C_1  and  O_2
REMARK    2  A    between atoms: O_2  and  C_3
REMARK    3  A    between atoms: C_9  and  C_10
REMARK    4  A    between atoms: C_11  and  C_12
REMARK    5  A    between atoms: N_14  and  C_15
REMARK                            x       y       z     vdW  Elec       q    Type
REMARK                         _______ _______ _______ _____ _____    ______ ____
ROOT
ATOM      1  C   UNL     1      11.122  15.684  20.698  0.00  0.00    +0.000 A 
ATOM      2  C   UNL     1      10.432  15.161  21.795  0.00  0.00    +0.000 A 
ATOM      3  C   UNL     1       9.866  13.890  21.725  0.00  0.00    +0.000 A 
ATOM      4  C   UNL     1       9.991  13.138  20.556  0.00  0.00    +0.000 A 
ATOM      5  C   UNL     1       9.389  11.801  20.476  0.00  0.00    +0.000 A 
ATOM      6  O   UNL     1       8.769  11.360  21.437  0.00  0.00    +0.000 OA
ATOM      7  C   UNL     1       9.577  11.052  19.200  0.00  0.00    +0.000 A 
ATOM      8  C   UNL     1      10.268  11.685  18.235  0.00  0.00    +0.000 A 
ATOM      9  O   UNL     1      10.823  12.942  18.294  0.00  0.00    +0.000 OA
ATOM     10  C   UNL     1      10.679  13.646  19.462  0.00  0.00    +0.000 A 
ATOM     11  C   UNL     1      11.247  14.919  19.532  0.00  0.00    +0.000 A 
ENDROOT
BRANCH   1  13
ATOM     12  C   UNL     1      10.875  18.002  20.256  0.00  0.00    +0.000 C 
ATOM     13  O   UNL     1      11.710  16.918  20.652  0.00  0.00    +0.000 OA
ENDBRANCH   1  13
BRANCH   7  14
ATOM     14  C   UNL     1       9.062   9.708  18.984  0.00  0.00    +0.000 C 
ATOM     15  C   UNL     1       8.295   9.284  17.965  0.00  0.00    +0.000 C 
BRANCH  15  16
ATOM     16  C   UNL     1       7.833   7.871  17.951  0.00  0.00    +0.000 C 
ATOM     17  O   UNL     1       8.257   7.079  18.787  0.00  0.00    +0.000 OA
ATOM     18  N   UNL     1       6.955   7.602  16.922  0.00  0.00    +0.000 N 
ATOM     19  H   UNL     1       6.805   8.319  16.223  0.00  0.00    +0.000 HD
BRANCH  18  20
ATOM     20  C   UNL     1       6.307   6.367  16.699  0.00  0.00    +0.000 A 
ATOM     21  C   UNL     1       6.896   5.319  15.986  0.00  0.00    +0.000 A 
ATOM     22  C   UNL     1       6.208   4.124  15.772  0.00  0.00    +0.000 A 
ATOM     23  C   UNL     1       4.922   3.961  16.274  0.00  0.00    +0.000 A 
ATOM     24  C   UNL     1       4.331   4.990  17.004  0.00  0.00    +0.000 A 
ATOM     25  C   UNL     1       5.024   6.184  17.229  0.00  0.00    +0.000 A 
ENDBRANCH  18  20
ENDBRANCH  15  16
ENDBRANCH   7  14
TORSDOF 4
ENDMDL
MODEL 2
REMARK VINA RESULT:      -7.7      0.629      1.164
REMARK  Name = 
REMARK  5 active torsions:
REMARK  status: ('A' for Active; 'I' for Inactive)
REMARK    1  A    between atoms: C_1  and  O_2
REMARK    2  A    between atoms: O_2  and  C_3
REMARK    3  A    between atoms: C_9  and  C_10
REMARK    4  A    between atoms: C_11  and  C_12
REMARK    5  A    between atoms: N_14  and  C_15
REMARK                            x       y       z     vdW  Elec       q    Type
REMARK                         _______ _______ _______ _____ _____    ______ ____
ROOT
ATOM      1  C   UNL     1      11.074  15.767  19.874  0.00  0.00    +0.000 A 
ATOM      2  C   UNL     1      10.756  15.212  21.117  0.00  0.00    +0.000 A 
ATOM      3  C   UNL     1      10.230  13.924  21.195  0.00  0.00    +0.000 A 
ATOM      4  C   UNL     1      10.022  13.187  20.028  0.00  0.00    +0.000 A 
ATOM      5  C   UNL     1       9.461  11.833  20.107  0.00  0.00    +0.000 A 
ATOM      6  O   UNL     1       9.167  11.364  21.200  0.00  0.00    +0.000 OA
ATOM      7  C   UNL     1       9.281  11.102  18.819  0.00  0.00    +0.000 A 
ATOM      8  C   UNL     1       9.637  11.766  17.704  0.00  0.00    +0.000 A 
ATOM      9  O   UNL     1      10.150  13.039  17.619  0.00  0.00    +0.000 OA
ATOM     10  C   UNL     1      10.340  13.728  18.789  0.00  0.00    +0.000 A 
ATOM     11  C   UNL     1      10.868  15.017  18.710  0.00  0.00    +0.000 A 
ENDROOT
BRANCH   1  13
ATOM     12  C   UNL     1      12.048  17.702  20.841  0.00  0.00    +0.000 C 
ATOM     13  O   UNL     1      11.588  17.019  19.679  0.00  0.00    +0.000 OA
ENDBRANCH   1  13
BRANCH   7  14
ATOM     14  C   UNL     1       8.763   9.745  18.742  0.00  0.00    +0.000 C 
ATOM     15  C   UNL     1       8.293   9.114  17.652  0.00  0.00    +0.000 C 
BRANCH  15  16
ATOM     16  C   UNL     1       7.762   7.732  17.793  0.00  0.00    +0.000 C 
ATOM     17  O   UNL     1       8.198   6.994  18.671  0.00  0.00    +0.000 OA
ATOM     18  N   UNL     1       6.812   7.421  16.843  0.00  0.00    +0.000 N 
ATOM     19  H   UNL     1       6.655   8.081  16.091  0.00  0.00    +0.000 HD
BRANCH  18  20
ATOM     20  C   UNL     1       6.093   6.208  16.770  0.00  0.00    +0.000 A 
ATOM     21  C   UNL     1       4.901   5.989  17.467  0.00  0.00    +0.000 A 
ATOM     22  C   UNL     1       4.237   4.765  17.382  0.00  0.00    +0.000 A 
ATOM     23  C   UNL     1       4.756   3.744  16.594  0.00  0.00    +0.000 A 
ATOM     24  C   UNL     1       5.933   3.955  15.878  0.00  0.00    +0.000 A 
ATOM     25  C   UNL     1       6.594   5.186  15.954  0.00  0.00    +0.000 A 
ENDBRANCH  18  20
ENDBRANCH  15  16
ENDBRANCH   7  14
TORSDOF 4
ENDMDL
MODEL 3
REMARK VINA RESULT:      -7.6      1.552      2.144
REMARK  Name = 
REMARK  5 active torsions:
REMARK  status: ('A' for Active; 'I' for Inactive)
REMARK    1  A    between atoms: C_1  and  O_2
REMARK    2  A    between atoms: O_2  and  C_3
REMARK    3  A    between atoms: C_9  and  C_10
REMARK    4  A    between atoms: C_11  and  C_12
REMARK    5  A    between atoms: N_14  and  C_15
REMARK                            x       y       z     vdW  Elec       q    Type
REMARK                         _______ _______ _______ _____ _____    ______ ____
ROOT
ATOM      1  C   UNL     1      11.275  15.663  18.508  0.00  0.00    +0.000 A 
ATOM      2  C   UNL     1      10.107  15.661  17.740  0.00  0.00    +0.000 A 
ATOM      3  C   UNL     1       9.364  14.491  17.599  0.00  0.00    +0.000 A 
ATOM      4  C   UNL     1       9.787  13.320  18.229  0.00  0.00    +0.000 A 
ATOM      5  C   UNL     1       9.009  12.083  18.077  0.00  0.00    +0.000 A 
ATOM      6  O   UNL     1       7.998  12.088  17.384  0.00  0.00    +0.000 OA
ATOM      7  C   UNL     1       9.516  10.876  18.791  0.00  0.00    +0.000 A 
ATOM      8  C   UNL     1      10.652  11.034  19.494  0.00  0.00    +0.000 A 
ATOM      9  O   UNL     1      11.395  12.184  19.632  0.00  0.00    +0.000 OA
ATOM     10  C   UNL     1      10.943  13.312  18.998  0.00  0.00    +0.000 A 
ATOM     11  C   UNL     1      11.688  14.484  19.140  0.00  0.00    +0.000 A 
ENDROOT
BRANCH   1  13
ATOM     12  C   UNL     1      11.697  17.954  18.057  0.00  0.00    +0.000 C 
ATOM     13  O   UNL     1      12.084  16.747  18.709  0.00  0.00    +0.000 OA
ENDBRANCH   1  13
BRANCH   7  14
ATOM     14  C   UNL     1       8.838   9.589  18.755  0.00  0.00    +0.000 C 
ATOM     15  C   UNL     1       8.415   8.922  17.669  0.00  0.00    +0.000 C 
BRANCH  15  16
ATOM     16  C   UNL     1       7.697   7.633  17.849  0.00  0.00    +0.000 C 
ATOM     17  O   UNL     1       8.030   6.866  18.747  0.00  0.00    +0.000 OA
ATOM     18  N   UNL     1       6.708   7.431  16.909  0.00  0.00    +0.000 N 
ATOM     19  H   UNL     1       6.640   8.085  16.139  0.00  0.00    +0.000 HD
BRANCH  18  20
ATOM     20  C   UNL     1       5.826   6.328  16.872  0.00  0.00    +0.000 A 
ATOM     21  C   UNL     1       4.647   6.273  17.620  0.00  0.00    +0.000 A 
ATOM     22  C   UNL     1       3.818   5.152  17.568  0.00  0.00    +0.000 A 
ATOM     23  C   UNL     1       4.158   4.072  16.762  0.00  0.00    +0.000 A 
ATOM     24  C   UNL     1       5.320   4.121  15.995  0.00  0.00    +0.000 A 
ATOM     25  C   UNL     1       6.146   5.249  16.038  0.00  0.00    +0.000 A 
ENDBRANCH  18  20
ENDBRANCH  15  16
ENDBRANCH   7  14
TORSDOF 4
ENDMDL
MODEL 4
REMARK VINA RESULT:      -7.5      7.729      8.587
REMARK  Name = 
REMARK  5 active torsions:
REMARK  status: ('A' for Active; 'I' for Inactive)
REMARK    1  A    between atoms: C_1  and  O_2
REMARK    2  A    between atoms: O_2  and  C_3
REMARK    3  A    between atoms: C_9  and  C_10
REMARK    4  A    between atoms: C_11  and  C_12
REMARK    5  A    between atoms: N_14  and  C_15
REMARK                            x       y       z     vdW  Elec       q    Type
REMARK                         _______ _______ _______ _____ _____    ______ ____
ROOT
ATOM      1  C   UNL     1      -0.126   9.999  20.990  0.00  0.00    +0.000 A 
ATOM      2  C   UNL     1       0.120  10.669  19.789  0.00  0.00    +0.000 A 
ATOM      3  C   UNL     1       0.964  10.107  18.833  0.00  0.00    +0.000 A 
ATOM      4  C   UNL     1       1.562   8.870  19.077  0.00  0.00    +0.000 A 
ATOM      5  C   UNL     1       2.458   8.278  18.075  0.00  0.00    +0.000 A 
ATOM      6  O   UNL     1       2.683   8.884  17.034  0.00  0.00    +0.000 OA
ATOM      7  C   UNL     1       3.049   6.948  18.401  0.00  0.00    +0.000 A 
ATOM      8  C   UNL     1       2.715   6.426  19.595  0.00  0.00    +0.000 A 
ATOM      9  O   UNL     1       1.889   6.978  20.546  0.00  0.00    +0.000 OA
ATOM     10  C   UNL     1       1.320   8.194  20.266  0.00  0.00    +0.000 A 
ATOM     11  C   UNL     1       0.474   8.756  21.223  0.00  0.00    +0.000 A 
ENDROOT
BRANCH   1  13
ATOM     12  C   UNL     1      -0.568  10.068  23.320  0.00  0.00    +0.000 C 
ATOM     13  O   UNL     1      -0.929  10.458  21.998  0.00  0.00    +0.000 OA
ENDBRANCH   1  13
BRANCH   7  14
ATOM     14  C   UNL     1       3.931   6.227  17.496  0.00  0.00    +0.000 C 
ATOM     15  C   UNL     1       4.995   5.476  17.823  0.00  0.00    +0.000 C 
BRANCH  15  16
ATOM     16  C   UNL     1       5.800   4.854  16.739  0.00  0.00    +0.000 C 
ATOM     17  O   UNL     1       6.751   4.131  17.018  0.00  0.00    +0.000 OA
ATOM     18  N   UNL     1       5.372   5.213  15.478  0.00  0.00    +0.000 N 
ATOM     19  H   UNL     1       4.662   5.931  15.401  0.00  0.00    +0.000 HD
BRANCH  18  20
ATOM     20  C   UNL     1       5.906   4.728  14.263  0.00  0.00    +0.000 A 
ATOM     21  C   UNL     1       5.271   3.751  13.491  0.00  0.00    +0.000 A 
ATOM     22  C   UNL     1       5.848   3.287  12.308  0.00  0.00    +0.000 A 
ATOM     23  C   UNL     1       7.067   3.798  11.881  0.00  0.00    +0.000 A 
ATOM     24  C   UNL     1       7.702   4.788  12.630  0.00  0.00    +0.000 A 
ATOM     25  C   UNL     1       7.119   5.262  13.810  0.00  0.00    +0.000 A 
ENDBRANCH  18  20
ENDBRANCH  15  16
ENDBRANCH   7  14
TORSDOF 4
ENDMDL
MODEL 5
REMARK VINA RESULT:      -7.4      1.574      2.209
REMARK  Name = 
REMARK  5 active torsions:
REMARK  status: ('A' for Active; 'I' for Inactive)
REMARK    1  A    between atoms: C_1  and  O_2
REMARK    2  A    between atoms: O_2  and  C_3
REMARK    3  A    between atoms: C_9  and  C_10
REMARK    4  A    between atoms: C_11  and  C_12
REMARK    5  A    between atoms: N_14  and  C_15
REMARK                            x       y       z     vdW  Elec       q    Type
REMARK                         _______ _______ _______ _____ _____    ______ ____
ROOT
ATOM      1  C   UNL     1      11.093  14.903  19.488  0.00  0.00    +0.000 A 
ATOM      2  C   UNL     1      10.120  15.250  18.547  0.00  0.00    +0.000 A 
ATOM      3  C   UNL     1       9.295  14.271  17.998  0.00  0.00    +0.000 A 
ATOM      4  C   UNL     1       9.442  12.940  18.391  0.00  0.00    +0.000 A 
ATOM      5  C   UNL     1       8.579  11.904  17.808  0.00  0.00    +0.000 A 
ATOM      6  O   UNL     1       7.743  12.217  16.969  0.00  0.00    +0.000 OA
ATOM      7  C   UNL     1       8.785  10.507  18.288  0.00  0.00    +0.000 A 
ATOM      8  C   UNL     1       9.758  10.329  19.199  0.00  0.00    +0.000 A 
ATOM      9  O   UNL     1      10.580  11.289  19.741  0.00  0.00    +0.000 OA
ATOM     10  C   UNL     1      10.402  12.584  19.329  0.00  0.00    +0.000 A 
ATOM     11  C   UNL     1      11.228  13.565  19.880  0.00  0.00    +0.000 A 
ENDROOT
BRANCH   1  13
ATOM     12  C   UNL     1      11.447  16.517  21.191  0.00  0.00    +0.000 C 
ATOM     13  O   UNL     1      11.958  15.776  20.086  0.00  0.00    +0.000 OA
ENDBRANCH   1  13
BRANCH   7  14
ATOM     14  C   UNL     1       7.989   9.382  17.822  0.00  0.00    +0.000 C 
ATOM     15  C   UNL     1       8.207   8.077  18.058  0.00  0.00    +0.000 C 
BRANCH  15  16
ATOM     16  C   UNL     1       7.295   7.072  17.450  0.00  0.00    +0.000 C 
ATOM     17  O   UNL     1       7.526   6.635  16.326  0.00  0.00    +0.000 OA
ATOM     18  N   UNL     1       6.223   6.760  18.258  0.00  0.00    +0.000 N 
ATOM     19  H   UNL     1       6.084   7.306  19.099  0.00  0.00    +0.000 HD
BRANCH  18  20
ATOM     20  C   UNL     1       5.232   5.795  17.968  0.00  0.00    +0.000 A 
ATOM     21  C   UNL     1       5.537   4.501  17.535  0.00  0.00    +0.000 A 
ATOM     22  C   UNL     1       4.523   3.588  17.240  0.00  0.00    +0.000 A 
ATOM     23  C   UNL     1       3.191   3.959  17.376  0.00  0.00    +0.000 A 
ATOM     24  C   UNL     1       2.873   5.239  17.825  0.00  0.00    +0.000 A 
ATOM     25  C   UNL     1       3.888   6.152  18.133  0.00  0.00    +0.000 A 
ENDBRANCH  18  20
ENDBRANCH  15  16
ENDBRANCH   7  14
TORSDOF 4
ENDMDL
MODEL 6
REMARK VINA RESULT:      -7.3      7.821      9.244
REMARK  Name = 
REMARK  5 active torsions:
REMARK  status: ('A' for Active; 'I' for Inactive)
REMARK    1  A    between atoms: C_1  and  O_2
REMARK    2  A    between atoms: O_2  and  C_3
REMARK    3  A    between atoms: C_9  and  C_10
REMARK    4  A    between atoms: C_11  and  C_12
REMARK    5  A    between atoms: N_14  and  C_15
REMARK                            x       y       z     vdW  Elec       q    Type
REMARK                         _______ _______ _______ _____ _____    ______ ____
ROOT
ATOM      1  C   UNL     1      -1.764  12.270  22.055  0.00  0.00    +0.000 A 
ATOM      2  C   UNL     1      -1.721  12.376  20.662  0.00  0.00    +0.000 A 
ATOM      3  C   UNL     1      -0.951  11.486  19.916  0.00  0.00    +0.000 A 
ATOM      4  C   UNL     1      -0.222  10.487  20.563  0.00  0.00    +0.000 A 
ATOM      5  C   UNL     1       0.597   9.553  19.779  0.00  0.00    +0.000 A 
ATOM      6  O   UNL     1       0.643   9.668  18.561  0.00  0.00    +0.000 OA
ATOM      7  C   UNL     1       1.336   8.504  20.540  0.00  0.00    +0.000 A 
ATOM      8  C   UNL     1       1.193   8.527  21.877  0.00  0.00    +0.000 A 
ATOM      9  O   UNL     1       0.440   9.405  22.621  0.00  0.00    +0.000 OA
ATOM     10  C   UNL     1      -0.262  10.371  21.946  0.00  0.00    +0.000 A 
ATOM     11  C   UNL     1      -1.034  11.261  22.694  0.00  0.00    +0.000 A 
ENDROOT
BRANCH   1  13
ATOM     12  C   UNL     1      -3.782  12.641  23.247  0.00  0.00    +0.000 C 
ATOM     13  O   UNL     1      -2.479  13.089  22.885  0.00  0.00    +0.000 OA
ENDBRANCH   1  13
BRANCH   7  14
ATOM     14  C   UNL     1       2.164   7.494  19.899  0.00  0.00    +0.000 C 
ATOM     15  C   UNL     1       2.116   6.164  20.085  0.00  0.00    +0.000 C 
BRANCH  15  16
ATOM     16  C   UNL     1       3.086   5.300  19.362  0.00  0.00    +0.000 C 
ATOM     17  O   UNL     1       2.987   4.078  19.429  0.00  0.00    +0.000 OA
ATOM     18  N   UNL     1       4.053   6.019  18.692  0.00  0.00    +0.000 N 
ATOM     19  H   UNL     1       4.094   7.019  18.843  0.00  0.00    +0.000 HD
BRANCH  18  20
ATOM     20  C   UNL     1       5.064   5.468  17.873  0.00  0.00    +0.000 A 
ATOM     21  C   UNL     1       6.374   5.267  18.316  0.00  0.00    +0.000 A 
ATOM     22  C   UNL     1       7.345   4.740  17.463  0.00  0.00    +0.000 A 
ATOM     23  C   UNL     1       7.014   4.404  16.155  0.00  0.00    +0.000 A 
ATOM     24  C   UNL     1       5.707   4.580  15.706  0.00  0.00    +0.000 A 
ATOM     25  C   UNL     1       4.731   5.098  16.564  0.00  0.00    +0.000 A 
ENDBRANCH  18  20
ENDBRANCH  15  16
ENDBRANCH   7  14
TORSDOF 4
ENDMDL
MODEL 7
REMARK VINA RESULT:      -7.3      7.878      8.570
REMARK  Name = 
REMARK  5 active torsions:
REMARK  status: ('A' for Active; 'I' for Inactive)
REMARK    1  A    between atoms: C_1  and  O_2
REMARK    2  A    between atoms: O_2  and  C_3
REMARK    3  A    between atoms: C_9  and  C_10
REMARK    4  A    between atoms: C_11  and  C_12
REMARK    5  A    between atoms: N_14  and  C_15
REMARK                            x       y       z     vdW  Elec       q    Type
REMARK                         _______ _______ _______ _____ _____    ______ ____
ROOT
ATOM      1  C   UNL     1      -0.055  10.654  21.089  0.00  0.00    +0.000 A 
ATOM      2  C   UNL     1       0.161  11.215  19.828  0.00  0.00    +0.000 A 
ATOM      3  C   UNL     1       0.893  10.521  18.868  0.00  0.00    +0.000 A 
ATOM      4  C   UNL     1       1.411   9.260  19.168  0.00  0.00    +0.000 A 
ATOM      5  C   UNL     1       2.189   8.529  18.160  0.00  0.00    +0.000 A 
ATOM      6  O   UNL     1       2.390   9.039  17.065  0.00  0.00    +0.000 OA
ATOM      7  C   UNL     1       2.698   7.181  18.549  0.00  0.00    +0.000 A 
ATOM      8  C   UNL     1       2.406   6.773  19.797  0.00  0.00    +0.000 A 
ATOM      9  O   UNL     1       1.690   7.456  20.752  0.00  0.00    +0.000 OA
ATOM     10  C   UNL     1       1.198   8.691  20.416  0.00  0.00    +0.000 A 
ATOM     11  C   UNL     1       0.463   9.386  21.378  0.00  0.00    +0.000 A 
ENDROOT
BRANCH   1  13
ATOM     12  C   UNL     1      -1.035  10.427  23.238  0.00  0.00    +0.000 C 
ATOM     13  O   UNL     1      -0.751  11.246  22.107  0.00  0.00    +0.000 OA
ENDBRANCH   1  13
BRANCH   7  14
ATOM     14  C   UNL     1       3.460   6.330  17.648  0.00  0.00    +0.000 C 
ATOM     15  C   UNL     1       3.754   5.029  17.812  0.00  0.00    +0.000 C 
BRANCH  15  16
ATOM     16  C   UNL     1       4.590   4.345  16.790  0.00  0.00    +0.000 C 
ATOM     17  O   UNL     1       4.886   3.162  16.933  0.00  0.00    +0.000 OA
ATOM     18  N   UNL     1       4.977   5.180  15.764  0.00  0.00    +0.000 N 
ATOM     19  H   UNL     1       4.776   6.169  15.851  0.00  0.00    +0.000 HD
BRANCH  18  20
ATOM     20  C   UNL     1       5.720   4.791  14.627  0.00  0.00    +0.000 A 
ATOM     21  C   UNL     1       7.035   5.208  14.401  0.00  0.00    +0.000 A 
ATOM     22  C   UNL     1       7.722   4.816  13.251  0.00  0.00    +0.000 A 
ATOM     23  C   UNL     1       7.101   3.998  12.314  0.00  0.00    +0.000 A 
ATOM     24  C   UNL     1       5.798   3.559  12.536  0.00  0.00    +0.000 A 
ATOM     25  C   UNL     1       5.112   3.942  13.694  0.00  0.00    +0.000 A 
ENDBRANCH  18  20
ENDBRANCH  15  16
ENDBRANCH   7  14
TORSDOF 4
ENDMDL
MODEL 8
REMARK VINA RESULT:      -7.1      1.193      1.675
REMARK  Name = 
REMARK  5 active torsions:
REMARK  status: ('A' for Active; 'I' for Inactive)
REMARK    1  A    between atoms: C_1  and  O_2
REMARK    2  A    between atoms: O_2  and  C_3
REMARK    3  A    between atoms: C_9  and  C_10
REMARK    4  A    between atoms: C_11  and  C_12
REMARK    5  A    between atoms: N_14  and  C_15
REMARK                            x       y       z     vdW  Elec       q    Type
REMARK                         _______ _______ _______ _____ _____    ______ ____
ROOT
ATOM      1  C   UNL     1      11.302  14.901  19.425  0.00  0.00    +0.000 A 
ATOM      2  C   UNL     1      10.867  14.519  20.697  0.00  0.00    +0.000 A 
ATOM      3  C   UNL     1      10.218  13.300  20.878  0.00  0.00    +0.000 A 
ATOM      4  C   UNL     1      10.004  12.458  19.785  0.00  0.00    +0.000 A 
ATOM      5  C   UNL     1       9.313  11.176  19.972  0.00  0.00    +0.000 A 
ATOM      6  O   UNL     1       8.918  10.860  21.087  0.00  0.00    +0.000 OA
ATOM      7  C   UNL     1       9.134  10.324  18.760  0.00  0.00    +0.000 A 
ATOM      8  C   UNL     1       9.610  10.826  17.606  0.00  0.00    +0.000 A 
ATOM      9  O   UNL     1      10.245  12.031  17.418  0.00  0.00    +0.000 OA
ATOM     10  C   UNL     1      10.436  12.827  18.518  0.00  0.00    +0.000 A 
ATOM     11  C   UNL     1      11.088  14.048  18.336  0.00  0.00    +0.000 A 
ENDROOT
BRANCH   1  13
ATOM     12  C   UNL     1      11.264  16.958  18.243  0.00  0.00    +0.000 C 
ATOM     13  O   UNL     1      11.942  16.074  19.130  0.00  0.00    +0.000 OA
ENDBRANCH   1  13
BRANCH   7  14
ATOM     14  C   UNL     1       8.494   9.018  18.795  0.00  0.00    +0.000 C 
ATOM     15  C   UNL     1       8.144   8.256  17.745  0.00  0.00    +0.000 C 
BRANCH  15  16
ATOM     16  C   UNL     1       7.454   6.962  17.993  0.00  0.00    +0.000 C 
ATOM     17  O   UNL     1       8.009   6.088  18.652  0.00  0.00    +0.000 OA
ATOM     18  N   UNL     1       6.216   6.889  17.391  0.00  0.00    +0.000 N 
ATOM     19  H   UNL     1       5.947   7.633  16.760  0.00  0.00    +0.000 HD
BRANCH  18  20
ATOM     20  C   UNL     1       5.312   5.809  17.506  0.00  0.00    +0.000 A 
ATOM     21  C   UNL     1       4.484   5.626  18.618  0.00  0.00    +0.000 A 
ATOM     22  C   UNL     1       3.623   4.532  18.697  0.00  0.00    +0.000 A 
ATOM     23  C   UNL     1       3.577   3.606  17.662  0.00  0.00    +0.000 A 
ATOM     24  C   UNL     1       4.381   3.786  16.538  0.00  0.00    +0.000 A 
ATOM     25  C   UNL     1       5.237   4.889  16.453  0.00  0.00    +0.000 A 
ENDBRANCH  18  20
ENDBRANCH  15  16
ENDBRANCH   7  14
TORSDOF 4
ENDMDL
MODEL 9
REMARK VINA RESULT:      -7.1      7.561      8.338
REMARK  Name = 
REMARK  5 active torsions:
REMARK  status: ('A' for Active; 'I' for Inactive)
REMARK    1  A    between atoms: C_1  and  O_2
REMARK    2  A    between atoms: O_2  and  C_3
REMARK    3  A    between atoms: C_9  and  C_10
REMARK    4  A    between atoms: C_11  and  C_12
REMARK    5  A    between atoms: N_14  and  C_15
REMARK                            x       y       z     vdW  Elec       q    Type
REMARK                         _______ _______ _______ _____ _____    ______ ____
ROOT
ATOM      1  C   UNL     1      -0.175  10.290  21.511  0.00  0.00    +0.000 A 
ATOM      2  C   UNL     1       0.130   9.117  22.205  0.00  0.00    +0.000 A 
ATOM      3  C   UNL     1       0.901   8.125  21.601  0.00  0.00    +0.000 A 
ATOM      4  C   UNL     1       1.370   8.308  20.299  0.00  0.00    +0.000 A 
ATOM      5  C   UNL     1       2.176   7.262  19.657  0.00  0.00    +0.000 A 
ATOM      6  O   UNL     1       2.420   6.228  20.267  0.00  0.00    +0.000 OA
ATOM      7  C   UNL     1       2.654   7.536  18.270  0.00  0.00    +0.000 A 
ATOM      8  C   UNL     1       2.283   8.712  17.735  0.00  0.00    +0.000 A 
ATOM      9  O   UNL     1       1.517   9.692  18.322  0.00  0.00    +0.000 OA
ATOM     10  C   UNL     1       1.077   9.473  19.602  0.00  0.00    +0.000 A 
ATOM     11  C   UNL     1       0.306  10.467  20.208  0.00  0.00    +0.000 A 
ENDROOT
BRANCH   1  13
ATOM     12  C   UNL     1      -0.300  12.604  22.025  0.00  0.00    +0.000 C 
ATOM     13  O   UNL     1      -0.925  11.323  22.001  0.00  0.00    +0.000 OA
ENDBRANCH   1  13
BRANCH   7  14
ATOM     14  C   UNL     1       3.483   6.606  17.519  0.00  0.00    +0.000 C 
ATOM     15  C   UNL     1       4.825   6.532  17.515  0.00  0.00    +0.000 C 
BRANCH  15  16
ATOM     16  C   UNL     1       5.489   5.533  16.636  0.00  0.00    +0.000 C 
ATOM     17  O   UNL     1       5.928   4.492  17.115  0.00  0.00    +0.000 OA
ATOM     18  N   UNL     1       5.561   5.937  15.320  0.00  0.00    +0.000 N 
ATOM     19  H   UNL     1       5.284   6.885  15.096  0.00  0.00    +0.000 HD
BRANCH  18  20
ATOM     20  C   UNL     1       6.081   5.169  14.255  0.00  0.00    +0.000 A 
ATOM     21  C   UNL     1       7.350   5.387  13.710  0.00  0.00    +0.000 A 
ATOM     22  C   UNL     1       7.812   4.617  12.642  0.00  0.00    +0.000 A 
ATOM     23  C   UNL     1       7.010   3.615  12.108  0.00  0.00    +0.000 A 
ATOM     24  C   UNL     1       5.752   3.373  12.654  0.00  0.00    +0.000 A 
ATOM     25  C   UNL     1       5.292   4.137  13.732  0.00  0.00    +0.000 A 
ENDBRANCH  18  20
ENDBRANCH  15  16
ENDBRANCH   7  14
TORSDOF 4
ENDMDL
