MODEL 1
REMARK VINA RESULT:      -7.9      0.000      0.000
REMARK  Name = 
REMARK  5 active torsions:
REMARK  status: ('A' for Active; 'I' for Inactive)
REMARK    1  A    between atoms: C_1  and  C_2
REMARK    2  A    between atoms: C_2  and  C_3
REMARK    3  A    between atoms: C_6  and  N_7
REMARK    4  A    between atoms: N_10  and  C_11
REMARK    5  A    between atoms: C_18  and  C_19
REMARK                            x       y       z     vdW  Elec       q    Type
REMARK                         _______ _______ _______ _____ _____    ______ ____
ROOT
ATOM      1  C   UNL     1       2.683   1.804  17.717  0.00  0.00    +0.000 C 
ATOM      2  C   UNL     1       3.518   3.089  17.842  0.00  0.00    +0.000 C 
ATOM      3  C   UNL     1       4.666   2.940  16.828  0.00  0.00    +0.000 C 
ATOM      4  O   UNL     1       2.689   4.209  17.509  0.00  0.00    +0.000 OA
ATOM      5  C   UNL     1       1.917   4.703  18.615  0.00  0.00    +0.000 C 
ATOM      6  C   UNL     1       2.794   5.142  19.813  0.00  0.00    +0.000 C 
ATOM      7  C   UNL     1       4.207   4.545  19.620  0.00  0.00    +0.000 C 
ATOM      8  O   UNL     1       4.094   3.189  19.143  0.00  0.00    +0.000 OA
ENDROOT
BRANCH   6   9
ATOM      9  N   UNL     1       2.806   6.603  20.088  0.00  0.00    +0.000 N 
ATOM     10  C   UNL     1       1.724   7.214  20.665  0.00  0.00    +0.000 C 
ATOM     11  O   UNL     1       0.733   6.584  21.024  0.00  0.00    +0.000 OA
ATOM     12  N   UNL     1       1.880   8.591  20.753  0.00  0.00    +0.000 N 
ATOM     13  H   UNL     1       3.695   6.994  20.374  0.00  0.00    +0.000 HD
ATOM     14  H   UNL     1       2.367   8.990  19.950  0.00  0.00    +0.000 HD
BRANCH  12  15
ATOM     15  C   UNL     1       0.863   9.394  21.323  0.00  0.00    +0.000 A 
ATOM     16  C   UNL     1       0.599   9.286  22.691  0.00  0.00    +0.000 A 
ATOM     17  C   UNL     1      -0.386  10.086  23.298  0.00  0.00    +0.000 A 
ATOM     18  C   UNL     1      -1.122  10.981  22.538  0.00  0.00    +0.000 A 
ATOM     19  C   UNL     1      -0.874  11.094  21.170  0.00  0.00    +0.000 A 
ATOM     20  C   UNL     1       0.122  10.314  20.566  0.00  0.00    +0.000 A 
ATOM     21 BR   UNL     1       0.341  10.453  18.682  0.00  0.00    +0.000 Br
ENDBRANCH  12  15
ENDBRANCH   6   9
BRANCH   7  22
ATOM     22  C   UNL     1       5.197   5.412  18.839  0.00  0.00    +0.000 A 
ATOM     23  C   UNL     1       6.564   5.334  19.138  0.00  0.00    +0.000 A 
ATOM     24  C   UNL     1       7.482   6.153  18.481  0.00  0.00    +0.000 A 
ATOM     25  C   UNL     1       7.058   7.035  17.491  0.00  0.00    +0.000 A 
ATOM     26  C   UNL     1       5.713   7.099  17.143  0.00  0.00    +0.000 A 
ATOM     27  C   UNL     1       4.795   6.302  17.822  0.00  0.00    +0.000 A 
ENDBRANCH   7  22
TORSDOF 3
ENDMDL
MODEL 2
REMARK VINA RESULT:      -7.8      2.463      4.027
REMARK  Name = 
REMARK  5 active torsions:
REMARK  status: ('A' for Active; 'I' for Inactive)
REMARK    1  A    between atoms: C_1  and  C_2
REMARK    2  A    between atoms: C_2  and  C_3
REMARK    3  A    between atoms: C_6  and  N_7
REMARK    4  A    between atoms: N_10  and  C_11
REMARK    5  A    between atoms: C_18  and  C_19
REMARK                            x       y       z     vdW  Elec       q    Type
REMARK                         _______ _______ _______ _____ _____    ______ ____
ROOT
ATOM      1  C   UNL     1       6.258   4.750  16.695  0.00  0.00    +0.000 C 
ATOM      2  C   UNL     1       5.039   4.687  17.629  0.00  0.00    +0.000 C 
ATOM      3  C   UNL     1       5.114   3.315  18.321  0.00  0.00    +0.000 C 
ATOM      4  O   UNL     1       5.142   5.746  18.589  0.00  0.00    +0.000 OA
ATOM      5  C   UNL     1       4.614   6.998  18.123  0.00  0.00    +0.000 C 
ATOM      6  C   UNL     1       3.122   6.911  17.718  0.00  0.00    +0.000 C 
ATOM      7  C   UNL     1       2.754   5.418  17.553  0.00  0.00    +0.000 C 
ATOM      8  O   UNL     1       3.827   4.732  16.877  0.00  0.00    +0.000 OA
ENDROOT
BRANCH   6   9
ATOM      9  N   UNL     1       2.182   7.654  18.597  0.00  0.00    +0.000 N 
ATOM     10  C   UNL     1       1.846   8.954  18.322  0.00  0.00    +0.000 C 
ATOM     11  O   UNL     1       2.259   9.536  17.322  0.00  0.00    +0.000 OA
ATOM     12  N   UNL     1       1.039   9.510  19.304  0.00  0.00    +0.000 N 
ATOM     13  H   UNL     1       1.424   7.114  18.995  0.00  0.00    +0.000 HD
ATOM     14  H   UNL     1       1.281   9.199  20.245  0.00  0.00    +0.000 HD
BRANCH  12  15
ATOM     15  C   UNL     1       0.589  10.848  19.191  0.00  0.00    +0.000 A 
ATOM     16  C   UNL     1       1.303  11.862  19.835  0.00  0.00    +0.000 A 
ATOM     17  C   UNL     1       0.901  13.205  19.725  0.00  0.00    +0.000 A 
ATOM     18  C   UNL     1      -0.224  13.537  18.988  0.00  0.00    +0.000 A 
ATOM     19  C   UNL     1      -0.952  12.535  18.347  0.00  0.00    +0.000 A 
ATOM     20  C   UNL     1      -0.542  11.197  18.436  0.00  0.00    +0.000 A 
ATOM     21 BR   UNL     1      -1.633   9.874  17.614  0.00  0.00    +0.000 Br
ENDBRANCH  12  15
ENDBRANCH   6   9
BRANCH   7  22
ATOM     22  C   UNL     1       2.244   4.714  18.812  0.00  0.00    +0.000 A 
ATOM     23  C   UNL     1       1.434   3.578  18.684  0.00  0.00    +0.000 A 
ATOM     24  C   UNL     1       0.909   2.950  19.814  0.00  0.00    +0.000 A 
ATOM     25  C   UNL     1       1.213   3.419  21.087  0.00  0.00    +0.000 A 
ATOM     26  C   UNL     1       2.052   4.518  21.244  0.00  0.00    +0.000 A 
ATOM     27  C   UNL     1       2.550   5.161  20.115  0.00  0.00    +0.000 A 
ENDBRANCH   7  22
TORSDOF 3
ENDMDL
MODEL 3
REMARK VINA RESULT:      -7.7      1.942      3.853
REMARK  Name = 
REMARK  5 active torsions:
REMARK  status: ('A' for Active; 'I' for Inactive)
REMARK    1  A    between atoms: C_1  and  C_2
REMARK    2  A    between atoms: C_2  and  C_3
REMARK    3  A    between atoms: C_6  and  N_7
REMARK    4  A    between atoms: N_10  and  C_11
REMARK    5  A    between atoms: C_18  and  C_19
REMARK                            x       y       z     vdW  Elec       q    Type
REMARK                         _______ _______ _______ _____ _____    ______ ____
ROOT
ATOM      1  C   UNL     1       5.452   3.921  16.089  0.00  0.00    +0.000 C 
ATOM      2  C   UNL     1       4.470   3.952  17.272  0.00  0.00    +0.000 C 
ATOM      3  C   UNL     1       4.399   2.506  17.793  0.00  0.00    +0.000 C 
ATOM      4  O   UNL     1       4.990   4.829  18.278  0.00  0.00    +0.000 OA
ATOM      5  C   UNL     1       4.651   6.209  18.069  0.00  0.00    +0.000 C 
ATOM      6  C   UNL     1       3.123   6.454  18.017  0.00  0.00    +0.000 C 
ATOM      7  C   UNL     1       2.425   5.091  17.801  0.00  0.00    +0.000 C 
ATOM      8  O   UNL     1       3.164   4.322  16.831  0.00  0.00    +0.000 OA
ENDROOT
BRANCH   6   9
ATOM      9  N   UNL     1       2.565   7.225  19.158  0.00  0.00    +0.000 N 
ATOM     10  C   UNL     1       1.790   8.334  18.940  0.00  0.00    +0.000 C 
ATOM     11  O   UNL     1       1.483   8.703  17.809  0.00  0.00    +0.000 OA
ATOM     12  N   UNL     1       1.444   8.977  20.120  0.00  0.00    +0.000 N 
ATOM     13  H   UNL     1       2.282   6.684  19.965  0.00  0.00    +0.000 HD
ATOM     14  H   UNL     1       2.189   8.963  20.817  0.00  0.00    +0.000 HD
BRANCH  12  15
ATOM     15  C   UNL     1       0.643  10.144  20.094  0.00  0.00    +0.000 A 
ATOM     16  C   UNL     1       0.725  11.000  18.992  0.00  0.00    +0.000 A 
ATOM     17  C   UNL     1      -0.074  12.156  18.919  0.00  0.00    +0.000 A 
ATOM     18  C   UNL     1      -0.942  12.469  19.952  0.00  0.00    +0.000 A 
ATOM     19  C   UNL     1      -1.029  11.628  21.062  0.00  0.00    +0.000 A 
ATOM     20  C   UNL     1      -0.250  10.464  21.129  0.00  0.00    +0.000 A 
ATOM     21 BR   UNL     1      -0.351   9.414  22.711  0.00  0.00    +0.000 Br
ENDBRANCH  12  15
ENDBRANCH   6   9
BRANCH   7  22
ATOM     22  C   UNL     1       2.054   4.323  19.071  0.00  0.00    +0.000 A 
ATOM     23  C   UNL     1       1.181   3.230  18.983  0.00  0.00    +0.000 A 
ATOM     24  C   UNL     1       0.782   2.547  20.132  0.00  0.00    +0.000 A 
ATOM     25  C   UNL     1       1.274   2.916  21.379  0.00  0.00    +0.000 A 
ATOM     26  C   UNL     1       2.178   3.968  21.489  0.00  0.00    +0.000 A 
ATOM     27  C   UNL     1       2.551   4.668  20.345  0.00  0.00    +0.000 A 
ENDBRANCH   7  22
TORSDOF 3
ENDMDL
MODEL 4
REMARK VINA RESULT:      -7.3      2.325      3.928
REMARK  Name = 
REMARK  5 active torsions:
REMARK  status: ('A' for Active; 'I' for Inactive)
REMARK    1  A    between atoms: C_1  and  C_2
REMARK    2  A    between atoms: C_2  and  C_3
REMARK    3  A    between atoms: C_6  and  N_7
REMARK    4  A    between atoms: N_10  and  C_11
REMARK    5  A    between atoms: C_18  and  C_19
REMARK                            x       y       z     vdW  Elec       q    Type
REMARK                         _______ _______ _______ _____ _____    ______ ____
ROOT
ATOM      1  C   UNL     1       6.079   4.275  16.371  0.00  0.00    +0.000 C 
ATOM      2  C   UNL     1       4.940   4.369  17.399  0.00  0.00    +0.000 C 
ATOM      3  C   UNL     1       4.819   2.965  18.017  0.00  0.00    +0.000 C 
ATOM      4  O   UNL     1       5.300   5.333  18.396  0.00  0.00    +0.000 OA
ATOM      5  C   UNL     1       4.972   6.684  18.035  0.00  0.00    +0.000 C 
ATOM      6  C   UNL     1       3.463   6.884  17.751  0.00  0.00    +0.000 C 
ATOM      7  C   UNL     1       2.824   5.490  17.547  0.00  0.00    +0.000 C 
ATOM      8  O   UNL     1       3.704   4.670  16.753  0.00  0.00    +0.000 OA
ENDROOT
BRANCH   6   9
ATOM      9  N   UNL     1       2.738   7.724  18.739  0.00  0.00    +0.000 N 
ATOM     10  C   UNL     1       1.831   8.665  18.325  0.00  0.00    +0.000 C 
ATOM     11  O   UNL     1       1.543   8.816  17.141  0.00  0.00    +0.000 OA
ATOM     12  N   UNL     1       1.331   9.416  19.380  0.00  0.00    +0.000 N 
ATOM     13  H   UNL     1       2.486   7.271  19.608  0.00  0.00    +0.000 HD
ATOM     14  H   UNL     1       2.029   9.612  20.097  0.00  0.00    +0.000 HD
BRANCH  12  15
ATOM     15  C   UNL     1       0.379  10.438  19.145  0.00  0.00    +0.000 A 
ATOM     16  C   UNL     1      -0.976  10.162  19.345  0.00  0.00    +0.000 A 
ATOM     17  C   UNL     1      -1.949  11.159  19.147  0.00  0.00    +0.000 A 
ATOM     18  C   UNL     1      -1.573  12.426  18.732  0.00  0.00    +0.000 A 
ATOM     19  C   UNL     1      -0.224  12.713  18.521  0.00  0.00    +0.000 A 
ATOM     20  C   UNL     1       0.750  11.729  18.738  0.00  0.00    +0.000 A 
ATOM     21 BR   UNL     1       2.559  12.162  18.341  0.00  0.00    +0.000 Br
ENDBRANCH  12  15
ENDBRANCH   6   9
BRANCH   7  22
ATOM     22  C   UNL     1       2.289   4.811  18.810  0.00  0.00    +0.000 A 
ATOM     23  C   UNL     1       1.370   3.760  18.689  0.00  0.00    +0.000 A 
ATOM     24  C   UNL     1       0.824   3.161  19.824  0.00  0.00    +0.000 A 
ATOM     25  C   UNL     1       1.213   3.571  21.095  0.00  0.00    +0.000 A 
ATOM     26  C   UNL     1       2.159   4.580  21.243  0.00  0.00    +0.000 A 
ATOM     27  C   UNL     1       2.679   5.198  20.109  0.00  0.00    +0.000 A 
ENDBRANCH   7  22
TORSDOF 3
ENDMDL
MODEL 5
REMARK VINA RESULT:      -7.2      1.238      1.304
REMARK  Name = 
REMARK  5 active torsions:
REMARK  status: ('A' for Active; 'I' for Inactive)
REMARK    1  A    between atoms: C_1  and  C_2
REMARK    2  A    between atoms: C_2  and  C_3
REMARK    3  A    between atoms: C_6  and  N_7
REMARK    4  A    between atoms: N_10  and  C_11
REMARK    5  A    between atoms: C_18  and  C_19
REMARK                            x       y       z     vdW  Elec       q    Type
REMARK                         _______ _______ _______ _____ _____    ______ ____
ROOT
ATOM      1  C   UNL     1       2.211   1.865  19.131  0.00  0.00    +0.000 C 
ATOM      2  C   UNL     1       3.033   3.107  18.749  0.00  0.00    +0.000 C 
ATOM      3  C   UNL     1       4.190   2.588  17.876  0.00  0.00    +0.000 C 
ATOM      4  O   UNL     1       2.196   4.000  18.004  0.00  0.00    +0.000 OA
ATOM      5  C   UNL     1       1.413   4.877  18.830  0.00  0.00    +0.000 C 
ATOM      6  C   UNL     1       2.278   5.757  19.765  0.00  0.00    +0.000 C 
ATOM      7  C   UNL     1       3.698   5.147  19.823  0.00  0.00    +0.000 C 
ATOM      8  O   UNL     1       3.600   3.711  19.910  0.00  0.00    +0.000 OA
ENDROOT
BRANCH   6   9
ATOM      9  N   UNL     1       2.275   7.209  19.451  0.00  0.00    +0.000 N 
ATOM     10  C   UNL     1       1.363   8.049  20.034  0.00  0.00    +0.000 C 
ATOM     11  O   UNL     1       0.554   7.655  20.870  0.00  0.00    +0.000 OA
ATOM     12  N   UNL     1       1.451   9.345  19.545  0.00  0.00    +0.000 N 
ATOM     13  H   UNL     1       3.182   7.634  19.303  0.00  0.00    +0.000 HD
ATOM     14  H   UNL     1       1.666   9.384  18.549  0.00  0.00    +0.000 HD
BRANCH  12  15
ATOM     15  C   UNL     1       0.587  10.356  20.032  0.00  0.00    +0.000 A 
ATOM     16  C   UNL     1       0.877  10.967  21.255  0.00  0.00    +0.000 A 
ATOM     17  C   UNL     1       0.056  11.993  21.758  0.00  0.00    +0.000 A 
ATOM     18  C   UNL     1      -1.065  12.397  21.052  0.00  0.00    +0.000 A 
ATOM     19  C   UNL     1      -1.371  11.791  19.833  0.00  0.00    +0.000 A 
ATOM     20  C   UNL     1      -0.544  10.784  19.318  0.00  0.00    +0.000 A 
ATOM     21 BR   UNL     1      -1.073   9.937  17.699  0.00  0.00    +0.000 Br
ENDBRANCH  12  15
ENDBRANCH   6   9
BRANCH   7  22
ATOM     22  C   UNL     1       4.685   5.653  18.769  0.00  0.00    +0.000 A 
ATOM     23  C   UNL     1       6.060   5.477  18.974  0.00  0.00    +0.000 A 
ATOM     24  C   UNL     1       6.984   5.978  18.056  0.00  0.00    +0.000 A 
ATOM     25  C   UNL     1       6.553   6.627  16.904  0.00  0.00    +0.000 A 
ATOM     26  C   UNL     1       5.192   6.775  16.654  0.00  0.00    +0.000 A 
ATOM     27  C   UNL     1       4.273   6.301  17.586  0.00  0.00    +0.000 A 
ENDBRANCH   7  22
TORSDOF 3
ENDMDL
MODEL 6
REMARK VINA RESULT:      -7.2      0.959      1.429
REMARK  Name = 
REMARK  5 active torsions:
REMARK  status: ('A' for Active; 'I' for Inactive)
REMARK    1  A    between atoms: C_1  and  C_2
REMARK    2  A    between atoms: C_2  and  C_3
REMARK    3  A    between atoms: C_6  and  N_7
REMARK    4  A    between atoms: N_10  and  C_11
REMARK    5  A    between atoms: C_18  and  C_19
REMARK                            x       y       z     vdW  Elec       q    Type
REMARK                         _______ _______ _______ _____ _____    ______ ____
ROOT
ATOM      1  C   UNL     1       1.884   1.751  19.185  0.00  0.00    +0.000 C 
ATOM      2  C   UNL     1       2.702   3.017  18.886  0.00  0.00    +0.000 C 
ATOM      3  C   UNL     1       3.708   2.615  17.793  0.00  0.00    +0.000 C 
ATOM      4  O   UNL     1       1.815   4.036  18.409  0.00  0.00    +0.000 OA
ATOM      5  C   UNL     1       1.188   4.790  19.459  0.00  0.00    +0.000 C 
ATOM      6  C   UNL     1       2.208   5.493  20.388  0.00  0.00    +0.000 C 
ATOM      7  C   UNL     1       3.594   4.848  20.156  0.00  0.00    +0.000 C 
ATOM      8  O   UNL     1       3.445   3.419  20.036  0.00  0.00    +0.000 OA
ENDROOT
BRANCH   6   9
ATOM      9  N   UNL     1       2.228   6.976  20.302  0.00  0.00    +0.000 N 
ATOM     10  C   UNL     1       1.183   7.719  20.785  0.00  0.00    +0.000 C 
ATOM     11  O   UNL     1       0.222   7.203  21.351  0.00  0.00    +0.000 OA
ATOM     12  N   UNL     1       1.334   9.074  20.528  0.00  0.00    +0.000 N 
ATOM     13  H   UNL     1       3.130   7.417  20.424  0.00  0.00    +0.000 HD
ATOM     14  H   UNL     1       1.762   9.264  19.622  0.00  0.00    +0.000 HD
BRANCH  12  15
ATOM     15  C   UNL     1       0.352  10.001  20.955  0.00  0.00    +0.000 A 
ATOM     16  C   UNL     1       0.201  10.249  22.322  0.00  0.00    +0.000 A 
ATOM     17  C   UNL     1      -0.746  11.181  22.782  0.00  0.00    +0.000 A 
ATOM     18  C   UNL     1      -1.557  11.853  21.881  0.00  0.00    +0.000 A 
ATOM     19  C   UNL     1      -1.423  11.609  20.514  0.00  0.00    +0.000 A 
ATOM     20  C   UNL     1      -0.465  10.697  20.050  0.00  0.00    +0.000 A 
ATOM     21 BR   UNL     1      -0.401  10.345  18.183  0.00  0.00    +0.000 Br
ENDBRANCH  12  15
ENDBRANCH   6   9
BRANCH   7  22
ATOM     22  C   UNL     1       4.454   5.490  19.065  0.00  0.00    +0.000 A 
ATOM     23  C   UNL     1       3.839   6.270  18.075  0.00  0.00    +0.000 A 
ATOM     24  C   UNL     1       4.591   6.821  17.038  0.00  0.00    +0.000 A 
ATOM     25  C   UNL     1       5.969   6.636  16.989  0.00  0.00    +0.000 A 
ATOM     26  C   UNL     1       6.610   5.904  17.984  0.00  0.00    +0.000 A 
ATOM     27  C   UNL     1       5.854   5.330  19.002  0.00  0.00    +0.000 A 
ENDBRANCH   7  22
TORSDOF 3
ENDMDL
MODEL 7
REMARK VINA RESULT:      -7.2      2.326      2.596
REMARK  Name = 
REMARK  5 active torsions:
REMARK  status: ('A' for Active; 'I' for Inactive)
REMARK    1  A    between atoms: C_1  and  C_2
REMARK    2  A    between atoms: C_2  and  C_3
REMARK    3  A    between atoms: C_6  and  N_7
REMARK    4  A    between atoms: N_10  and  C_11
REMARK    5  A    between atoms: C_18  and  C_19
REMARK                            x       y       z     vdW  Elec       q    Type
REMARK                         _______ _______ _______ _____ _____    ______ ____
ROOT
ATOM      1  C   UNL     1       2.164   2.273  19.624  0.00  0.00    +0.000 C 
ATOM      2  C   UNL     1       3.065   3.340  18.981  0.00  0.00    +0.000 C 
ATOM      3  C   UNL     1       4.332   2.595  18.524  0.00  0.00    +0.000 C 
ATOM      4  O   UNL     1       2.377   3.907  17.860  0.00  0.00    +0.000 OA
ATOM      5  C   UNL     1       1.495   4.985  18.212  0.00  0.00    +0.000 C 
ATOM      6  C   UNL     1       2.222   6.153  18.922  0.00  0.00    +0.000 C 
ATOM      7  C   UNL     1       3.601   5.641  19.401  0.00  0.00    +0.000 C 
ATOM      8  O   UNL     1       3.457   4.314  19.947  0.00  0.00    +0.000 OA
ENDROOT
BRANCH   6   9
ATOM      9  N   UNL     1       2.303   7.416  18.143  0.00  0.00    +0.000 N 
ATOM     10  C   UNL     1       1.861   8.597  18.679  0.00  0.00    +0.000 C 
ATOM     11  O   UNL     1       1.434   8.673  19.828  0.00  0.00    +0.000 OA
ATOM     12  N   UNL     1       1.925   9.646  17.773  0.00  0.00    +0.000 N 
ATOM     13  H   UNL     1       3.114   7.520  17.546  0.00  0.00    +0.000 HD
ATOM     14  H   UNL     1       1.701   9.364  16.818  0.00  0.00    +0.000 HD
BRANCH  12  15
ATOM     15  C   UNL     1       1.510  10.947  18.148  0.00  0.00    +0.000 A 
ATOM     16  C   UNL     1       2.479  11.916  18.423  0.00  0.00    +0.000 A 
ATOM     17  C   UNL     1       2.105  13.226  18.774  0.00  0.00    +0.000 A 
ATOM     18  C   UNL     1       0.766  13.566  18.869  0.00  0.00    +0.000 A 
ATOM     19  C   UNL     1      -0.212  12.606  18.606  0.00  0.00    +0.000 A 
ATOM     20  C   UNL     1       0.156  11.306  18.234  0.00  0.00    +0.000 A 
ATOM     21 BR   UNL     1      -1.227  10.026  17.980  0.00  0.00    +0.000 Br
ENDBRANCH  12  15
ENDBRANCH   6   9
BRANCH   7  22
ATOM     22  C   UNL     1       4.753   5.796  18.406  0.00  0.00    +0.000 A 
ATOM     23  C   UNL     1       6.073   5.643  18.852  0.00  0.00    +0.000 A 
ATOM     24  C   UNL     1       7.143   5.834  17.979  0.00  0.00    +0.000 A 
ATOM     25  C   UNL     1       6.917   6.143  16.642  0.00  0.00    +0.000 A 
ATOM     26  C   UNL     1       5.616   6.255  16.162  0.00  0.00    +0.000 A 
ATOM     27  C   UNL     1       4.549   6.094  17.042  0.00  0.00    +0.000 A 
ENDBRANCH   7  22
TORSDOF 3
ENDMDL
MODEL 8
REMARK VINA RESULT:      -7.1      2.418      4.073
REMARK  Name = 
REMARK  5 active torsions:
REMARK  status: ('A' for Active; 'I' for Inactive)
REMARK    1  A    between atoms: C_1  and  C_2
REMARK    2  A    between atoms: C_2  and  C_3
REMARK    3  A    between atoms: C_6  and  N_7
REMARK    4  A    between atoms: N_10  and  C_11
REMARK    5  A    between atoms: C_18  and  C_19
REMARK                            x       y       z     vdW  Elec       q    Type
REMARK                         _______ _______ _______ _____ _____    ______ ____
ROOT
ATOM      1  C   UNL     1       6.510   4.543  17.133  0.00  0.00    +0.000 C 
ATOM      2  C   UNL     1       5.157   4.510  17.863  0.00  0.00    +0.000 C 
ATOM      3  C   UNL     1       4.974   3.057  18.336  0.00  0.00    +0.000 C 
ATOM      4  O   UNL     1       5.216   5.404  18.981  0.00  0.00    +0.000 OA
ATOM      5  C   UNL     1       4.906   6.766  18.645  0.00  0.00    +0.000 C 
ATOM      6  C   UNL     1       3.498   6.929  18.023  0.00  0.00    +0.000 C 
ATOM      7  C   UNL     1       3.005   5.532  17.576  0.00  0.00    +0.000 C 
ATOM      8  O   UNL     1       4.093   4.813  16.962  0.00  0.00    +0.000 OA
ENDROOT
BRANCH   6   9
ATOM      9  N   UNL     1       2.513   7.658  18.863  0.00  0.00    +0.000 N 
ATOM     10  C   UNL     1       1.728   8.643  18.325  0.00  0.00    +0.000 C 
ATOM     11  O   UNL     1       1.763   8.926  17.130  0.00  0.00    +0.000 OA
ATOM     12  N   UNL     1       0.944   9.275  19.280  0.00  0.00    +0.000 N 
ATOM     13  H   UNL     1       2.048   7.113  19.578  0.00  0.00    +0.000 HD
ATOM     14  H   UNL     1       1.418   9.387  20.176  0.00  0.00    +0.000 HD
BRANCH  12  15
ATOM     15  C   UNL     1       0.064  10.321  18.909  0.00  0.00    +0.000 A 
ATOM     16  C   UNL     1      -1.011  10.037  18.062  0.00  0.00    +0.000 A 
ATOM     17  C   UNL     1      -1.920  11.045  17.693  0.00  0.00    +0.000 A 
ATOM     18  C   UNL     1      -1.748  12.341  18.153  0.00  0.00    +0.000 A 
ATOM     19  C   UNL     1      -0.675  12.640  18.993  0.00  0.00    +0.000 A 
ATOM     20  C   UNL     1       0.221  11.634  19.380  0.00  0.00    +0.000 A 
ATOM     21 BR   UNL     1       1.712  12.133  20.450  0.00  0.00    +0.000 Br
ENDBRANCH  12  15
ENDBRANCH   6   9
BRANCH   7  22
ATOM     22  C   UNL     1       2.227   4.733  18.625  0.00  0.00    +0.000 A 
ATOM     23  C   UNL     1       2.291   5.120  19.970  0.00  0.00    +0.000 A 
ATOM     24  C   UNL     1       1.638   4.377  20.953  0.00  0.00    +0.000 A 
ATOM     25  C   UNL     1       0.881   3.262  20.609  0.00  0.00    +0.000 A 
ATOM     26  C   UNL     1       0.764   2.883  19.276  0.00  0.00    +0.000 A 
ATOM     27  C   UNL     1       1.442   3.608  18.299  0.00  0.00    +0.000 A 
ENDBRANCH   7  22
TORSDOF 3
ENDMDL
MODEL 9
REMARK VINA RESULT:      -6.9      1.105      1.167
REMARK  Name = 
REMARK  5 active torsions:
REMARK  status: ('A' for Active; 'I' for Inactive)
REMARK    1  A    between atoms: C_1  and  C_2
REMARK    2  A    between atoms: C_2  and  C_3
REMARK    3  A    between atoms: C_6  and  N_7
REMARK    4  A    between atoms: N_10  and  C_11
REMARK    5  A    between atoms: C_18  and  C_19
REMARK                            x       y       z     vdW  Elec       q    Type
REMARK                         _______ _______ _______ _____ _____    ______ ____
ROOT
ATOM      1  C   UNL     1       2.286   1.768  19.107  0.00  0.00    +0.000 C 
ATOM      2  C   UNL     1       3.042   3.045  18.707  0.00  0.00    +0.000 C 
ATOM      3  C   UNL     1       4.172   2.585  17.769  0.00  0.00    +0.000 C 
ATOM      4  O   UNL     1       2.137   3.919  18.022  0.00  0.00    +0.000 OA
ATOM      5  C   UNL     1       1.365   4.752  18.901  0.00  0.00    +0.000 C 
ATOM      6  C   UNL     1       2.243   5.649  19.808  0.00  0.00    +0.000 C 
ATOM      7  C   UNL     1       3.685   5.091  19.784  0.00  0.00    +0.000 C 
ATOM      8  O   UNL     1       3.644   3.652  19.850  0.00  0.00    +0.000 OA
ENDROOT
BRANCH   6   9
ATOM      9  N   UNL     1       2.171   7.105  19.521  0.00  0.00    +0.000 N 
ATOM     10  C   UNL     1       1.500   7.952  20.364  0.00  0.00    +0.000 C 
ATOM     11  O   UNL     1       0.981   7.559  21.405  0.00  0.00    +0.000 OA
ATOM     12  N   UNL     1       1.457   9.252  19.882  0.00  0.00    +0.000 N 
ATOM     13  H   UNL     1       2.996   7.517  19.103  0.00  0.00    +0.000 HD
ATOM     14  H   UNL     1       1.355   9.300  18.868  0.00  0.00    +0.000 HD
BRANCH  12  15
ATOM     15  C   UNL     1       0.805  10.271  20.619  0.00  0.00    +0.000 A 
ATOM     16  C   UNL     1       0.018   9.916  21.718  0.00  0.00    +0.000 A 
ATOM     17  C   UNL     1      -0.625  10.901  22.489  0.00  0.00    +0.000 A 
ATOM     18  C   UNL     1      -0.498  12.240  22.155  0.00  0.00    +0.000 A 
ATOM     19  C   UNL     1       0.278  12.608  21.056  0.00  0.00    +0.000 A 
ATOM     20  C   UNL     1       0.938  11.631  20.298  0.00  0.00    +0.000 A 
ATOM     21 BR   UNL     1       1.902  12.196  18.760  0.00  0.00    +0.000 Br
ENDBRANCH  12  15
ENDBRANCH   6   9
BRANCH   7  22
ATOM     22  C   UNL     1       4.599   5.651  18.692  0.00  0.00    +0.000 A 
ATOM     23  C   UNL     1       5.989   5.553  18.841  0.00  0.00    +0.000 A 
ATOM     24  C   UNL     1       6.845   6.104  17.888  0.00  0.00    +0.000 A 
ATOM     25  C   UNL     1       6.332   6.728  16.755  0.00  0.00    +0.000 A 
ATOM     26  C   UNL     1       4.956   6.799  16.560  0.00  0.00    +0.000 A 
ATOM     27  C   UNL     1       4.103   6.275  17.528  0.00  0.00    +0.000 A 
ENDBRANCH   7  22
TORSDOF 3
ENDMDL
