MODEL 1
REMARK VINA RESULT:      -7.8      0.000      0.000
REMARK  Name = 
REMARK  7 active torsions:
REMARK  status: ('A' for Active; 'I' for Inactive)
REMARK    1  A    between atoms: C_2  and  O_3
REMARK    2  A    between atoms: C_2  and  C_4
REMARK    3  A    between atoms: C_5  and  C_6
REMARK    4  A    between atoms: N_8  and  C_9
REMARK    5  A    between atoms: C_9  and  C_10
REMARK    6  A    between atoms: C_10  and  C_11
REMARK    7  A    between atoms: C_11  and  C_12
REMARK                            x       y       z     vdW  Elec       q    Type
REMARK                         _______ _______ _______ _____ _____    ______ ____
ROOT
ATOM      1  C   UNL     1       5.730   4.600  18.909  0.00  0.00    +0.000 C 
ATOM      2  O   UNL     1       5.243   5.299  19.789  0.00  0.00    +0.000 OA
ATOM      3  N   UNL     1       5.343   3.293  18.700  0.00  0.00    +0.000 N 
ATOM      4  H   UNL     1       5.674   2.779  17.895  0.00  0.00    +0.000 HD
ENDROOT
BRANCH   1   6
ATOM      5  C   UNL     1       6.652   6.596  17.604  0.00  0.00    +0.000 C 
ATOM      6  C   UNL     1       6.802   5.103  17.966  0.00  0.00    +0.000 C 
ATOM      7  C   UNL     1       6.739   4.446  16.584  0.00  0.00    +0.000 C 
ATOM      8  C   UNL     1       5.346   4.486  15.953  0.00  0.00    +0.000 C 
ATOM      9  C   UNL     1       5.168   5.976  15.672  0.00  0.00    +0.000 C 
ATOM     10  C   UNL     1       6.525   6.550  16.083  0.00  0.00    +0.000 C 
ATOM     11  O   UNL     1       7.420   5.449  15.776  0.00  0.00    +0.000 OA
BRANCH   5  13
ATOM     12  O   UNL     1       8.137   8.476  17.651  0.00  0.00    +0.000 OA
ATOM     13  C   UNL     1       7.836   7.387  18.114  0.00  0.00    +0.000 C 
BRANCH  13  14
ATOM     14  O   UNL     1       8.507   6.860  19.160  0.00  0.00    +0.000 OA
ATOM     15  H   UNL     1       8.548   5.886  19.178  0.00  0.00    +0.000 HD
ENDBRANCH  13  14
ENDBRANCH   5  13
ENDBRANCH   1   6
BRANCH   3  16
ATOM     16  C   UNL     1       4.321   2.679  19.530  0.00  0.00    +0.000 C 
BRANCH  16  17
ATOM     17  C   UNL     1       3.124   2.231  18.698  0.00  0.00    +0.000 C 
BRANCH  17  18
ATOM     18  C   UNL     1       1.844   2.910  19.184  0.00  0.00    +0.000 C 
BRANCH  18  19
ATOM     19  C   UNL     1       1.976   4.413  19.235  0.00  0.00    +0.000 A 
ATOM     20  C   UNL     1       1.811   5.102  20.443  0.00  0.00    +0.000 A 
ATOM     21  C   UNL     1       1.933   6.491  20.489  0.00  0.00    +0.000 A 
ATOM     22  C   UNL     1       2.221   7.206  19.328  0.00  0.00    +0.000 A 
ATOM     23  C   UNL     1       2.382   6.532  18.119  0.00  0.00    +0.000 A 
ATOM     24  C   UNL     1       2.256   5.142  18.070  0.00  0.00    +0.000 A 
ENDBRANCH  18  19
ENDBRANCH  17  18
ENDBRANCH  16  17
ENDBRANCH   3  16
TORSDOF 7
ENDMDL
MODEL 2
REMARK VINA RESULT:      -7.8      0.179      1.043
REMARK  Name = 
REMARK  7 active torsions:
REMARK  status: ('A' for Active; 'I' for Inactive)
REMARK    1  A    between atoms: C_2  and  O_3
REMARK    2  A    between atoms: C_2  and  C_4
REMARK    3  A    between atoms: C_5  and  C_6
REMARK    4  A    between atoms: N_8  and  C_9
REMARK    5  A    between atoms: C_9  and  C_10
REMARK    6  A    between atoms: C_10  and  C_11
REMARK    7  A    between atoms: C_11  and  C_12
REMARK                            x       y       z     vdW  Elec       q    Type
REMARK                         _______ _______ _______ _____ _____    ______ ____
ROOT
ATOM      1  C   UNL     1       5.761   4.686  18.925  0.00  0.00    +0.000 C 
ATOM      2  O   UNL     1       5.256   5.428  19.759  0.00  0.00    +0.000 OA
ATOM      3  N   UNL     1       5.406   3.359  18.800  0.00  0.00    +0.000 N 
ATOM      4  H   UNL     1       5.751   2.803  18.029  0.00  0.00    +0.000 HD
ENDROOT
BRANCH   1   6
ATOM      5  C   UNL     1       6.618   6.605  17.470  0.00  0.00    +0.000 C 
ATOM      6  C   UNL     1       6.823   5.153  17.953  0.00  0.00    +0.000 C 
ATOM      7  C   UNL     1       6.800   4.385  16.627  0.00  0.00    +0.000 C 
ATOM      8  C   UNL     1       5.412   4.319  15.986  0.00  0.00    +0.000 C 
ATOM      9  C   UNL     1       5.180   5.773  15.583  0.00  0.00    +0.000 C 
ATOM     10  C   UNL     1       6.509   6.432  15.956  0.00  0.00    +0.000 C 
ATOM     11  O   UNL     1       7.450   5.346  15.746  0.00  0.00    +0.000 OA
BRANCH   5  13
ATOM     12  O   UNL     1       8.012   8.553  17.393  0.00  0.00    +0.000 OA
ATOM     13  C   UNL     1       7.765   7.481  17.923  0.00  0.00    +0.000 C 
BRANCH  13  14
ATOM     14  O   UNL     1       8.465   7.051  18.994  0.00  0.00    +0.000 OA
ATOM     15  H   UNL     1       9.389   6.797  18.811  0.00  0.00    +0.000 HD
ENDBRANCH  13  14
ENDBRANCH   5  13
ENDBRANCH   1   6
BRANCH   3  16
ATOM     16  C   UNL     1       4.398   2.775  19.667  0.00  0.00    +0.000 C 
BRANCH  16  17
ATOM     17  C   UNL     1       3.180   2.315  18.873  0.00  0.00    +0.000 C 
BRANCH  17  18
ATOM     18  C   UNL     1       1.915   3.016  19.367  0.00  0.00    +0.000 C 
BRANCH  18  19
ATOM     19  C   UNL     1       2.028   4.519  19.292  0.00  0.00    +0.000 A 
ATOM     20  C   UNL     1       2.282   5.154  18.069  0.00  0.00    +0.000 A 
ATOM     21  C   UNL     1       2.387   6.544  18.002  0.00  0.00    +0.000 A 
ATOM     22  C   UNL     1       2.240   7.313  19.153  0.00  0.00    +0.000 A 
ATOM     23  C   UNL     1       1.992   6.692  20.376  0.00  0.00    +0.000 A 
ATOM     24  C   UNL     1       1.892   5.302  20.448  0.00  0.00    +0.000 A 
ENDBRANCH  18  19
ENDBRANCH  17  18
ENDBRANCH  16  17
ENDBRANCH   3  16
TORSDOF 7
ENDMDL
MODEL 3
REMARK VINA RESULT:      -7.8      0.959      1.629
REMARK  Name = 
REMARK  7 active torsions:
REMARK  status: ('A' for Active; 'I' for Inactive)
REMARK    1  A    between atoms: C_2  and  O_3
REMARK    2  A    between atoms: C_2  and  C_4
REMARK    3  A    between atoms: C_5  and  C_6
REMARK    4  A    between atoms: N_8  and  C_9
REMARK    5  A    between atoms: C_9  and  C_10
REMARK    6  A    between atoms: C_10  and  C_11
REMARK    7  A    between atoms: C_11  and  C_12
REMARK                            x       y       z     vdW  Elec       q    Type
REMARK                         _______ _______ _______ _____ _____    ______ ____
ROOT
ATOM      1  C   UNL     1       5.175   3.723  18.605  0.00  0.00    +0.000 C 
ATOM      2  O   UNL     1       4.653   4.077  19.655  0.00  0.00    +0.000 OA
ATOM      3  N   UNL     1       4.671   2.695  17.837  0.00  0.00    +0.000 N 
ATOM      4  H   UNL     1       5.051   2.503  16.919  0.00  0.00    +0.000 HD
ENDROOT
BRANCH   1   6
ATOM      5  C   UNL     1       6.547   5.872  18.421  0.00  0.00    +0.000 C 
ATOM      6  C   UNL     1       6.421   4.379  18.050  0.00  0.00    +0.000 C 
ATOM      7  C   UNL     1       6.432   4.443  16.519  0.00  0.00    +0.000 C 
ATOM      8  C   UNL     1       5.152   5.033  15.925  0.00  0.00    +0.000 C 
ATOM      9  C   UNL     1       5.241   6.492  16.365  0.00  0.00    +0.000 C 
ATOM     10  C   UNL     1       6.607   6.543  17.051  0.00  0.00    +0.000 C 
ATOM     11  O   UNL     1       7.355   5.550  16.302  0.00  0.00    +0.000 OA
BRANCH   5  13
ATOM     12  O   UNL     1       8.050   5.360  20.217  0.00  0.00    +0.000 OA
ATOM     13  C   UNL     1       7.765   6.101  19.289  0.00  0.00    +0.000 C 
BRANCH  13  14
ATOM     14  O   UNL     1       8.566   7.131  18.944  0.00  0.00    +0.000 OA
ATOM     15  H   UNL     1       8.136   7.834  18.423  0.00  0.00    +0.000 HD
ENDBRANCH  13  14
ENDBRANCH   5  13
ENDBRANCH   1   6
BRANCH   3  16
ATOM     16  C   UNL     1       3.478   1.976  18.247  0.00  0.00    +0.000 C 
BRANCH  16  17
ATOM     17  C   UNL     1       2.249   2.454  17.479  0.00  0.00    +0.000 C 
BRANCH  17  18
ATOM     18  C   UNL     1       1.202   3.023  18.436  0.00  0.00    +0.000 C 
BRANCH  18  19
ATOM     19  C   UNL     1       1.554   4.411  18.911  0.00  0.00    +0.000 A 
ATOM     20  C   UNL     1       2.021   5.375  18.007  0.00  0.00    +0.000 A 
ATOM     21  C   UNL     1       2.348   6.659  18.448  0.00  0.00    +0.000 A 
ATOM     22  C   UNL     1       2.212   6.992  19.793  0.00  0.00    +0.000 A 
ATOM     23  C   UNL     1       1.753   6.039  20.702  0.00  0.00    +0.000 A 
ATOM     24  C   UNL     1       1.430   4.753  20.264  0.00  0.00    +0.000 A 
ENDBRANCH  18  19
ENDBRANCH  17  18
ENDBRANCH  16  17
ENDBRANCH   3  16
TORSDOF 7
ENDMDL
MODEL 4
REMARK VINA RESULT:      -7.7      1.243      1.523
REMARK  Name = 
REMARK  7 active torsions:
REMARK  status: ('A' for Active; 'I' for Inactive)
REMARK    1  A    between atoms: C_2  and  O_3
REMARK    2  A    between atoms: C_2  and  C_4
REMARK    3  A    between atoms: C_5  and  C_6
REMARK    4  A    between atoms: N_8  and  C_9
REMARK    5  A    between atoms: C_9  and  C_10
REMARK    6  A    between atoms: C_10  and  C_11
REMARK    7  A    between atoms: C_11  and  C_12
REMARK                            x       y       z     vdW  Elec       q    Type
REMARK                         _______ _______ _______ _____ _____    ______ ____
ROOT
ATOM      1  C   UNL     1       5.319   3.608  17.713  0.00  0.00    +0.000 C 
ATOM      2  O   UNL     1       4.552   3.305  16.806  0.00  0.00    +0.000 OA
ATOM      3  N   UNL     1       5.142   3.175  19.010  0.00  0.00    +0.000 N 
ATOM      4  H   UNL     1       5.852   3.341  19.711  0.00  0.00    +0.000 HD
ENDROOT
BRANCH   1   6
ATOM      5  C   UNL     1       6.444   5.846  18.221  0.00  0.00    +0.000 C 
ATOM      6  C   UNL     1       6.533   4.486  17.496  0.00  0.00    +0.000 C 
ATOM      7  C   UNL     1       6.699   4.927  16.039  0.00  0.00    +0.000 C 
ATOM      8  C   UNL     1       5.429   5.532  15.437  0.00  0.00    +0.000 C 
ATOM      9  C   UNL     1       5.301   6.839  16.215  0.00  0.00    +0.000 C 
ATOM     10  C   UNL     1       6.571   6.838  17.067  0.00  0.00    +0.000 C 
ATOM     11  O   UNL     1       7.505   6.129  16.211  0.00  0.00    +0.000 OA
BRANCH   5  13
ATOM     12  O   UNL     1       7.592   5.195  20.222  0.00  0.00    +0.000 OA
ATOM     13  C   UNL     1       7.528   5.958  19.271  0.00  0.00    +0.000 C 
BRANCH  13  14
ATOM     14  O   UNL     1       8.469   6.905  19.068  0.00  0.00    +0.000 OA
ATOM     15  H   UNL     1       8.614   7.512  19.817  0.00  0.00    +0.000 HD
ENDBRANCH  13  14
ENDBRANCH   5  13
ENDBRANCH   1   6
BRANCH   3  16
ATOM     16  C   UNL     1       4.018   2.325  19.363  0.00  0.00    +0.000 C 
BRANCH  16  17
ATOM     17  C   UNL     1       3.144   2.972  20.432  0.00  0.00    +0.000 C 
BRANCH  17  18
ATOM     18  C   UNL     1       1.877   3.561  19.811  0.00  0.00    +0.000 C 
BRANCH  18  19
ATOM     19  C   UNL     1       1.979   5.052  19.609  0.00  0.00    +0.000 A 
ATOM     20  C   UNL     1       1.702   5.934  20.662  0.00  0.00    +0.000 A 
ATOM     21  C   UNL     1       1.795   7.314  20.473  0.00  0.00    +0.000 A 
ATOM     22  C   UNL     1       2.165   7.826  19.232  0.00  0.00    +0.000 A 
ATOM     23  C   UNL     1       2.438   6.959  18.176  0.00  0.00    +0.000 A 
ATOM     24  C   UNL     1       2.341   5.578  18.361  0.00  0.00    +0.000 A 
ENDBRANCH  18  19
ENDBRANCH  17  18
ENDBRANCH  16  17
ENDBRANCH   3  16
TORSDOF 7
ENDMDL
MODEL 5
REMARK VINA RESULT:      -7.5      2.544      6.194
REMARK  Name = 
REMARK  7 active torsions:
REMARK  status: ('A' for Active; 'I' for Inactive)
REMARK    1  A    between atoms: C_2  and  O_3
REMARK    2  A    between atoms: C_2  and  C_4
REMARK    3  A    between atoms: C_5  and  C_6
REMARK    4  A    between atoms: N_8  and  C_9
REMARK    5  A    between atoms: C_9  and  C_10
REMARK    6  A    between atoms: C_10  and  C_11
REMARK    7  A    between atoms: C_11  and  C_12
REMARK                            x       y       z     vdW  Elec       q    Type
REMARK                         _______ _______ _______ _____ _____    ______ ____
ROOT
ATOM      1  C   UNL     1       5.352   4.539  19.117  0.00  0.00    +0.000 C 
ATOM      2  O   UNL     1       5.938   5.356  19.818  0.00  0.00    +0.000 OA
ATOM      3  N   UNL     1       5.885   4.053  17.942  0.00  0.00    +0.000 N 
ATOM      4  H   UNL     1       5.436   3.294  17.447  0.00  0.00    +0.000 HD
ENDROOT
BRANCH   1   6
ATOM      5  C   UNL     1       3.205   3.453  18.254  0.00  0.00    +0.000 C 
ATOM      6  C   UNL     1       3.989   3.987  19.472  0.00  0.00    +0.000 C 
ATOM      7  C   UNL     1       3.030   5.057  20.005  0.00  0.00    +0.000 C 
ATOM      8  C   UNL     1       2.941   6.295  19.110  0.00  0.00    +0.000 C 
ATOM      9  C   UNL     1       2.239   5.742  17.873  0.00  0.00    +0.000 C 
ATOM     10  C   UNL     1       1.936   4.301  18.286  0.00  0.00    +0.000 C 
ATOM     11  O   UNL     1       1.744   4.435  19.719  0.00  0.00    +0.000 OA
BRANCH   5  13
ATOM     12  O   UNL     1       3.832   1.144  18.102  0.00  0.00    +0.000 OA
ATOM     13  C   UNL     1       2.972   1.964  18.385  0.00  0.00    +0.000 C 
BRANCH  13  14
ATOM     14  O   UNL     1       1.784   1.583  18.901  0.00  0.00    +0.000 OA
ATOM     15  H   UNL     1       1.000   1.914  18.424  0.00  0.00    +0.000 HD
ENDBRANCH  13  14
ENDBRANCH   5  13
ENDBRANCH   1   6
BRANCH   3  16
ATOM     16  C   UNL     1       7.189   4.494  17.479  0.00  0.00    +0.000 C 
BRANCH  16  17
ATOM     17  C   UNL     1       7.069   5.690  16.539  0.00  0.00    +0.000 C 
BRANCH  17  18
ATOM     18  C   UNL     1       5.850   5.543  15.629  0.00  0.00    +0.000 C 
BRANCH  18  19
ATOM     19  C   UNL     1       6.195   4.894  14.311  0.00  0.00    +0.000 A 
ATOM     20  C   UNL     1       5.341   3.938  13.745  0.00  0.00    +0.000 A 
ATOM     21  C   UNL     1       5.661   3.337  12.526  0.00  0.00    +0.000 A 
ATOM     22  C   UNL     1       6.835   3.685  11.862  0.00  0.00    +0.000 A 
ATOM     23  C   UNL     1       7.694   4.631  12.419  0.00  0.00    +0.000 A 
ATOM     24  C   UNL     1       7.379   5.230  13.640  0.00  0.00    +0.000 A 
ENDBRANCH  18  19
ENDBRANCH  17  18
ENDBRANCH  16  17
ENDBRANCH   3  16
TORSDOF 7
ENDMDL
MODEL 6
REMARK VINA RESULT:      -7.5      1.404      2.912
REMARK  Name = 
REMARK  7 active torsions:
REMARK  status: ('A' for Active; 'I' for Inactive)
REMARK    1  A    between atoms: C_2  and  O_3
REMARK    2  A    between atoms: C_2  and  C_4
REMARK    3  A    between atoms: C_5  and  C_6
REMARK    4  A    between atoms: N_8  and  C_9
REMARK    5  A    between atoms: C_9  and  C_10
REMARK    6  A    between atoms: C_10  and  C_11
REMARK    7  A    between atoms: C_11  and  C_12
REMARK                            x       y       z     vdW  Elec       q    Type
REMARK                         _______ _______ _______ _____ _____    ______ ____
ROOT
ATOM      1  C   UNL     1       4.313   6.334  18.247  0.00  0.00    +0.000 C 
ATOM      2  O   UNL     1       3.789   7.067  17.417  0.00  0.00    +0.000 OA
ATOM      3  N   UNL     1       3.633   5.853  19.346  0.00  0.00    +0.000 N 
ATOM      4  H   UNL     1       4.052   5.157  19.948  0.00  0.00    +0.000 HD
ENDROOT
BRANCH   1   6
ATOM      5  C   UNL     1       6.568   6.662  17.088  0.00  0.00    +0.000 C 
ATOM      6  C   UNL     1       5.755   5.887  18.148  0.00  0.00    +0.000 C 
ATOM      7  C   UNL     1       5.901   4.445  17.649  0.00  0.00    +0.000 C 
ATOM      8  C   UNL     1       5.115   4.161  16.368  0.00  0.00    +0.000 C 
ATOM      9  C   UNL     1       5.874   4.995  15.339  0.00  0.00    +0.000 C 
ATOM     10  C   UNL     1       7.041   5.545  16.160  0.00  0.00    +0.000 C 
ATOM     11  O   UNL     1       7.259   4.478  17.121  0.00  0.00    +0.000 OA
BRANCH   5  13
ATOM     12  O   UNL     1       8.013   8.556  17.351  0.00  0.00    +0.000 OA
ATOM     13  C   UNL     1       7.680   7.449  17.745  0.00  0.00    +0.000 C 
BRANCH  13  14
ATOM     14  O   UNL     1       8.245   6.896  18.840  0.00  0.00    +0.000 OA
ATOM     15  H   UNL     1       9.213   6.794  18.800  0.00  0.00    +0.000 HD
ENDBRANCH  13  14
ENDBRANCH   5  13
ENDBRANCH   1   6
BRANCH   3  16
ATOM     16  C   UNL     1       2.240   6.200  19.568  0.00  0.00    +0.000 C 
BRANCH  16  17
ATOM     17  C   UNL     1       1.688   5.519  20.816  0.00  0.00    +0.000 C 
BRANCH  17  18
ATOM     18  C   UNL     1       1.000   4.203  20.454  0.00  0.00    +0.000 C 
BRANCH  18  19
ATOM     19  C   UNL     1       1.916   3.263  19.711  0.00  0.00    +0.000 A 
ATOM     20  C   UNL     1       1.631   2.885  18.392  0.00  0.00    +0.000 A 
ATOM     21  C   UNL     1       2.479   2.015  17.706  0.00  0.00    +0.000 A 
ATOM     22  C   UNL     1       3.619   1.513  18.329  0.00  0.00    +0.000 A 
ATOM     23  C   UNL     1       3.910   1.878  19.642  0.00  0.00    +0.000 A 
ATOM     24  C   UNL     1       3.061   2.745  20.333  0.00  0.00    +0.000 A 
ENDBRANCH  18  19
ENDBRANCH  17  18
ENDBRANCH  16  17
ENDBRANCH   3  16
TORSDOF 7
ENDMDL
MODEL 7
REMARK VINA RESULT:      -7.5      2.498      6.193
REMARK  Name = 
REMARK  7 active torsions:
REMARK  status: ('A' for Active; 'I' for Inactive)
REMARK    1  A    between atoms: C_2  and  O_3
REMARK    2  A    between atoms: C_2  and  C_4
REMARK    3  A    between atoms: C_5  and  C_6
REMARK    4  A    between atoms: N_8  and  C_9
REMARK    5  A    between atoms: C_9  and  C_10
REMARK    6  A    between atoms: C_10  and  C_11
REMARK    7  A    between atoms: C_11  and  C_12
REMARK                            x       y       z     vdW  Elec       q    Type
REMARK                         _______ _______ _______ _____ _____    ______ ____
ROOT
ATOM      1  C   UNL     1       5.389   4.479  19.066  0.00  0.00    +0.000 C 
ATOM      2  O   UNL     1       6.039   5.252  19.759  0.00  0.00    +0.000 OA
ATOM      3  N   UNL     1       5.843   4.008  17.852  0.00  0.00    +0.000 N 
ATOM      4  H   UNL     1       5.341   3.282  17.360  0.00  0.00    +0.000 HD
ENDROOT
BRANCH   1   6
ATOM      5  C   UNL     1       3.183   3.446  18.288  0.00  0.00    +0.000 C 
ATOM      6  C   UNL     1       4.023   3.969  19.474  0.00  0.00    +0.000 C 
ATOM      7  C   UNL     1       3.114   5.070  20.029  0.00  0.00    +0.000 C 
ATOM      8  C   UNL     1       3.029   6.302  19.126  0.00  0.00    +0.000 C 
ATOM      9  C   UNL     1       2.269   5.758  17.919  0.00  0.00    +0.000 C 
ATOM     10  C   UNL     1       1.940   4.330  18.357  0.00  0.00    +0.000 C 
ATOM     11  O   UNL     1       1.802   4.482  19.794  0.00  0.00    +0.000 OA
BRANCH   5  13
ATOM     12  O   UNL     1       3.804   1.133  18.374  0.00  0.00    +0.000 OA
ATOM     13  C   UNL     1       2.913   1.965  18.443  0.00  0.00    +0.000 C 
BRANCH  13  14
ATOM     14  O   UNL     1       1.643   1.611  18.730  0.00  0.00    +0.000 OA
ATOM     15  H   UNL     1       1.344   1.836  19.631  0.00  0.00    +0.000 HD
ENDBRANCH  13  14
ENDBRANCH   5  13
ENDBRANCH   1   6
BRANCH   3  16
ATOM     16  C   UNL     1       7.139   4.413  17.336  0.00  0.00    +0.000 C 
BRANCH  16  17
ATOM     17  C   UNL     1       7.068   5.783  16.667  0.00  0.00    +0.000 C 
BRANCH  17  18
ATOM     18  C   UNL     1       5.917   5.835  15.664  0.00  0.00    +0.000 C 
BRANCH  18  19
ATOM     19  C   UNL     1       6.225   5.071  14.399  0.00  0.00    +0.000 A 
ATOM     20  C   UNL     1       7.375   5.364  13.654  0.00  0.00    +0.000 A 
ATOM     21  C   UNL     1       7.659   4.657  12.484  0.00  0.00    +0.000 A 
ATOM     22  C   UNL     1       6.798   3.653  12.047  0.00  0.00    +0.000 A 
ATOM     23  C   UNL     1       5.649   3.357  12.778  0.00  0.00    +0.000 A 
ATOM     24  C   UNL     1       5.360   4.066  13.946  0.00  0.00    +0.000 A 
ENDBRANCH  18  19
ENDBRANCH  17  18
ENDBRANCH  16  17
ENDBRANCH   3  16
TORSDOF 7
ENDMDL
MODEL 8
REMARK VINA RESULT:      -7.4      2.491      6.207
REMARK  Name = 
REMARK  7 active torsions:
REMARK  status: ('A' for Active; 'I' for Inactive)
REMARK    1  A    between atoms: C_2  and  O_3
REMARK    2  A    between atoms: C_2  and  C_4
REMARK    3  A    between atoms: C_5  and  C_6
REMARK    4  A    between atoms: N_8  and  C_9
REMARK    5  A    between atoms: C_9  and  C_10
REMARK    6  A    between atoms: C_10  and  C_11
REMARK    7  A    between atoms: C_11  and  C_12
REMARK                            x       y       z     vdW  Elec       q    Type
REMARK                         _______ _______ _______ _____ _____    ______ ____
ROOT
ATOM      1  C   UNL     1       4.583   5.073  18.973  0.00  0.00    +0.000 C 
ATOM      2  O   UNL     1       4.353   6.178  18.497  0.00  0.00    +0.000 OA
ATOM      3  N   UNL     1       5.825   4.478  18.900  0.00  0.00    +0.000 N 
ATOM      4  H   UNL     1       6.018   3.622  19.403  0.00  0.00    +0.000 HD
ENDROOT
BRANCH   1   6
ATOM      5  C   UNL     1       3.784   2.732  19.619  0.00  0.00    +0.000 C 
ATOM      6  C   UNL     1       3.528   4.254  19.684  0.00  0.00    +0.000 C 
ATOM      7  C   UNL     1       2.147   4.358  19.027  0.00  0.00    +0.000 C 
ATOM      8  C   UNL     1       2.167   4.098  17.520  0.00  0.00    +0.000 C 
ATOM      9  C   UNL     1       2.502   2.610  17.460  0.00  0.00    +0.000 C 
ATOM     10  C   UNL     1       2.517   2.218  18.938  0.00  0.00    +0.000 C 
ATOM     11  O   UNL     1       1.530   3.125  19.497  0.00  0.00    +0.000 OA
BRANCH   5  13
ATOM     12  O   UNL     1       5.079   1.646  21.318  0.00  0.00    +0.000 OA
ATOM     13  C   UNL     1       4.025   2.176  21.005  0.00  0.00    +0.000 C 
BRANCH  13  14
ATOM     14  O   UNL     1       3.036   2.357  21.907  0.00  0.00    +0.000 OA
ATOM     15  H   UNL     1       2.476   3.140  21.757  0.00  0.00    +0.000 HD
ENDBRANCH  13  14
ENDBRANCH   5  13
ENDBRANCH   1   6
BRANCH   3  16
ATOM     16  C   UNL     1       6.934   5.151  18.247  0.00  0.00    +0.000 C 
BRANCH  16  17
ATOM     17  C   UNL     1       7.229   4.540  16.880  0.00  0.00    +0.000 C 
BRANCH  17  18
ATOM     18  C   UNL     1       6.024   4.686  15.952  0.00  0.00    +0.000 C 
BRANCH  18  19
ATOM     19  C   UNL     1       6.395   4.507  14.500  0.00  0.00    +0.000 A 
ATOM     20  C   UNL     1       5.669   3.631  13.683  0.00  0.00    +0.000 A 
ATOM     21  C   UNL     1       6.014   3.466  12.340  0.00  0.00    +0.000 A 
ATOM     22  C   UNL     1       7.086   4.173  11.802  0.00  0.00    +0.000 A 
ATOM     23  C   UNL     1       7.819   5.044  12.607  0.00  0.00    +0.000 A 
ATOM     24  C   UNL     1       7.479   5.207  13.951  0.00  0.00    +0.000 A 
ENDBRANCH  18  19
ENDBRANCH  17  18
ENDBRANCH  16  17
ENDBRANCH   3  16
TORSDOF 7
ENDMDL
MODEL 9
REMARK VINA RESULT:      -7.3      2.594      6.294
REMARK  Name = 
REMARK  7 active torsions:
REMARK  status: ('A' for Active; 'I' for Inactive)
REMARK    1  A    between atoms: C_2  and  O_3
REMARK    2  A    between atoms: C_2  and  C_4
REMARK    3  A    between atoms: C_5  and  C_6
REMARK    4  A    between atoms: N_8  and  C_9
REMARK    5  A    between atoms: C_9  and  C_10
REMARK    6  A    between atoms: C_10  and  C_11
REMARK    7  A    between atoms: C_11  and  C_12
REMARK                            x       y       z     vdW  Elec       q    Type
REMARK                         _______ _______ _______ _____ _____    ______ ____
ROOT
ATOM      1  C   UNL     1       4.841   4.809  18.892  0.00  0.00    +0.000 C 
ATOM      2  O   UNL     1       5.662   4.036  19.370  0.00  0.00    +0.000 OA
ATOM      3  N   UNL     1       5.202   5.886  18.109  0.00  0.00    +0.000 N 
ATOM      4  H   UNL     1       4.501   6.435  17.632  0.00  0.00    +0.000 HD
ENDROOT
BRANCH   1   6
ATOM      5  C   UNL     1       2.984   3.471  20.030  0.00  0.00    +0.000 C 
ATOM      6  C   UNL     1       3.351   4.659  19.116  0.00  0.00    +0.000 C 
ATOM      7  C   UNL     1       2.587   4.307  17.835  0.00  0.00    +0.000 C 
ATOM      8  C   UNL     1       3.183   3.120  17.077  0.00  0.00    +0.000 C 
ATOM      9  C   UNL     1       2.890   1.959  18.024  0.00  0.00    +0.000 C 
ATOM     10  C   UNL     1       2.077   2.636  19.129  0.00  0.00    +0.000 C 
ATOM     11  O   UNL     1       1.393   3.686  18.395  0.00  0.00    +0.000 OA
BRANCH   5  13
ATOM     12  O   UNL     1       1.932   3.198  22.166  0.00  0.00    +0.000 OA
ATOM     13  C   UNL     1       2.328   3.964  21.301  0.00  0.00    +0.000 C 
BRANCH  13  14
ATOM     14  O   UNL     1       2.264   5.302  21.466  0.00  0.00    +0.000 OA
ATOM     15  H   UNL     1       2.979   5.808  21.039  0.00  0.00    +0.000 HD
ENDBRANCH  13  14
ENDBRANCH   5  13
ENDBRANCH   1   6
BRANCH   3  16
ATOM     16  C   UNL     1       6.599   6.151  17.811  0.00  0.00    +0.000 C 
BRANCH  16  17
ATOM     17  C   UNL     1       7.074   5.341  16.608  0.00  0.00    +0.000 C 
BRANCH  17  18
ATOM     18  C   UNL     1       5.897   4.965  15.710  0.00  0.00    +0.000 C 
BRANCH  18  19
ATOM     19  C   UNL     1       6.332   4.641  14.302  0.00  0.00    +0.000 A 
ATOM     20  C   UNL     1       7.416   5.311  13.719  0.00  0.00    +0.000 A 
ATOM     21  C   UNL     1       7.817   5.011  12.417  0.00  0.00    +0.000 A 
ATOM     22  C   UNL     1       7.140   4.040  11.683  0.00  0.00    +0.000 A 
ATOM     23  C   UNL     1       6.057   3.371  12.250  0.00  0.00    +0.000 A 
ATOM     24  C   UNL     1       5.650   3.672  13.551  0.00  0.00    +0.000 A 
ENDBRANCH  18  19
ENDBRANCH  17  18
ENDBRANCH  16  17
ENDBRANCH   3  16
TORSDOF 7
ENDMDL
