MODEL 1
REMARK VINA RESULT:      -7.6      0.000      0.000
REMARK  Name = 
REMARK  4 active torsions:
REMARK  status: ('A' for Active; 'I' for Inactive)
REMARK    1  A    between atoms: N_1  and  C_2
REMARK    2  A    between atoms: C_6  and  N_7
REMARK    3  A    between atoms: C_8  and  C_10
REMARK    4  A    between atoms: C_14  and  C_15
REMARK                            x       y       z     vdW  Elec       q    Type
REMARK                         _______ _______ _______ _____ _____    ______ ____
ROOT
ATOM      1  N   UNL     1       3.858   3.272  17.536  0.00  0.00    +0.000 N 
ATOM      2  C   UNL     1       4.259   4.473  16.971  0.00  0.00    +0.000 C 
ATOM      3  O   UNL     1       3.831   5.586  17.269  0.00  0.00    +0.000 OA
ATOM      4  H   UNL     1       4.439   2.458  17.384  0.00  0.00    +0.000 HD
ENDROOT
BRANCH   1   9
ATOM      5  C   UNL     1       2.111   3.109  20.822  0.00  0.00    +0.000 A 
ATOM      6  C   UNL     1       0.794   2.884  20.420  0.00  0.00    +0.000 A 
ATOM      7  C   UNL     1       0.472   2.821  19.067  0.00  0.00    +0.000 A 
ATOM      8  C   UNL     1       1.473   2.953  18.107  0.00  0.00    +0.000 A 
ATOM      9  C   UNL     1       2.808   3.137  18.481  0.00  0.00    +0.000 A 
ATOM     10  C   UNL     1       3.120   3.168  19.849  0.00  0.00    +0.000 A 
BRANCH   5  11
ATOM     11  N   UNL     1       2.436   3.052  22.186  0.00  0.00    +0.000 N 
ATOM     12  H   UNL     1       2.127   3.869  22.707  0.00  0.00    +0.000 HD
ATOM     13  H   UNL     1       3.409   2.832  22.367  0.00  0.00    +0.000 HD
ENDBRANCH   5  11
ENDBRANCH   1   9
BRANCH   2  14
ATOM     14  C   UNL     1       5.339   4.432  15.949  0.00  0.00    +0.000 A 
ATOM     15  C   UNL     1       6.532   5.101  16.258  0.00  0.00    +0.000 A 
ATOM     16  C   UNL     1       7.545   5.222  15.311  0.00  0.00    +0.000 A 
ATOM     17  C   UNL     1       7.368   4.682  14.040  0.00  0.00    +0.000 A 
ATOM     18  C   UNL     1       6.180   4.008  13.707  0.00  0.00    +0.000 A 
ATOM     19  C   UNL     1       5.165   3.876  14.678  0.00  0.00    +0.000 A 
BRANCH  18  20
ATOM     20  C   UNL     1       5.978   3.464  12.313  0.00  0.00    +0.000 C 
ATOM     21  F   UNL     1       6.054   2.105  12.241  0.00  0.00    +0.000 F 
ATOM     22  F   UNL     1       4.762   3.797  11.799  0.00  0.00    +0.000 F 
ATOM     23  F   UNL     1       6.901   3.937  11.432  0.00  0.00    +0.000 F 
ENDBRANCH  18  20
ENDBRANCH   2  14
TORSDOF 4
ENDMDL
MODEL 2
REMARK VINA RESULT:      -7.5      6.164      8.274
REMARK  Name = 
REMARK  4 active torsions:
REMARK  status: ('A' for Active; 'I' for Inactive)
REMARK    1  A    between atoms: N_1  and  C_2
REMARK    2  A    between atoms: C_6  and  N_7
REMARK    3  A    between atoms: C_8  and  C_10
REMARK    4  A    between atoms: C_14  and  C_15
REMARK                            x       y       z     vdW  Elec       q    Type
REMARK                         _______ _______ _______ _____ _____    ______ ____
ROOT
ATOM      1  N   UNL     1       4.294   7.127  17.284  0.00  0.00    +0.000 N 
ATOM      2  C   UNL     1       3.264   6.766  18.141  0.00  0.00    +0.000 C 
ATOM      3  O   UNL     1       3.068   5.640  18.593  0.00  0.00    +0.000 OA
ATOM      4  H   UNL     1       4.492   8.112  17.170  0.00  0.00    +0.000 HD
ENDROOT
BRANCH   1   9
ATOM      5  C   UNL     1       7.119   4.711  17.034  0.00  0.00    +0.000 A 
ATOM      6  C   UNL     1       7.100   4.410  15.672  0.00  0.00    +0.000 A 
ATOM      7  C   UNL     1       6.137   4.973  14.839  0.00  0.00    +0.000 A 
ATOM      8  C   UNL     1       5.203   5.866  15.361  0.00  0.00    +0.000 A 
ATOM      9  C   UNL     1       5.224   6.219  16.714  0.00  0.00    +0.000 A 
ATOM     10  C   UNL     1       6.219   5.666  17.533  0.00  0.00    +0.000 A 
BRANCH   5  11
ATOM     11  N   UNL     1       8.165   4.229  17.834  0.00  0.00    +0.000 N 
ATOM     12  H   UNL     1       8.001   4.355  18.830  0.00  0.00    +0.000 HD
ATOM     13  H   UNL     1       9.082   4.562  17.556  0.00  0.00    +0.000 HD
ENDBRANCH   5  11
ENDBRANCH   1   9
BRANCH   2  14
ATOM     14  C   UNL     1       2.339   7.834  18.603  0.00  0.00    +0.000 A 
ATOM     15  C   UNL     1       2.119   8.907  17.726  0.00  0.00    +0.000 A 
ATOM     16  C   UNL     1       1.371  10.010  18.128  0.00  0.00    +0.000 A 
ATOM     17  C   UNL     1       0.844  10.054  19.416  0.00  0.00    +0.000 A 
ATOM     18  C   UNL     1       1.054   8.991  20.312  0.00  0.00    +0.000 A 
ATOM     19  C   UNL     1       1.799   7.870  19.893  0.00  0.00    +0.000 A 
BRANCH  18  20
ATOM     20  C   UNL     1       0.516   9.067  21.721  0.00  0.00    +0.000 C 
ATOM     21  F   UNL     1      -0.559   8.259  21.940  0.00  0.00    +0.000 F 
ATOM     22  F   UNL     1       1.447   8.709  22.648  0.00  0.00    +0.000 F 
ATOM     23  F   UNL     1       0.115  10.323  22.058  0.00  0.00    +0.000 F 
ENDBRANCH  18  20
ENDBRANCH   2  14
TORSDOF 4
ENDMDL
MODEL 3
REMARK VINA RESULT:      -7.5      1.295      1.514
REMARK  Name = 
REMARK  4 active torsions:
REMARK  status: ('A' for Active; 'I' for Inactive)
REMARK    1  A    between atoms: N_1  and  C_2
REMARK    2  A    between atoms: C_6  and  N_7
REMARK    3  A    between atoms: C_8  and  C_10
REMARK    4  A    between atoms: C_14  and  C_15
REMARK                            x       y       z     vdW  Elec       q    Type
REMARK                         _______ _______ _______ _____ _____    ______ ____
ROOT
ATOM      1  N   UNL     1       3.557   4.061  17.082  0.00  0.00    +0.000 N 
ATOM      2  C   UNL     1       4.938   4.113  17.194  0.00  0.00    +0.000 C 
ATOM      3  O   UNL     1       5.576   4.044  18.242  0.00  0.00    +0.000 OA
ATOM      4  H   UNL     1       3.161   3.891  16.166  0.00  0.00    +0.000 HD
ENDROOT
BRANCH   1   9
ATOM      5  C   UNL     1       1.729   5.145  20.141  0.00  0.00    +0.000 A 
ATOM      6  C   UNL     1       0.913   4.037  20.378  0.00  0.00    +0.000 A 
ATOM      7  C   UNL     1       0.937   2.948  19.512  0.00  0.00    +0.000 A 
ATOM      8  C   UNL     1       1.801   2.947  18.419  0.00  0.00    +0.000 A 
ATOM      9  C   UNL     1       2.659   4.024  18.181  0.00  0.00    +0.000 A 
ATOM     10  C   UNL     1       2.645   5.101  19.079  0.00  0.00    +0.000 A 
BRANCH   5  11
ATOM     11  N   UNL     1       1.778   6.181  21.086  0.00  0.00    +0.000 N 
ATOM     12  H   UNL     1       2.720   6.525  21.256  0.00  0.00    +0.000 HD
ATOM     13  H   UNL     1       1.289   5.972  21.949  0.00  0.00    +0.000 HD
ENDBRANCH   5  11
ENDBRANCH   1   9
BRANCH   2  14
ATOM     14  C   UNL     1       5.733   4.208  15.941  0.00  0.00    +0.000 A 
ATOM     15  C   UNL     1       6.893   4.995  15.982  0.00  0.00    +0.000 A 
ATOM     16  C   UNL     1       7.626   5.242  14.824  0.00  0.00    +0.000 A 
ATOM     17  C   UNL     1       7.196   4.711  13.611  0.00  0.00    +0.000 A 
ATOM     18  C   UNL     1       6.036   3.920  13.545  0.00  0.00    +0.000 A 
ATOM     19  C   UNL     1       5.308   3.661  14.725  0.00  0.00    +0.000 A 
BRANCH  18  20
ATOM     20  C   UNL     1       5.553   3.384  12.218  0.00  0.00    +0.000 C 
ATOM     21  F   UNL     1       4.215   3.545  12.018  0.00  0.00    +0.000 F 
ATOM     22  F   UNL     1       6.165   3.991  11.164  0.00  0.00    +0.000 F 
ATOM     23  F   UNL     1       5.794   2.052  12.077  0.00  0.00    +0.000 F 
ENDBRANCH  18  20
ENDBRANCH   2  14
TORSDOF 4
ENDMDL
MODEL 4
REMARK VINA RESULT:      -7.3      3.889      7.195
REMARK  Name = 
REMARK  4 active torsions:
REMARK  status: ('A' for Active; 'I' for Inactive)
REMARK    1  A    between atoms: N_1  and  C_2
REMARK    2  A    between atoms: C_6  and  N_7
REMARK    3  A    between atoms: C_8  and  C_10
REMARK    4  A    between atoms: C_14  and  C_15
REMARK                            x       y       z     vdW  Elec       q    Type
REMARK                         _______ _______ _______ _____ _____    ______ ____
ROOT
ATOM      1  N   UNL     1       4.915   4.214  15.519  0.00  0.00    +0.000 N 
ATOM      2  C   UNL     1       4.618   5.317  16.306  0.00  0.00    +0.000 C 
ATOM      3  O   UNL     1       4.956   6.475  16.075  0.00  0.00    +0.000 OA
ATOM      4  H   UNL     1       4.392   3.363  15.679  0.00  0.00    +0.000 HD
ENDROOT
BRANCH   1   9
ATOM      5  C   UNL     1       7.785   5.067  13.304  0.00  0.00    +0.000 A 
ATOM      6  C   UNL     1       7.457   4.360  12.146  0.00  0.00    +0.000 A 
ATOM      7  C   UNL     1       6.310   3.573  12.105  0.00  0.00    +0.000 A 
ATOM      8  C   UNL     1       5.467   3.512  13.213  0.00  0.00    +0.000 A 
ATOM      9  C   UNL     1       5.748   4.244  14.370  0.00  0.00    +0.000 A 
ATOM     10  C   UNL     1       6.892   5.056  14.386  0.00  0.00    +0.000 A 
BRANCH   5  11
ATOM     11  N   UNL     1       8.879   5.946  13.289  0.00  0.00    +0.000 N 
ATOM     12  H   UNL     1       9.027   6.388  12.385  0.00  0.00    +0.000 HD
ATOM     13  H   UNL     1       9.733   5.544  13.659  0.00  0.00    +0.000 HD
ENDBRANCH   5  11
ENDBRANCH   1   9
BRANCH   2  14
ATOM     14  C   UNL     1       3.774   5.101  17.511  0.00  0.00    +0.000 A 
ATOM     15  C   UNL     1       3.838   6.080  18.514  0.00  0.00    +0.000 A 
ATOM     16  C   UNL     1       3.182   5.896  19.729  0.00  0.00    +0.000 A 
ATOM     17  C   UNL     1       2.463   4.725  19.953  0.00  0.00    +0.000 A 
ATOM     18  C   UNL     1       2.387   3.730  18.963  0.00  0.00    +0.000 A 
ATOM     19  C   UNL     1       3.041   3.930  17.730  0.00  0.00    +0.000 A 
BRANCH  18  20
ATOM     20  C   UNL     1       1.642   2.444  19.231  0.00  0.00    +0.000 C 
ATOM     21  F   UNL     1       0.454   2.352  18.569  0.00  0.00    +0.000 F 
ATOM     22  F   UNL     1       2.359   1.346  18.866  0.00  0.00    +0.000 F 
ATOM     23  F   UNL     1       1.348   2.279  20.550  0.00  0.00    +0.000 F 
ENDBRANCH  18  20
ENDBRANCH   2  14
TORSDOF 4
ENDMDL
MODEL 5
REMARK VINA RESULT:      -7.3      6.150      8.265
REMARK  Name = 
REMARK  4 active torsions:
REMARK  status: ('A' for Active; 'I' for Inactive)
REMARK    1  A    between atoms: N_1  and  C_2
REMARK    2  A    between atoms: C_6  and  N_7
REMARK    3  A    between atoms: C_8  and  C_10
REMARK    4  A    between atoms: C_14  and  C_15
REMARK                            x       y       z     vdW  Elec       q    Type
REMARK                         _______ _______ _______ _____ _____    ______ ____
ROOT
ATOM      1  N   UNL     1       9.099   9.115  19.113  0.00  0.00    +0.000 N 
ATOM      2  C   UNL     1       8.142   8.829  18.151  0.00  0.00    +0.000 C 
ATOM      3  O   UNL     1       7.601   9.648  17.412  0.00  0.00    +0.000 OA
ATOM      4  H   UNL     1       9.637   8.346  19.491  0.00  0.00    +0.000 HD
ENDROOT
BRANCH   1   9
ATOM      5  C   UNL     1      10.592  12.511  18.774  0.00  0.00    +0.000 A 
ATOM      6  C   UNL     1      10.405  13.021  20.060  0.00  0.00    +0.000 A 
ATOM      7  C   UNL     1       9.756  12.263  21.030  0.00  0.00    +0.000 A 
ATOM      8  C   UNL     1       9.316  10.976  20.728  0.00  0.00    +0.000 A 
ATOM      9  C   UNL     1       9.528  10.423  19.461  0.00  0.00    +0.000 A 
ATOM     10  C   UNL     1      10.210  11.188  18.504  0.00  0.00    +0.000 A 
BRANCH   5  11
ATOM     11  N   UNL     1      11.351  13.240  17.846  0.00  0.00    +0.000 N 
ATOM     12  H   UNL     1      11.017  14.191  17.713  0.00  0.00    +0.000 HD
ATOM     13  H   UNL     1      11.490  12.761  16.963  0.00  0.00    +0.000 HD
ENDBRANCH   5  11
ENDBRANCH   1   9
BRANCH   2  14
ATOM     14  C   UNL     1       7.764   7.405  17.951  0.00  0.00    +0.000 A 
ATOM     15  C   UNL     1       8.074   6.513  18.988  0.00  0.00    +0.000 A 
ATOM     16  C   UNL     1       7.872   5.145  18.831  0.00  0.00    +0.000 A 
ATOM     17  C   UNL     1       7.366   4.656  17.631  0.00  0.00    +0.000 A 
ATOM     18  C   UNL     1       7.049   5.531  16.577  0.00  0.00    +0.000 A 
ATOM     19  C   UNL     1       7.241   6.917  16.748  0.00  0.00    +0.000 A 
BRANCH  18  20
ATOM     20  C   UNL     1       6.542   4.988  15.262  0.00  0.00    +0.000 C 
ATOM     21  F   UNL     1       5.427   5.622  14.803  0.00  0.00    +0.000 F 
ATOM     22  F   UNL     1       7.467   5.092  14.269  0.00  0.00    +0.000 F 
ATOM     23  F   UNL     1       6.217   3.668  15.336  0.00  0.00    +0.000 F 
ENDBRANCH  18  20
ENDBRANCH   2  14
TORSDOF 4
ENDMDL
MODEL 6
REMARK VINA RESULT:      -7.3      4.129      7.293
REMARK  Name = 
REMARK  4 active torsions:
REMARK  status: ('A' for Active; 'I' for Inactive)
REMARK    1  A    between atoms: N_1  and  C_2
REMARK    2  A    between atoms: C_6  and  N_7
REMARK    3  A    between atoms: C_8  and  C_10
REMARK    4  A    between atoms: C_14  and  C_15
REMARK                            x       y       z     vdW  Elec       q    Type
REMARK                         _______ _______ _______ _____ _____    ______ ____
ROOT
ATOM      1  N   UNL     1       4.958   4.347  15.722  0.00  0.00    +0.000 N 
ATOM      2  C   UNL     1       4.653   5.494  16.440  0.00  0.00    +0.000 C 
ATOM      3  O   UNL     1       4.940   6.643  16.113  0.00  0.00    +0.000 OA
ATOM      4  H   UNL     1       4.473   3.493  15.964  0.00  0.00    +0.000 HD
ENDROOT
BRANCH   1   9
ATOM      5  C   UNL     1       7.751   5.064  13.364  0.00  0.00    +0.000 A 
ATOM      6  C   UNL     1       7.361   4.325  12.246  0.00  0.00    +0.000 A 
ATOM      7  C   UNL     1       6.197   3.561  12.278  0.00  0.00    +0.000 A 
ATOM      8  C   UNL     1       5.400   3.556  13.421  0.00  0.00    +0.000 A 
ATOM      9  C   UNL     1       5.744   4.321  14.540  0.00  0.00    +0.000 A 
ATOM     10  C   UNL     1       6.903   5.108  14.481  0.00  0.00    +0.000 A 
BRANCH   5  11
ATOM     11  N   UNL     1       8.860   5.918  13.274  0.00  0.00    +0.000 N 
ATOM     12  H   UNL     1       9.413   5.772  12.433  0.00  0.00    +0.000 HD
ATOM     13  H   UNL     1       9.436   5.932  14.109  0.00  0.00    +0.000 HD
ENDBRANCH   5  11
ENDBRANCH   1   9
BRANCH   2  14
ATOM     14  C   UNL     1       3.867   5.340  17.692  0.00  0.00    +0.000 A 
ATOM     15  C   UNL     1       3.301   6.503  18.235  0.00  0.00    +0.000 A 
ATOM     16  C   UNL     1       2.658   6.471  19.470  0.00  0.00    +0.000 A 
ATOM     17  C   UNL     1       2.585   5.275  20.177  0.00  0.00    +0.000 A 
ATOM     18  C   UNL     1       3.146   4.097  19.654  0.00  0.00    +0.000 A 
ATOM     19  C   UNL     1       3.781   4.133  18.395  0.00  0.00    +0.000 A 
BRANCH  18  20
ATOM     20  C   UNL     1       3.100   2.813  20.448  0.00  0.00    +0.000 C 
ATOM     21  F   UNL     1       2.729   2.988  21.748  0.00  0.00    +0.000 F 
ATOM     22  F   UNL     1       2.222   1.914  19.926  0.00  0.00    +0.000 F 
ATOM     23  F   UNL     1       4.306   2.182  20.486  0.00  0.00    +0.000 F 
ENDBRANCH  18  20
ENDBRANCH   2  14
TORSDOF 4
ENDMDL
MODEL 7
REMARK VINA RESULT:      -7.3      4.055      7.311
REMARK  Name = 
REMARK  4 active torsions:
REMARK  status: ('A' for Active; 'I' for Inactive)
REMARK    1  A    between atoms: N_1  and  C_2
REMARK    2  A    between atoms: C_6  and  N_7
REMARK    3  A    between atoms: C_8  and  C_10
REMARK    4  A    between atoms: C_14  and  C_15
REMARK                            x       y       z     vdW  Elec       q    Type
REMARK                         _______ _______ _______ _____ _____    ______ ____
ROOT
ATOM      1  N   UNL     1       4.735   4.619  15.386  0.00  0.00    +0.000 N 
ATOM      2  C   UNL     1       5.073   4.435  16.718  0.00  0.00    +0.000 C 
ATOM      3  O   UNL     1       6.200   4.198  17.146  0.00  0.00    +0.000 OA
ATOM      4  H   UNL     1       3.837   5.037  15.177  0.00  0.00    +0.000 HD
ENDROOT
BRANCH   1   9
ATOM      5  C   UNL     1       7.738   5.084  13.231  0.00  0.00    +0.000 A 
ATOM      6  C   UNL     1       7.461   4.204  12.184  0.00  0.00    +0.000 A 
ATOM      7  C   UNL     1       6.304   3.431  12.201  0.00  0.00    +0.000 A 
ATOM      8  C   UNL     1       5.400   3.555  13.255  0.00  0.00    +0.000 A 
ATOM      9  C   UNL     1       5.631   4.459  14.297  0.00  0.00    +0.000 A 
ATOM     10  C   UNL     1       6.787   5.252  14.249  0.00  0.00    +0.000 A 
BRANCH   5  11
ATOM     11  N   UNL     1       8.847   5.939  13.141  0.00  0.00    +0.000 N 
ATOM     12  H   UNL     1       8.910   6.597  13.913  0.00  0.00    +0.000 HD
ATOM     13  H   UNL     1       8.938   6.398  12.241  0.00  0.00    +0.000 HD
ENDBRANCH   5  11
ENDBRANCH   1   9
BRANCH   2  14
ATOM     14  C   UNL     1       3.997   4.585  17.734  0.00  0.00    +0.000 A 
ATOM     15  C   UNL     1       4.003   5.762  18.496  0.00  0.00    +0.000 A 
ATOM     16  C   UNL     1       3.112   5.928  19.553  0.00  0.00    +0.000 A 
ATOM     17  C   UNL     1       2.213   4.911  19.862  0.00  0.00    +0.000 A 
ATOM     18  C   UNL     1       2.191   3.722  19.113  0.00  0.00    +0.000 A 
ATOM     19  C   UNL     1       3.085   3.568  18.034  0.00  0.00    +0.000 A 
BRANCH  18  20
ATOM     20  C   UNL     1       1.242   2.606  19.483  0.00  0.00    +0.000 C 
ATOM     21  F   UNL     1       1.835   1.380  19.535  0.00  0.00    +0.000 F 
ATOM     22  F   UNL     1       0.672   2.798  20.704  0.00  0.00    +0.000 F 
ATOM     23  F   UNL     1       0.212   2.486  18.602  0.00  0.00    +0.000 F 
ENDBRANCH  18  20
ENDBRANCH   2  14
TORSDOF 4
ENDMDL
MODEL 8
REMARK VINA RESULT:      -7.2      6.424      7.862
REMARK  Name = 
REMARK  4 active torsions:
REMARK  status: ('A' for Active; 'I' for Inactive)
REMARK    1  A    between atoms: N_1  and  C_2
REMARK    2  A    between atoms: C_6  and  N_7
REMARK    3  A    between atoms: C_8  and  C_10
REMARK    4  A    between atoms: C_14  and  C_15
REMARK                            x       y       z     vdW  Elec       q    Type
REMARK                         _______ _______ _______ _____ _____    ______ ____
ROOT
ATOM      1  N   UNL     1       2.010   5.425  19.098  0.00  0.00    +0.000 N 
ATOM      2  C   UNL     1       2.563   6.623  18.670  0.00  0.00    +0.000 C 
ATOM      3  O   UNL     1       3.536   6.740  17.930  0.00  0.00    +0.000 OA
ATOM      4  H   UNL     1       1.084   5.448  19.505  0.00  0.00    +0.000 HD
ENDROOT
BRANCH   1   9
ATOM      5  C   UNL     1       4.065   2.342  19.491  0.00  0.00    +0.000 A 
ATOM      6  C   UNL     1       3.682   1.614  18.364  0.00  0.00    +0.000 A 
ATOM      7  C   UNL     1       2.721   2.119  17.492  0.00  0.00    +0.000 A 
ATOM      8  C   UNL     1       2.159   3.372  17.727  0.00  0.00    +0.000 A 
ATOM      9  C   UNL     1       2.555   4.143  18.825  0.00  0.00    +0.000 A 
ATOM     10  C   UNL     1       3.545   3.632  19.677  0.00  0.00    +0.000 A 
BRANCH   5  11
ATOM     11  N   UNL     1       5.116   1.873  20.292  0.00  0.00    +0.000 N 
ATOM     12  H   UNL     1       5.883   2.535  20.377  0.00  0.00    +0.000 HD
ATOM     13  H   UNL     1       5.441   0.946  20.041  0.00  0.00    +0.000 HD
ENDBRANCH   5  11
ENDBRANCH   1   9
BRANCH   2  14
ATOM     14  C   UNL     1       1.899   7.883  19.095  0.00  0.00    +0.000 A 
ATOM     15  C   UNL     1       1.926   8.953  18.188  0.00  0.00    +0.000 A 
ATOM     16  C   UNL     1       1.442  10.206  18.553  0.00  0.00    +0.000 A 
ATOM     17  C   UNL     1       0.935  10.403  19.834  0.00  0.00    +0.000 A 
ATOM     18  C   UNL     1       0.899   9.346  20.760  0.00  0.00    +0.000 A 
ATOM     19  C   UNL     1       1.376   8.075  20.378  0.00  0.00    +0.000 A 
BRANCH  18  20
ATOM     20  C   UNL     1       0.388   9.579  22.162  0.00  0.00    +0.000 C 
ATOM     21  F   UNL     1      -0.701   8.824  22.479  0.00  0.00    +0.000 F 
ATOM     22  F   UNL     1       1.326   9.298  23.107  0.00  0.00    +0.000 F 
ATOM     23  F   UNL     1       0.019  10.872  22.373  0.00  0.00    +0.000 F 
ENDBRANCH  18  20
ENDBRANCH   2  14
TORSDOF 4
ENDMDL
MODEL 9
REMARK VINA RESULT:      -7.2      4.409      7.529
REMARK  Name = 
REMARK  4 active torsions:
REMARK  status: ('A' for Active; 'I' for Inactive)
REMARK    1  A    between atoms: N_1  and  C_2
REMARK    2  A    between atoms: C_6  and  N_7
REMARK    3  A    between atoms: C_8  and  C_10
REMARK    4  A    between atoms: C_14  and  C_15
REMARK                            x       y       z     vdW  Elec       q    Type
REMARK                         _______ _______ _______ _____ _____    ______ ____
ROOT
ATOM      1  N   UNL     1       4.775   4.724  15.582  0.00  0.00    +0.000 N 
ATOM      2  C   UNL     1       5.147   4.501  16.899  0.00  0.00    +0.000 C 
ATOM      3  O   UNL     1       6.272   4.193  17.285  0.00  0.00    +0.000 OA
ATOM      4  H   UNL     1       3.897   5.196  15.410  0.00  0.00    +0.000 HD
ENDROOT
BRANCH   1   9
ATOM      5  C   UNL     1       7.698   5.090  13.302  0.00  0.00    +0.000 A 
ATOM      6  C   UNL     1       7.361   4.201  12.280  0.00  0.00    +0.000 A 
ATOM      7  C   UNL     1       6.189   3.453  12.357  0.00  0.00    +0.000 A 
ATOM      8  C   UNL     1       5.332   3.613  13.443  0.00  0.00    +0.000 A 
ATOM      9  C   UNL     1       5.623   4.528  14.460  0.00  0.00    +0.000 A 
ATOM     10  C   UNL     1       6.793   5.295  14.354  0.00  0.00    +0.000 A 
BRANCH   5  11
ATOM     11  N   UNL     1       8.820   5.920  13.152  0.00  0.00    +0.000 N 
ATOM     12  H   UNL     1       9.287   6.126  14.032  0.00  0.00    +0.000 HD
ATOM     13  H   UNL     1       8.641   6.759  12.612  0.00  0.00    +0.000 HD
ENDBRANCH   5  11
ENDBRANCH   1   9
BRANCH   2  14
ATOM     14  C   UNL     1       4.117   4.699  17.953  0.00  0.00    +0.000 A 
ATOM     15  C   UNL     1       3.547   5.976  18.053  0.00  0.00    +0.000 A 
ATOM     16  C   UNL     1       2.671   6.284  19.091  0.00  0.00    +0.000 A 
ATOM     17  C   UNL     1       2.365   5.317  20.044  0.00  0.00    +0.000 A 
ATOM     18  C   UNL     1       2.926   4.030  19.964  0.00  0.00    +0.000 A 
ATOM     19  C   UNL     1       3.800   3.721  18.902  0.00  0.00    +0.000 A 
BRANCH  18  20
ATOM     20  C   UNL     1       2.623   3.000  21.027  0.00  0.00    +0.000 C 
ATOM     21  F   UNL     1       3.678   2.188  21.317  0.00  0.00    +0.000 F 
ATOM     22  F   UNL     1       2.254   3.570  22.207  0.00  0.00    +0.000 F 
ATOM     23  F   UNL     1       1.601   2.173  20.674  0.00  0.00    +0.000 F 
ENDBRANCH  18  20
ENDBRANCH   2  14
TORSDOF 4
ENDMDL
