MODEL 1
REMARK VINA RESULT:      -8.3      0.000      0.000
REMARK  Name = 
REMARK  7 active torsions:
REMARK  status: ('A' for Active; 'I' for Inactive)
REMARK    1  A    between atoms: C_2  and  C_3
REMARK    2  A    between atoms: C_7  and  C_8
REMARK    3  A    between atoms: C_14  and  C_15
REMARK    4  A    between atoms: C_15  and  C_17
REMARK    5  A    between atoms: C_20  and  O_21
REMARK    6  A    between atoms: O_21  and  C_22
REMARK    7  A    between atoms: C_24  and  C_25
REMARK                            x       y       z     vdW  Elec       q    Type
REMARK                         _______ _______ _______ _____ _____    ______ ____
ROOT
ATOM      1  C   UNL     1       4.603   3.799  19.000  0.00  0.00    +0.000 C 
ATOM      2  O   UNL     1       4.814   2.667  19.440  0.00  0.00    +0.000 OA
ATOM      3  N   UNL     1       3.529   4.588  19.461  0.00  0.00    +0.000 N 
ATOM      4  C   UNL     1       2.881   4.168  20.701  0.00  0.00    +0.000 C 
ATOM      5  C   UNL     1       1.395   4.503  20.715  0.00  0.00    +0.000 C 
ATOM      6  C   UNL     1       1.123   5.973  20.421  0.00  0.00    +0.000 C 
ATOM      7  C   UNL     1       1.873   6.484  19.192  0.00  0.00    +0.000 C 
ATOM      8  C   UNL     1       3.320   5.986  19.103  0.00  0.00    +0.000 C 
ENDROOT
BRANCH   1  13
ATOM      9  C   UNL     1       6.210   4.402  15.581  0.00  0.00    +0.000 A 
ATOM     10  C   UNL     1       7.352   5.109  15.953  0.00  0.00    +0.000 A 
ATOM     11  C   UNL     1       7.556   5.439  17.296  0.00  0.00    +0.000 A 
ATOM     12  C   UNL     1       6.649   5.007  18.269  0.00  0.00    +0.000 A 
ATOM     13  C   UNL     1       5.513   4.267  17.907  0.00  0.00    +0.000 A 
ATOM     14  C   UNL     1       5.267   4.043  16.548  0.00  0.00    +0.000 A 
BRANCH   9  16
ATOM     15  C   UNL     1       5.759   3.609  13.113  0.00  0.00    +0.000 C 
ATOM     16  C   UNL     1       6.012   3.974  14.228  0.00  0.00    +0.000 C 
ENDBRANCH   9  16
ENDBRANCH   1  13
BRANCH   7  17
ATOM     17  C   UNL     1       1.928   8.006  19.236  0.00  0.00    +0.000 C 
ATOM     18  O   UNL     1       2.700   8.594  18.469  0.00  0.00    +0.000 OA
BRANCH  17  19
ATOM     19  C   UNL     1       1.125   8.855  20.188  0.00  0.00    +0.000 A 
ATOM     20  C   UNL     1       1.455   8.662  21.550  0.00  0.00    +0.000 A 
ATOM     21  C   UNL     1       0.799   9.337  22.582  0.00  0.00    +0.000 A 
ATOM     22  C   UNL     1      -0.212  10.236  22.284  0.00  0.00    +0.000 A 
ATOM     23  C   UNL     1      -0.544  10.451  20.947  0.00  0.00    +0.000 A 
ATOM     24  C   UNL     1       0.105   9.779  19.882  0.00  0.00    +0.000 A 
ATOM     25  C   UNL     1      -0.379  10.151  18.509  0.00  0.00    +0.000 C 
BRANCH  22  26
ATOM     26  O   UNL     1      -0.807  10.833  23.358  0.00  0.00    +0.000 OA
ATOM     27  C   UNL     1      -1.674  11.925  23.069  0.00  0.00    +0.000 C 
ENDBRANCH  22  26
ENDBRANCH  17  19
ENDBRANCH   7  17
TORSDOF 5
ENDMDL
MODEL 2
REMARK VINA RESULT:      -7.9      0.864      1.968
REMARK  Name = 
REMARK  7 active torsions:
REMARK  status: ('A' for Active; 'I' for Inactive)
REMARK    1  A    between atoms: C_2  and  C_3
REMARK    2  A    between atoms: C_7  and  C_8
REMARK    3  A    between atoms: C_14  and  C_15
REMARK    4  A    between atoms: C_15  and  C_17
REMARK    5  A    between atoms: C_20  and  O_21
REMARK    6  A    between atoms: O_21  and  C_22
REMARK    7  A    between atoms: C_24  and  C_25
REMARK                            x       y       z     vdW  Elec       q    Type
REMARK                         _______ _______ _______ _____ _____    ______ ____
ROOT
ATOM      1  C   UNL     1       4.673   4.090  19.186  0.00  0.00    +0.000 C 
ATOM      2  O   UNL     1       4.900   2.959  19.620  0.00  0.00    +0.000 OA
ATOM      3  N   UNL     1       3.530   4.820  19.573  0.00  0.00    +0.000 N 
ATOM      4  C   UNL     1       2.804   4.343  20.747  0.00  0.00    +0.000 C 
ATOM      5  C   UNL     1       1.308   4.612  20.645  0.00  0.00    +0.000 C 
ATOM      6  C   UNL     1       0.992   6.075  20.359  0.00  0.00    +0.000 C 
ATOM      7  C   UNL     1       1.816   6.647  19.205  0.00  0.00    +0.000 C 
ATOM      8  C   UNL     1       3.287   6.216  19.226  0.00  0.00    +0.000 C 
ENDROOT
BRANCH   1  13
ATOM      9  C   UNL     1       7.217   6.290  17.362  0.00  0.00    +0.000 A 
ATOM     10  C   UNL     1       7.366   5.580  16.172  0.00  0.00    +0.000 A 
ATOM     11  C   UNL     1       6.693   4.367  15.999  0.00  0.00    +0.000 A 
ATOM     12  C   UNL     1       5.826   3.900  16.992  0.00  0.00    +0.000 A 
ATOM     13  C   UNL     1       5.646   4.623  18.181  0.00  0.00    +0.000 A 
ATOM     14  C   UNL     1       6.412   5.776  18.383  0.00  0.00    +0.000 A 
BRANCH   9  16
ATOM     15  C   UNL     1       8.248   8.687  17.696  0.00  0.00    +0.000 C 
ATOM     16  C   UNL     1       7.823   7.576  17.538  0.00  0.00    +0.000 C 
ENDBRANCH   9  16
ENDBRANCH   1  13
BRANCH   7  17
ATOM     17  C   UNL     1       1.797   8.168  19.283  0.00  0.00    +0.000 C 
ATOM     18  O   UNL     1       2.523   8.810  18.514  0.00  0.00    +0.000 OA
BRANCH  17  19
ATOM     19  C   UNL     1       0.974   8.956  20.270  0.00  0.00    +0.000 A 
ATOM     20  C   UNL     1       1.324   8.729  21.622  0.00  0.00    +0.000 A 
ATOM     21  C   UNL     1       0.655   9.345  22.682  0.00  0.00    +0.000 A 
ATOM     22  C   UNL     1      -0.391  10.216  22.424  0.00  0.00    +0.000 A 
ATOM     23  C   UNL     1      -0.744  10.463  21.097  0.00  0.00    +0.000 A 
ATOM     24  C   UNL     1      -0.082   9.852  20.004  0.00  0.00    +0.000 A 
ATOM     25  C   UNL     1      -0.593  10.251  18.650  0.00  0.00    +0.000 C 
BRANCH  22  26
ATOM     26  O   UNL     1      -0.997  10.755  23.523  0.00  0.00    +0.000 OA
ATOM     27  C   UNL     1      -2.073  11.652  23.270  0.00  0.00    +0.000 C 
ENDBRANCH  22  26
ENDBRANCH  17  19
ENDBRANCH   7  17
TORSDOF 5
ENDMDL
MODEL 3
REMARK VINA RESULT:      -7.8      1.943      3.099
REMARK  Name = 
REMARK  7 active torsions:
REMARK  status: ('A' for Active; 'I' for Inactive)
REMARK    1  A    between atoms: C_2  and  C_3
REMARK    2  A    between atoms: C_7  and  C_8
REMARK    3  A    between atoms: C_14  and  C_15
REMARK    4  A    between atoms: C_15  and  C_17
REMARK    5  A    between atoms: C_20  and  O_21
REMARK    6  A    between atoms: O_21  and  C_22
REMARK    7  A    between atoms: C_24  and  C_25
REMARK                            x       y       z     vdW  Elec       q    Type
REMARK                         _______ _______ _______ _____ _____    ______ ____
ROOT
ATOM      1  C   UNL     1       4.039   2.928  17.792  0.00  0.00    +0.000 C 
ATOM      2  O   UNL     1       4.143   1.713  17.607  0.00  0.00    +0.000 OA
ATOM      3  N   UNL     1       3.076   3.466  18.672  0.00  0.00    +0.000 N 
ATOM      4  C   UNL     1       2.438   2.540  19.603  0.00  0.00    +0.000 C 
ATOM      5  C   UNL     1       0.999   2.935  19.910  0.00  0.00    +0.000 C 
ATOM      6  C   UNL     1       0.876   4.374  20.393  0.00  0.00    +0.000 C 
ATOM      7  C   UNL     1       1.627   5.366  19.505  0.00  0.00    +0.000 C 
ATOM      8  C   UNL     1       3.006   4.870  19.058  0.00  0.00    +0.000 C 
ENDROOT
BRANCH   1  13
ATOM      9  C   UNL     1       6.569   5.602  16.751  0.00  0.00    +0.000 A 
ATOM     10  C   UNL     1       6.535   5.463  15.365  0.00  0.00    +0.000 A 
ATOM     11  C   UNL     1       5.746   4.464  14.787  0.00  0.00    +0.000 A 
ATOM     12  C   UNL     1       4.946   3.650  15.594  0.00  0.00    +0.000 A 
ATOM     13  C   UNL     1       4.949   3.803  16.989  0.00  0.00    +0.000 A 
ATOM     14  C   UNL     1       5.828   4.731  17.556  0.00  0.00    +0.000 A 
BRANCH   9  16
ATOM     15  C   UNL     1       7.850   7.557  17.958  0.00  0.00    +0.000 C 
ATOM     16  C   UNL     1       7.298   6.667  17.371  0.00  0.00    +0.000 C 
ENDBRANCH   9  16
ENDBRANCH   1  13
BRANCH   7  17
ATOM     17  C   UNL     1       1.848   6.661  20.277  0.00  0.00    +0.000 C 
ATOM     18  O   UNL     1       2.132   6.592  21.479  0.00  0.00    +0.000 OA
BRANCH  17  19
ATOM     19  C   UNL     1       1.704   8.038  19.682  0.00  0.00    +0.000 A 
ATOM     20  C   UNL     1       0.899   8.914  20.447  0.00  0.00    +0.000 A 
ATOM     21  C   UNL     1       0.625  10.223  20.043  0.00  0.00    +0.000 A 
ATOM     22  C   UNL     1       1.153  10.703  18.856  0.00  0.00    +0.000 A 
ATOM     23  C   UNL     1       1.960   9.859  18.093  0.00  0.00    +0.000 A 
ATOM     24  C   UNL     1       2.253   8.528  18.479  0.00  0.00    +0.000 A 
ATOM     25  C   UNL     1       3.150   7.778  17.538  0.00  0.00    +0.000 C 
BRANCH  22  26
ATOM     26  O   UNL     1       0.814  11.986  18.534  0.00  0.00    +0.000 OA
ATOM     27  C   UNL     1       1.897  12.890  18.336  0.00  0.00    +0.000 C 
ENDBRANCH  22  26
ENDBRANCH  17  19
ENDBRANCH   7  17
TORSDOF 5
ENDMDL
MODEL 4
REMARK VINA RESULT:      -7.8      2.564      5.539
REMARK  Name = 
REMARK  7 active torsions:
REMARK  status: ('A' for Active; 'I' for Inactive)
REMARK    1  A    between atoms: C_2  and  C_3
REMARK    2  A    between atoms: C_7  and  C_8
REMARK    3  A    between atoms: C_14  and  C_15
REMARK    4  A    between atoms: C_15  and  C_17
REMARK    5  A    between atoms: C_20  and  O_21
REMARK    6  A    between atoms: O_21  and  C_22
REMARK    7  A    between atoms: C_24  and  C_25
REMARK                            x       y       z     vdW  Elec       q    Type
REMARK                         _______ _______ _______ _____ _____    ______ ____
ROOT
ATOM      1  C   UNL     1       6.857   4.671  13.802  0.00  0.00    +0.000 C 
ATOM      2  O   UNL     1       7.891   5.233  13.436  0.00  0.00    +0.000 OA
ATOM      3  N   UNL     1       6.396   4.752  15.132  0.00  0.00    +0.000 N 
ATOM      4  C   UNL     1       6.988   5.786  15.977  0.00  0.00    +0.000 C 
ATOM      5  C   UNL     1       7.072   5.357  17.436  0.00  0.00    +0.000 C 
ATOM      6  C   UNL     1       5.731   4.894  17.990  0.00  0.00    +0.000 C 
ATOM      7  C   UNL     1       5.024   3.892  17.077  0.00  0.00    +0.000 C 
ATOM      8  C   UNL     1       5.105   4.251  15.589  0.00  0.00    +0.000 C 
ENDROOT
BRANCH   1  13
ATOM      9  C   UNL     1       4.470   3.522  11.041  0.00  0.00    +0.000 A 
ATOM     10  C   UNL     1       4.816   2.175  10.945  0.00  0.00    +0.000 A 
ATOM     11  C   UNL     1       5.860   1.670  11.725  0.00  0.00    +0.000 A 
ATOM     12  C   UNL     1       6.511   2.499  12.644  0.00  0.00    +0.000 A 
ATOM     13  C   UNL     1       6.149   3.848  12.771  0.00  0.00    +0.000 A 
ATOM     14  C   UNL     1       5.180   4.363  11.903  0.00  0.00    +0.000 A 
BRANCH   9  16
ATOM     15  C   UNL     1       2.466   4.494   9.642  0.00  0.00    +0.000 C 
ATOM     16  C   UNL     1       3.352   4.052  10.321  0.00  0.00    +0.000 C 
ENDBRANCH   9  16
ENDBRANCH   1  13
BRANCH   7  17
ATOM     17  C   UNL     1       3.545   3.840  17.442  0.00  0.00    +0.000 C 
ATOM     18  O   UNL     1       2.805   3.078  16.808  0.00  0.00    +0.000 OA
BRANCH  17  19
ATOM     19  C   UNL     1       2.905   4.691  18.509  0.00  0.00    +0.000 A 
ATOM     20  C   UNL     1       2.767   6.053  18.153  0.00  0.00    +0.000 A 
ATOM     21  C   UNL     1       2.224   7.002  19.021  0.00  0.00    +0.000 A 
ATOM     22  C   UNL     1       1.796   6.618  20.282  0.00  0.00    +0.000 A 
ATOM     23  C   UNL     1       1.912   5.277  20.648  0.00  0.00    +0.000 A 
ATOM     24  C   UNL     1       2.459   4.295  19.787  0.00  0.00    +0.000 A 
ATOM     25  C   UNL     1       2.489   2.904  20.350  0.00  0.00    +0.000 C 
BRANCH  22  26
ATOM     26  O   UNL     1       1.298   7.618  21.067  0.00  0.00    +0.000 OA
ATOM     27  C   UNL     1       1.133   8.886  20.440  0.00  0.00    +0.000 C 
ENDBRANCH  22  26
ENDBRANCH  17  19
ENDBRANCH   7  17
TORSDOF 5
ENDMDL
MODEL 5
REMARK VINA RESULT:      -7.7      1.278      2.082
REMARK  Name = 
REMARK  7 active torsions:
REMARK  status: ('A' for Active; 'I' for Inactive)
REMARK    1  A    between atoms: C_2  and  C_3
REMARK    2  A    between atoms: C_7  and  C_8
REMARK    3  A    between atoms: C_14  and  C_15
REMARK    4  A    between atoms: C_15  and  C_17
REMARK    5  A    between atoms: C_20  and  O_21
REMARK    6  A    between atoms: O_21  and  C_22
REMARK    7  A    between atoms: C_24  and  C_25
REMARK                            x       y       z     vdW  Elec       q    Type
REMARK                         _______ _______ _______ _____ _____    ______ ____
ROOT
ATOM      1  C   UNL     1       4.749   4.033  18.414  0.00  0.00    +0.000 C 
ATOM      2  O   UNL     1       5.030   2.955  18.940  0.00  0.00    +0.000 OA
ATOM      3  N   UNL     1       3.734   4.868  18.925  0.00  0.00    +0.000 N 
ATOM      4  C   UNL     1       3.259   4.583  20.276  0.00  0.00    +0.000 C 
ATOM      5  C   UNL     1       1.783   4.920  20.448  0.00  0.00    +0.000 C 
ATOM      6  C   UNL     1       1.455   6.350  20.039  0.00  0.00    +0.000 C 
ATOM      7  C   UNL     1       2.033   6.726  18.674  0.00  0.00    +0.000 C 
ATOM      8  C   UNL     1       3.462   6.220  18.451  0.00  0.00    +0.000 C 
ENDROOT
BRANCH   1  13
ATOM      9  C   UNL     1       5.859   4.309  14.763  0.00  0.00    +0.000 A 
ATOM     10  C   UNL     1       7.060   5.000  14.910  0.00  0.00    +0.000 A 
ATOM     11  C   UNL     1       7.465   5.425  16.178  0.00  0.00    +0.000 A 
ATOM     12  C   UNL     1       6.698   5.103  17.302  0.00  0.00    +0.000 A 
ATOM     13  C   UNL     1       5.503   4.381  17.168  0.00  0.00    +0.000 A 
ATOM     14  C   UNL     1       5.057   4.062  15.881  0.00  0.00    +0.000 A 
BRANCH   9  16
ATOM     15  C   UNL     1       5.166   3.414  12.388  0.00  0.00    +0.000 C 
ATOM     16  C   UNL     1       5.457   3.786  13.492  0.00  0.00    +0.000 C 
ENDBRANCH   9  16
ENDBRANCH   1  13
BRANCH   7  17
ATOM     17  C   UNL     1       2.072   8.244  18.549  0.00  0.00    +0.000 C 
ATOM     18  O   UNL     1       3.089   8.773  18.085  0.00  0.00    +0.000 OA
BRANCH  17  19
ATOM     19  C   UNL     1       0.961   9.160  18.994  0.00  0.00    +0.000 A 
ATOM     20  C   UNL     1       0.118   9.593  17.943  0.00  0.00    +0.000 A 
ATOM     21  C   UNL     1      -0.949  10.469  18.153  0.00  0.00    +0.000 A 
ATOM     22  C   UNL     1      -1.213  10.942  19.429  0.00  0.00    +0.000 A 
ATOM     23  C   UNL     1      -0.401  10.517  20.480  0.00  0.00    +0.000 A 
ATOM     24  C   UNL     1       0.688   9.630  20.295  0.00  0.00    +0.000 A 
ATOM     25  C   UNL     1       1.437   9.275  21.546  0.00  0.00    +0.000 C 
BRANCH  22  26
ATOM     26  O   UNL     1      -2.263  11.808  19.533  0.00  0.00    +0.000 OA
ATOM     27  C   UNL     1      -3.261  11.708  18.523  0.00  0.00    +0.000 C 
ENDBRANCH  22  26
ENDBRANCH  17  19
ENDBRANCH   7  17
TORSDOF 5
ENDMDL
MODEL 6
REMARK VINA RESULT:      -7.6      1.906      2.440
REMARK  Name = 
REMARK  7 active torsions:
REMARK  status: ('A' for Active; 'I' for Inactive)
REMARK    1  A    between atoms: C_2  and  C_3
REMARK    2  A    between atoms: C_7  and  C_8
REMARK    3  A    between atoms: C_14  and  C_15
REMARK    4  A    between atoms: C_15  and  C_17
REMARK    5  A    between atoms: C_20  and  O_21
REMARK    6  A    between atoms: O_21  and  C_22
REMARK    7  A    between atoms: C_24  and  C_25
REMARK                            x       y       z     vdW  Elec       q    Type
REMARK                         _______ _______ _______ _____ _____    ______ ____
ROOT
ATOM      1  C   UNL     1       3.979   2.743  17.984  0.00  0.00    +0.000 C 
ATOM      2  O   UNL     1       4.025   1.520  17.842  0.00  0.00    +0.000 OA
ATOM      3  N   UNL     1       3.011   3.361  18.803  0.00  0.00    +0.000 N 
ATOM      4  C   UNL     1       2.286   2.502  19.736  0.00  0.00    +0.000 C 
ATOM      5  C   UNL     1       0.859   2.983  19.968  0.00  0.00    +0.000 C 
ATOM      6  C   UNL     1       0.794   4.443  20.399  0.00  0.00    +0.000 C 
ATOM      7  C   UNL     1       1.634   5.363  19.513  0.00  0.00    +0.000 C 
ATOM      8  C   UNL     1       3.002   4.779  19.142  0.00  0.00    +0.000 C 
ENDROOT
BRANCH   1  13
ATOM      9  C   UNL     1       6.063   4.188  15.119  0.00  0.00    +0.000 A 
ATOM     10  C   UNL     1       6.937   5.012  15.826  0.00  0.00    +0.000 A 
ATOM     11  C   UNL     1       6.801   5.141  17.211  0.00  0.00    +0.000 A 
ATOM     12  C   UNL     1       5.831   4.398  17.892  0.00  0.00    +0.000 A 
ATOM     13  C   UNL     1       4.967   3.541  17.192  0.00  0.00    +0.000 A 
ATOM     14  C   UNL     1       5.044   3.511  15.796  0.00  0.00    +0.000 A 
BRANCH   9  16
ATOM     15  C   UNL     1       6.316   3.706  12.546  0.00  0.00    +0.000 C 
ATOM     16  C   UNL     1       6.228   3.966  13.714  0.00  0.00    +0.000 C 
ENDBRANCH   9  16
ENDBRANCH   1  13
BRANCH   7  17
ATOM     17  C   UNL     1       1.893   6.669  20.253  0.00  0.00    +0.000 C 
ATOM     18  O   UNL     1       2.223   6.620  21.444  0.00  0.00    +0.000 OA
BRANCH  17  19
ATOM     19  C   UNL     1       1.736   8.036  19.639  0.00  0.00    +0.000 A 
ATOM     20  C   UNL     1       0.925   8.916  20.393  0.00  0.00    +0.000 A 
ATOM     21  C   UNL     1       0.639  10.217  19.971  0.00  0.00    +0.000 A 
ATOM     22  C   UNL     1       1.160  10.685  18.776  0.00  0.00    +0.000 A 
ATOM     23  C   UNL     1       1.973   9.837  18.024  0.00  0.00    +0.000 A 
ATOM     24  C   UNL     1       2.279   8.514  18.428  0.00  0.00    +0.000 A 
ATOM     25  C   UNL     1       3.181   7.759  17.496  0.00  0.00    +0.000 C 
BRANCH  22  26
ATOM     26  O   UNL     1       0.810  11.960  18.438  0.00  0.00    +0.000 OA
ATOM     27  C   UNL     1       1.001  12.951  19.442  0.00  0.00    +0.000 C 
ENDBRANCH  22  26
ENDBRANCH  17  19
ENDBRANCH   7  17
TORSDOF 5
ENDMDL
MODEL 7
REMARK VINA RESULT:      -7.5      1.878      3.164
REMARK  Name = 
REMARK  7 active torsions:
REMARK  status: ('A' for Active; 'I' for Inactive)
REMARK    1  A    between atoms: C_2  and  C_3
REMARK    2  A    between atoms: C_7  and  C_8
REMARK    3  A    between atoms: C_14  and  C_15
REMARK    4  A    between atoms: C_15  and  C_17
REMARK    5  A    between atoms: C_20  and  O_21
REMARK    6  A    between atoms: O_21  and  C_22
REMARK    7  A    between atoms: C_24  and  C_25
REMARK                            x       y       z     vdW  Elec       q    Type
REMARK                         _______ _______ _______ _____ _____    ______ ____
ROOT
ATOM      1  C   UNL     1       4.030   2.981  17.780  0.00  0.00    +0.000 C 
ATOM      2  O   UNL     1       4.110   1.779  17.517  0.00  0.00    +0.000 OA
ATOM      3  N   UNL     1       3.037   3.490  18.642  0.00  0.00    +0.000 N 
ATOM      4  C   UNL     1       2.321   2.524  19.472  0.00  0.00    +0.000 C 
ATOM      5  C   UNL     1       0.880   2.945  19.729  0.00  0.00    +0.000 C 
ATOM      6  C   UNL     1       0.772   4.352  20.303  0.00  0.00    +0.000 C 
ATOM      7  C   UNL     1       1.600   5.376  19.526  0.00  0.00    +0.000 C 
ATOM      8  C   UNL     1       2.987   4.866  19.120  0.00  0.00    +0.000 C 
ENDROOT
BRANCH   1  13
ATOM      9  C   UNL     1       6.729   5.597  17.067  0.00  0.00    +0.000 A 
ATOM     10  C   UNL     1       6.727   5.597  15.673  0.00  0.00    +0.000 A 
ATOM     11  C   UNL     1       5.901   4.707  14.981  0.00  0.00    +0.000 A 
ATOM     12  C   UNL     1       5.036   3.863  15.685  0.00  0.00    +0.000 A 
ATOM     13  C   UNL     1       5.008   3.878  17.088  0.00  0.00    +0.000 A 
ATOM     14  C   UNL     1       5.921   4.695  17.765  0.00  0.00    +0.000 A 
BRANCH   9  16
ATOM     15  C   UNL     1       8.161   7.289  18.484  0.00  0.00    +0.000 C 
ATOM     16  C   UNL     1       7.498   6.553  17.806  0.00  0.00    +0.000 C 
ENDBRANCH   9  16
ENDBRANCH   1  13
BRANCH   7  17
ATOM     17  C   UNL     1       1.815   6.608  20.397  0.00  0.00    +0.000 C 
ATOM     18  O   UNL     1       2.250   6.453  21.545  0.00  0.00    +0.000 OA
BRANCH  17  19
ATOM     19  C   UNL     1       1.497   8.016  19.967  0.00  0.00    +0.000 A 
ATOM     20  C   UNL     1       2.080   8.387  18.732  0.00  0.00    +0.000 A 
ATOM     21  C   UNL     1       1.923   9.661  18.183  0.00  0.00    +0.000 A 
ATOM     22  C   UNL     1       1.171  10.613  18.852  0.00  0.00    +0.000 A 
ATOM     23  C   UNL     1       0.576  10.264  20.065  0.00  0.00    +0.000 A 
ATOM     24  C   UNL     1       0.720   8.979  20.644  0.00  0.00    +0.000 A 
ATOM     25  C   UNL     1      -0.005   8.786  21.945  0.00  0.00    +0.000 C 
BRANCH  22  26
ATOM     26  O   UNL     1       1.090  11.835  18.248  0.00  0.00    +0.000 OA
ATOM     27  C   UNL     1       2.305  12.570  18.154  0.00  0.00    +0.000 C 
ENDBRANCH  22  26
ENDBRANCH  17  19
ENDBRANCH   7  17
TORSDOF 5
ENDMDL
MODEL 8
REMARK VINA RESULT:      -7.4      2.340      5.109
REMARK  Name = 
REMARK  7 active torsions:
REMARK  status: ('A' for Active; 'I' for Inactive)
REMARK    1  A    between atoms: C_2  and  C_3
REMARK    2  A    between atoms: C_7  and  C_8
REMARK    3  A    between atoms: C_14  and  C_15
REMARK    4  A    between atoms: C_15  and  C_17
REMARK    5  A    between atoms: C_20  and  O_21
REMARK    6  A    between atoms: O_21  and  C_22
REMARK    7  A    between atoms: C_24  and  C_25
REMARK                            x       y       z     vdW  Elec       q    Type
REMARK                         _______ _______ _______ _____ _____    ______ ____
ROOT
ATOM      1  C   UNL     1       6.837   4.756  14.304  0.00  0.00    +0.000 C 
ATOM      2  O   UNL     1       7.928   5.207  13.947  0.00  0.00    +0.000 OA
ATOM      3  N   UNL     1       6.383   4.873  15.634  0.00  0.00    +0.000 N 
ATOM      4  C   UNL     1       7.080   5.829  16.491  0.00  0.00    +0.000 C 
ATOM      5  C   UNL     1       7.111   5.378  17.946  0.00  0.00    +0.000 C 
ATOM      6  C   UNL     1       5.726   5.057  18.491  0.00  0.00    +0.000 C 
ATOM      7  C   UNL     1       4.918   4.147  17.566  0.00  0.00    +0.000 C 
ATOM      8  C   UNL     1       5.044   4.510  16.083  0.00  0.00    +0.000 C 
ENDROOT
BRANCH   1  13
ATOM      9  C   UNL     1       5.587   2.095  11.856  0.00  0.00    +0.000 A 
ATOM     10  C   UNL     1       4.563   2.792  11.218  0.00  0.00    +0.000 A 
ATOM     11  C   UNL     1       4.245   4.089  11.630  0.00  0.00    +0.000 A 
ATOM     12  C   UNL     1       4.994   4.707  12.637  0.00  0.00    +0.000 A 
ATOM     13  C   UNL     1       6.048   4.025  13.263  0.00  0.00    +0.000 A 
ATOM     14  C   UNL     1       6.279   2.689  12.916  0.00  0.00    +0.000 A 
BRANCH   9  16
ATOM     15  C   UNL     1       6.278  -0.322  11.081  0.00  0.00    +0.000 C 
ATOM     16  C   UNL     1       5.995   0.799  11.402  0.00  0.00    +0.000 C 
ENDBRANCH   9  16
ENDBRANCH   1  13
BRANCH   7  17
ATOM     17  C   UNL     1       3.441   4.251  17.927  0.00  0.00    +0.000 C 
ATOM     18  O   UNL     1       2.689   3.319  17.617  0.00  0.00    +0.000 OA
BRANCH  17  19
ATOM     19  C   UNL     1       2.818   5.441  18.609  0.00  0.00    +0.000 A 
ATOM     20  C   UNL     1       2.693   6.580  17.780  0.00  0.00    +0.000 A 
ATOM     21  C   UNL     1       2.167   7.788  18.242  0.00  0.00    +0.000 A 
ATOM     22  C   UNL     1       1.741   7.898  19.555  0.00  0.00    +0.000 A 
ATOM     23  C   UNL     1       1.844   6.782  20.387  0.00  0.00    +0.000 A 
ATOM     24  C   UNL     1       2.374   5.546  19.944  0.00  0.00    +0.000 A 
ATOM     25  C   UNL     1       2.391   4.457  20.977  0.00  0.00    +0.000 C 
BRANCH  22  26
ATOM     26  O   UNL     1       1.259   9.122  19.921  0.00  0.00    +0.000 OA
ATOM     27  C   UNL     1       1.260  10.124  18.910  0.00  0.00    +0.000 C 
ENDBRANCH  22  26
ENDBRANCH  17  19
ENDBRANCH   7  17
TORSDOF 5
ENDMDL
MODEL 9
REMARK VINA RESULT:      -7.3      1.791      2.389
REMARK  Name = 
REMARK  7 active torsions:
REMARK  status: ('A' for Active; 'I' for Inactive)
REMARK    1  A    between atoms: C_2  and  C_3
REMARK    2  A    between atoms: C_7  and  C_8
REMARK    3  A    between atoms: C_14  and  C_15
REMARK    4  A    between atoms: C_15  and  C_17
REMARK    5  A    between atoms: C_20  and  O_21
REMARK    6  A    between atoms: O_21  and  C_22
REMARK    7  A    between atoms: C_24  and  C_25
REMARK                            x       y       z     vdW  Elec       q    Type
REMARK                         _______ _______ _______ _____ _____    ______ ____
ROOT
ATOM      1  C   UNL     1       3.914   2.813  17.924  0.00  0.00    +0.000 C 
ATOM      2  O   UNL     1       3.921   1.595  17.736  0.00  0.00    +0.000 OA
ATOM      3  N   UNL     1       2.959   3.432  18.758  0.00  0.00    +0.000 N 
ATOM      4  C   UNL     1       2.196   2.563  19.650  0.00  0.00    +0.000 C 
ATOM      5  C   UNL     1       0.783   3.083  19.887  0.00  0.00    +0.000 C 
ATOM      6  C   UNL     1       0.763   4.527  20.373  0.00  0.00    +0.000 C 
ATOM      7  C   UNL     1       1.642   5.451  19.530  0.00  0.00    +0.000 C 
ATOM      8  C   UNL     1       2.993   4.836  19.150  0.00  0.00    +0.000 C 
ENDROOT
BRANCH   1  13
ATOM      9  C   UNL     1       6.095   4.272  15.140  0.00  0.00    +0.000 A 
ATOM     10  C   UNL     1       6.967   5.064  15.884  0.00  0.00    +0.000 A 
ATOM     11  C   UNL     1       6.800   5.169  17.267  0.00  0.00    +0.000 A 
ATOM     12  C   UNL     1       5.800   4.432  17.910  0.00  0.00    +0.000 A 
ATOM     13  C   UNL     1       4.936   3.607  17.173  0.00  0.00    +0.000 A 
ATOM     14  C   UNL     1       5.047   3.602  15.778  0.00  0.00    +0.000 A 
BRANCH   9  16
ATOM     15  C   UNL     1       6.450   3.820  12.573  0.00  0.00    +0.000 C 
ATOM     16  C   UNL     1       6.290   4.074  13.735  0.00  0.00    +0.000 C 
ENDBRANCH   9  16
ENDBRANCH   1  13
BRANCH   7  17
ATOM     17  C   UNL     1       1.937   6.719  20.322  0.00  0.00    +0.000 C 
ATOM     18  O   UNL     1       2.581   6.624  21.374  0.00  0.00    +0.000 OA
BRANCH  17  19
ATOM     19  C   UNL     1       1.460   8.093  19.929  0.00  0.00    +0.000 A 
ATOM     20  C   UNL     1       1.943   8.532  18.674  0.00  0.00    +0.000 A 
ATOM     21  C   UNL     1       1.634   9.791  18.152  0.00  0.00    +0.000 A 
ATOM     22  C   UNL     1       0.825  10.656  18.871  0.00  0.00    +0.000 A 
ATOM     23  C   UNL     1       0.328  10.237  20.105  0.00  0.00    +0.000 A 
ATOM     24  C   UNL     1       0.626   8.967  20.657  0.00  0.00    +0.000 A 
ATOM     25  C   UNL     1      -0.011   8.689  21.988  0.00  0.00    +0.000 C 
BRANCH  22  26
ATOM     26  O   UNL     1       0.595  11.870  18.290  0.00  0.00    +0.000 OA
ATOM     27  C   UNL     1      -0.729  12.380  18.406  0.00  0.00    +0.000 C 
ENDBRANCH  22  26
ENDBRANCH  17  19
ENDBRANCH   7  17
TORSDOF 5
ENDMDL
