MODEL 1
REMARK VINA RESULT:      -8.3      0.000      0.000
REMARK  Name = 
REMARK  9 active torsions:
REMARK  status: ('A' for Active; 'I' for Inactive)
REMARK    1  A    between atoms: C_1  and  O_2
REMARK    2  A    between atoms: O_2  and  C_3
REMARK    3  A    between atoms: C_6  and  N_7
REMARK    4  A    between atoms: C_8  and  C_10
REMARK    5  A    between atoms: C_10  and  C_11
REMARK    6  A    between atoms: C_14  and  C_15
REMARK    7  A    between atoms: C_16  and  C_17
REMARK    8  A    between atoms: C_20  and  S_21
REMARK    9  A    between atoms: S_21  and  N_24
REMARK                            x       y       z     vdW  Elec       q    Type
REMARK                         _______ _______ _______ _____ _____    ______ ____
ROOT
ATOM      1  C   UNL     1       2.311   3.942  20.147  0.00  0.00    +0.000 A 
ATOM      2  C   UNL     1       1.313   4.787  20.662  0.00  0.00    +0.000 A 
ATOM      3  C   UNL     1       1.312   6.150  20.475  0.00  0.00    +0.000 A 
ATOM      4  C   UNL     1       2.276   6.736  19.695  0.00  0.00    +0.000 A 
ATOM      5  C   UNL     1       3.290   5.932  19.159  0.00  0.00    +0.000 A 
ATOM      6  C   UNL     1       3.330   4.527  19.387  0.00  0.00    +0.000 A 
ENDROOT
BRANCH   4   7
ATOM      7  N   UNL     1       2.234   8.104  19.447  0.00  0.00    +0.000 N 
ATOM      8  C   UNL     1       2.225   8.680  18.182  0.00  0.00    +0.000 C 
ATOM      9  O   UNL     1       2.305   8.080  17.098  0.00  0.00    +0.000 OA
ATOM     10  H   UNL     1       2.346   8.727  20.241  0.00  0.00    +0.000 HD
BRANCH   8  11
ATOM     11  C   UNL     1       2.157  10.175  18.198  0.00  0.00    +0.000 C 
BRANCH  11  12
ATOM     12  C   UNL     1       0.782  10.671  18.560  0.00  0.00    +0.000 A 
ATOM     13  C   UNL     1       0.635  11.748  19.432  0.00  0.00    +0.000 A 
ATOM     14  C   UNL     1      -0.636  12.217  19.758  0.00  0.00    +0.000 A 
ATOM     15  C   UNL     1      -1.790  11.630  19.213  0.00  0.00    +0.000 A 
ATOM     16  C   UNL     1      -3.133  12.202  19.569  0.00  0.00    +0.000 C 
ATOM     17  C   UNL     1      -1.654  10.541  18.333  0.00  0.00    +0.000 A 
ATOM     18  C   UNL     1      -2.820   9.866  17.663  0.00  0.00    +0.000 C 
ATOM     19  C   UNL     1      -0.364  10.070  18.024  0.00  0.00    +0.000 A 
ENDBRANCH  11  12
ENDBRANCH   8  11
ENDBRANCH   4   7
BRANCH   6  20
ATOM     20  S   UNL     1       4.771   3.763  18.640  0.00  0.00    +0.000 S 
ATOM     21  O   UNL     1       5.322   2.908  19.677  0.00  0.00    +0.000 OA
ATOM     22  O   UNL     1       4.290   3.173  17.404  0.00  0.00    +0.000 OA
BRANCH  20  23
ATOM     23  N   UNL     1       5.970   4.881  18.229  0.00  0.00    +0.000 NA
ATOM     24  C   UNL     1       6.034   5.367  16.848  0.00  0.00    +0.000 C 
ATOM     25  C   UNL     1       6.907   6.587  16.577  0.00  0.00    +0.000 C 
ATOM     26  C   UNL     1       7.520   7.300  17.766  0.00  0.00    +0.000 C 
ATOM     27  C   UNL     1       7.893   6.367  18.893  0.00  0.00    +0.000 C 
ATOM     28  C   UNL     1       6.795   5.410  19.312  0.00  0.00    +0.000 C 
ENDBRANCH  20  23
ENDBRANCH   6  20
BRANCH   1  30
ATOM     29  C   UNL     1       1.576   1.872  19.339  0.00  0.00    +0.000 C 
ATOM     30  O   UNL     1       2.220   2.598  20.405  0.00  0.00    +0.000 OA
ENDBRANCH   1  30
TORSDOF 6
ENDMDL
MODEL 2
REMARK VINA RESULT:      -8.1      1.161      1.697
REMARK  Name = 
REMARK  9 active torsions:
REMARK  status: ('A' for Active; 'I' for Inactive)
REMARK    1  A    between atoms: C_1  and  O_2
REMARK    2  A    between atoms: O_2  and  C_3
REMARK    3  A    between atoms: C_6  and  N_7
REMARK    4  A    between atoms: C_8  and  C_10
REMARK    5  A    between atoms: C_10  and  C_11
REMARK    6  A    between atoms: C_14  and  C_15
REMARK    7  A    between atoms: C_16  and  C_17
REMARK    8  A    between atoms: C_20  and  S_21
REMARK    9  A    between atoms: S_21  and  N_24
REMARK                            x       y       z     vdW  Elec       q    Type
REMARK                         _______ _______ _______ _____ _____    ______ ____
ROOT
ATOM      1  C   UNL     1       2.701   4.228  20.493  0.00  0.00    +0.000 A 
ATOM      2  C   UNL     1       1.713   5.076  21.023  0.00  0.00    +0.000 A 
ATOM      3  C   UNL     1       1.491   6.351  20.561  0.00  0.00    +0.000 A 
ATOM      4  C   UNL     1       2.200   6.825  19.486  0.00  0.00    +0.000 A 
ATOM      5  C   UNL     1       3.193   6.014  18.924  0.00  0.00    +0.000 A 
ATOM      6  C   UNL     1       3.468   4.710  19.426  0.00  0.00    +0.000 A 
ENDROOT
BRANCH   4   7
ATOM      7  N   UNL     1       1.924   8.089  18.974  0.00  0.00    +0.000 N 
ATOM      8  C   UNL     1       1.327   9.120  19.688  0.00  0.00    +0.000 C 
ATOM      9  O   UNL     1       0.904   9.061  20.855  0.00  0.00    +0.000 OA
ATOM     10  H   UNL     1       2.052   8.227  17.976  0.00  0.00    +0.000 HD
BRANCH   8  11
ATOM     11  C   UNL     1       1.163  10.385  18.905  0.00  0.00    +0.000 C 
BRANCH  11  12
ATOM     12  C   UNL     1      -0.286  10.715  18.667  0.00  0.00    +0.000 A 
ATOM     13  C   UNL     1      -0.993  10.068  17.656  0.00  0.00    +0.000 A 
ATOM     14  C   UNL     1      -2.339  10.361  17.444  0.00  0.00    +0.000 A 
ATOM     15  C   UNL     1      -3.014  11.299  18.243  0.00  0.00    +0.000 A 
ATOM     16  C   UNL     1      -4.475  11.547  17.995  0.00  0.00    +0.000 C 
ATOM     17  C   UNL     1      -2.310  11.959  19.267  0.00  0.00    +0.000 A 
ATOM     18  C   UNL     1      -2.946  12.949  20.205  0.00  0.00    +0.000 C 
ATOM     19  C   UNL     1      -0.948  11.662  19.460  0.00  0.00    +0.000 A 
ENDBRANCH  11  12
ENDBRANCH   8  11
ENDBRANCH   4   7
BRANCH   6  20
ATOM     20  S   UNL     1       4.831   3.928  18.562  0.00  0.00    +0.000 S 
ATOM     21  O   UNL     1       5.376   2.971  19.509  0.00  0.00    +0.000 OA
ATOM     22  O   UNL     1       4.266   3.457  17.310  0.00  0.00    +0.000 OA
BRANCH  20  23
ATOM     23  N   UNL     1       6.073   5.008  18.177  0.00  0.00    +0.000 NA
ATOM     24  C   UNL     1       6.192   5.477  16.794  0.00  0.00    +0.000 C 
ATOM     25  C   UNL     1       7.107   6.670  16.538  0.00  0.00    +0.000 C 
ATOM     26  C   UNL     1       7.704   7.377  17.739  0.00  0.00    +0.000 C 
ATOM     27  C   UNL     1       8.016   6.446  18.885  0.00  0.00    +0.000 C 
ATOM     28  C   UNL     1       6.880   5.525  19.280  0.00  0.00    +0.000 C 
ENDBRANCH  20  23
ENDBRANCH   6  20
BRANCH   1  30
ATOM     29  C   UNL     1       1.654   2.528  21.714  0.00  0.00    +0.000 C 
ATOM     30  O   UNL     1       2.846   2.978  21.040  0.00  0.00    +0.000 OA
ENDBRANCH   1  30
TORSDOF 6
ENDMDL
MODEL 3
REMARK VINA RESULT:      -8.0      1.168      1.803
REMARK  Name = 
REMARK  9 active torsions:
REMARK  status: ('A' for Active; 'I' for Inactive)
REMARK    1  A    between atoms: C_1  and  O_2
REMARK    2  A    between atoms: O_2  and  C_3
REMARK    3  A    between atoms: C_6  and  N_7
REMARK    4  A    between atoms: C_8  and  C_10
REMARK    5  A    between atoms: C_10  and  C_11
REMARK    6  A    between atoms: C_14  and  C_15
REMARK    7  A    between atoms: C_16  and  C_17
REMARK    8  A    between atoms: C_20  and  S_21
REMARK    9  A    between atoms: S_21  and  N_24
REMARK                            x       y       z     vdW  Elec       q    Type
REMARK                         _______ _______ _______ _____ _____    ______ ____
ROOT
ATOM      1  C   UNL     1       2.635   4.036  20.045  0.00  0.00    +0.000 A 
ATOM      2  C   UNL     1       1.412   4.615  20.423  0.00  0.00    +0.000 A 
ATOM      3  C   UNL     1       1.179   5.970  20.385  0.00  0.00    +0.000 A 
ATOM      4  C   UNL     1       2.138   6.818  19.892  0.00  0.00    +0.000 A 
ATOM      5  C   UNL     1       3.372   6.284  19.501  0.00  0.00    +0.000 A 
ATOM      6  C   UNL     1       3.644   4.889  19.583  0.00  0.00    +0.000 A 
ENDROOT
BRANCH   4   7
ATOM      7  N   UNL     1       1.875   8.180  19.786  0.00  0.00    +0.000 N 
ATOM      8  C   UNL     1       1.772   8.876  18.588  0.00  0.00    +0.000 C 
ATOM      9  O   UNL     1       1.947   8.413  17.448  0.00  0.00    +0.000 OA
ATOM     10  H   UNL     1       1.885   8.726  20.642  0.00  0.00    +0.000 HD
BRANCH   8  11
ATOM     11  C   UNL     1       1.463  10.331  18.757  0.00  0.00    +0.000 C 
BRANCH  11  12
ATOM     12  C   UNL     1      -0.012  10.609  18.636  0.00  0.00    +0.000 A 
ATOM     13  C   UNL     1      -0.643  11.443  19.556  0.00  0.00    +0.000 A 
ATOM     14  C   UNL     1      -2.006  11.713  19.438  0.00  0.00    +0.000 A 
ATOM     15  C   UNL     1      -2.768  11.166  18.392  0.00  0.00    +0.000 A 
ATOM     16  C   UNL     1      -4.223  11.523  18.291  0.00  0.00    +0.000 C 
ATOM     17  C   UNL     1      -2.141  10.321  17.458  0.00  0.00    +0.000 A 
ATOM     18  C   UNL     1      -2.854   9.716  16.279  0.00  0.00    +0.000 C 
ATOM     19  C   UNL     1      -0.768  10.047  17.599  0.00  0.00    +0.000 A 
ENDBRANCH  11  12
ENDBRANCH   8  11
ENDBRANCH   4   7
BRANCH   6  20
ATOM     20  S   UNL     1       5.321   4.498  19.081  0.00  0.00    +0.000 S 
ATOM     21  O   UNL     1       6.155   5.463  19.774  0.00  0.00    +0.000 OA
ATOM     22  O   UNL     1       5.480   3.082  19.359  0.00  0.00    +0.000 OA
BRANCH  20  23
ATOM     23  N   UNL     1       5.581   4.716  17.425  0.00  0.00    +0.000 NA
ATOM     24  C   UNL     1       6.667   5.601  16.995  0.00  0.00    +0.000 C 
ATOM     25  C   UNL     1       7.078   5.539  15.528  0.00  0.00    +0.000 C 
ATOM     26  C   UNL     1       6.447   4.470  14.659  0.00  0.00    +0.000 C 
ATOM     27  C   UNL     1       5.017   4.164  15.033  0.00  0.00    +0.000 C 
ATOM     28  C   UNL     1       4.792   3.897  16.508  0.00  0.00    +0.000 C 
ENDBRANCH  20  23
ENDBRANCH   6  20
BRANCH   1  30
ATOM     29  C   UNL     1       1.867   1.974  19.250  0.00  0.00    +0.000 C 
ATOM     30  O   UNL     1       2.764   2.673  20.136  0.00  0.00    +0.000 OA
ENDBRANCH   1  30
TORSDOF 6
ENDMDL
MODEL 4
REMARK VINA RESULT:      -8.0      1.520      2.368
REMARK  Name = 
REMARK  9 active torsions:
REMARK  status: ('A' for Active; 'I' for Inactive)
REMARK    1  A    between atoms: C_1  and  O_2
REMARK    2  A    between atoms: O_2  and  C_3
REMARK    3  A    between atoms: C_6  and  N_7
REMARK    4  A    between atoms: C_8  and  C_10
REMARK    5  A    between atoms: C_10  and  C_11
REMARK    6  A    between atoms: C_14  and  C_15
REMARK    7  A    between atoms: C_16  and  C_17
REMARK    8  A    between atoms: C_20  and  S_21
REMARK    9  A    between atoms: S_21  and  N_24
REMARK                            x       y       z     vdW  Elec       q    Type
REMARK                         _______ _______ _______ _____ _____    ______ ____
ROOT
ATOM      1  C   UNL     1       2.826   4.238  20.386  0.00  0.00    +0.000 A 
ATOM      2  C   UNL     1       1.630   4.915  20.685  0.00  0.00    +0.000 A 
ATOM      3  C   UNL     1       1.379   6.207  20.288  0.00  0.00    +0.000 A 
ATOM      4  C   UNL     1       2.285   6.871  19.502  0.00  0.00    +0.000 A 
ATOM      5  C   UNL     1       3.490   6.236  19.177  0.00  0.00    +0.000 A 
ATOM      6  C   UNL     1       3.784   4.916  19.624  0.00  0.00    +0.000 A 
ENDROOT
BRANCH   4   7
ATOM      7  N   UNL     1       1.999   8.153  19.041  0.00  0.00    +0.000 N 
ATOM      8  C   UNL     1       1.305   9.117  19.762  0.00  0.00    +0.000 C 
ATOM      9  O   UNL     1       0.795   8.973  20.886  0.00  0.00    +0.000 OA
ATOM     10  H   UNL     1       2.199   8.355  18.066  0.00  0.00    +0.000 HD
BRANCH   8  11
ATOM     11  C   UNL     1       1.151  10.419  19.041  0.00  0.00    +0.000 C 
BRANCH  11  12
ATOM     12  C   UNL     1      -0.293  10.732  18.750  0.00  0.00    +0.000 A 
ATOM     13  C   UNL     1      -0.949  10.092  17.702  0.00  0.00    +0.000 A 
ATOM     14  C   UNL     1      -2.290  10.370  17.440  0.00  0.00    +0.000 A 
ATOM     15  C   UNL     1      -3.010  11.286  18.225  0.00  0.00    +0.000 A 
ATOM     16  C   UNL     1      -4.463  11.517  17.922  0.00  0.00    +0.000 C 
ATOM     17  C   UNL     1      -2.357  11.939  19.286  0.00  0.00    +0.000 A 
ATOM     18  C   UNL     1      -3.044  12.907  20.212  0.00  0.00    +0.000 C 
ATOM     19  C   UNL     1      -0.999  11.659  19.529  0.00  0.00    +0.000 A 
ENDBRANCH  11  12
ENDBRANCH   8  11
ENDBRANCH   4   7
BRANCH   6  20
ATOM     20  S   UNL     1       5.419   4.381  19.117  0.00  0.00    +0.000 S 
ATOM     21  O   UNL     1       6.336   5.253  19.829  0.00  0.00    +0.000 OA
ATOM     22  O   UNL     1       5.446   2.952  19.371  0.00  0.00    +0.000 OA
BRANCH  20  23
ATOM     23  N   UNL     1       5.703   4.603  17.466  0.00  0.00    +0.000 NA
ATOM     24  C   UNL     1       6.956   5.238  17.048  0.00  0.00    +0.000 C 
ATOM     25  C   UNL     1       7.325   5.147  15.572  0.00  0.00    +0.000 C 
ATOM     26  C   UNL     1       6.461   4.283  14.676  0.00  0.00    +0.000 C 
ATOM     27  C   UNL     1       5.002   4.291  15.067  0.00  0.00    +0.000 C 
ATOM     28  C   UNL     1       4.740   4.021  16.535  0.00  0.00    +0.000 C 
ENDBRANCH  20  23
ENDBRANCH   6  20
BRANCH   1  30
ATOM     29  C   UNL     1       1.888   2.538  21.692  0.00  0.00    +0.000 C 
ATOM     30  O   UNL     1       2.977   2.953  20.844  0.00  0.00    +0.000 OA
ENDBRANCH   1  30
TORSDOF 6
ENDMDL
MODEL 5
REMARK VINA RESULT:      -7.9      1.241      1.365
REMARK  Name = 
REMARK  9 active torsions:
REMARK  status: ('A' for Active; 'I' for Inactive)
REMARK    1  A    between atoms: C_1  and  O_2
REMARK    2  A    between atoms: O_2  and  C_3
REMARK    3  A    between atoms: C_6  and  N_7
REMARK    4  A    between atoms: C_8  and  C_10
REMARK    5  A    between atoms: C_10  and  C_11
REMARK    6  A    between atoms: C_14  and  C_15
REMARK    7  A    between atoms: C_16  and  C_17
REMARK    8  A    between atoms: C_20  and  S_21
REMARK    9  A    between atoms: S_21  and  N_24
REMARK                            x       y       z     vdW  Elec       q    Type
REMARK                         _______ _______ _______ _____ _____    ______ ____
ROOT
ATOM      1  C   UNL     1       2.686   4.198  20.181  0.00  0.00    +0.000 A 
ATOM      2  C   UNL     1       1.729   4.967  20.865  0.00  0.00    +0.000 A 
ATOM      3  C   UNL     1       1.507   6.298  20.601  0.00  0.00    +0.000 A 
ATOM      4  C   UNL     1       2.183   6.918  19.582  0.00  0.00    +0.000 A 
ATOM      5  C   UNL     1       3.146   6.191  18.872  0.00  0.00    +0.000 A 
ATOM      6  C   UNL     1       3.421   4.825  19.168  0.00  0.00    +0.000 A 
ENDROOT
BRANCH   4   7
ATOM      7  N   UNL     1       1.906   8.245  19.269  0.00  0.00    +0.000 N 
ATOM      8  C   UNL     1       1.093   9.083  20.022  0.00  0.00    +0.000 C 
ATOM      9  O   UNL     1       0.456   8.772  21.042  0.00  0.00    +0.000 OA
ATOM     10  H   UNL     1       2.215   8.587  18.364  0.00  0.00    +0.000 HD
BRANCH   8  11
ATOM     11  C   UNL     1       0.979  10.471  19.473  0.00  0.00    +0.000 C 
BRANCH  11  12
ATOM     12  C   UNL     1      -0.418  10.773  18.998  0.00  0.00    +0.000 A 
ATOM     13  C   UNL     1      -1.206  11.692  19.686  0.00  0.00    +0.000 A 
ATOM     14  C   UNL     1      -2.494  11.984  19.240  0.00  0.00    +0.000 A 
ATOM     15  C   UNL     1      -3.022  11.372  18.090  0.00  0.00    +0.000 A 
ATOM     16  C   UNL     1      -4.401  11.754  17.633  0.00  0.00    +0.000 C 
ATOM     17  C   UNL     1      -2.235  10.441  17.388  0.00  0.00    +0.000 A 
ATOM     18  C   UNL     1      -2.687   9.760  16.124  0.00  0.00    +0.000 C 
ATOM     19  C   UNL     1      -0.941  10.147  17.859  0.00  0.00    +0.000 A 
ENDBRANCH  11  12
ENDBRANCH   8  11
ENDBRANCH   4   7
BRANCH   6  20
ATOM     20  S   UNL     1       4.743   4.167  18.150  0.00  0.00    +0.000 S 
ATOM     21  O   UNL     1       5.199   2.979  18.850  0.00  0.00    +0.000 OA
ATOM     22  O   UNL     1       4.171   4.042  16.821  0.00  0.00    +0.000 OA
BRANCH  20  23
ATOM     23  N   UNL     1       6.065   5.212  18.031  0.00  0.00    +0.000 NA
ATOM     24  C   UNL     1       6.304   5.902  16.760  0.00  0.00    +0.000 C 
ATOM     25  C   UNL     1       7.298   7.058  16.770  0.00  0.00    +0.000 C 
ATOM     26  C   UNL     1       7.850   7.509  18.107  0.00  0.00    +0.000 C 
ATOM     27  C   UNL     1       8.033   6.377  19.089  0.00  0.00    +0.000 C 
ATOM     28  C   UNL     1       6.823   5.479  19.252  0.00  0.00    +0.000 C 
ENDBRANCH  20  23
ENDBRANCH   6  20
BRANCH   1  30
ATOM     29  C   UNL     1       1.938   2.012  19.815  0.00  0.00    +0.000 C 
ATOM     30  O   UNL     1       2.835   2.881  20.535  0.00  0.00    +0.000 OA
ENDBRANCH   1  30
TORSDOF 6
ENDMDL
MODEL 6
REMARK VINA RESULT:      -7.9      2.470      3.409
REMARK  Name = 
REMARK  9 active torsions:
REMARK  status: ('A' for Active; 'I' for Inactive)
REMARK    1  A    between atoms: C_1  and  O_2
REMARK    2  A    between atoms: O_2  and  C_3
REMARK    3  A    between atoms: C_6  and  N_7
REMARK    4  A    between atoms: C_8  and  C_10
REMARK    5  A    between atoms: C_10  and  C_11
REMARK    6  A    between atoms: C_14  and  C_15
REMARK    7  A    between atoms: C_16  and  C_17
REMARK    8  A    between atoms: C_20  and  S_21
REMARK    9  A    between atoms: S_21  and  N_24
REMARK                            x       y       z     vdW  Elec       q    Type
REMARK                         _______ _______ _______ _____ _____    ______ ____
ROOT
ATOM      1  C   UNL     1       3.874   4.441  17.549  0.00  0.00    +0.000 A 
ATOM      2  C   UNL     1       2.621   4.778  18.089  0.00  0.00    +0.000 A 
ATOM      3  C   UNL     1       2.177   6.074  18.206  0.00  0.00    +0.000 A 
ATOM      4  C   UNL     1       2.937   7.106  17.717  0.00  0.00    +0.000 A 
ATOM      5  C   UNL     1       4.192   6.818  17.168  0.00  0.00    +0.000 A 
ATOM      6  C   UNL     1       4.685   5.484  17.087  0.00  0.00    +0.000 A 
ENDROOT
BRANCH   4   7
ATOM      7  N   UNL     1       2.456   8.410  17.771  0.00  0.00    +0.000 N 
ATOM      8  C   UNL     1       1.794   8.966  18.859  0.00  0.00    +0.000 C 
ATOM      9  O   UNL     1       1.486   8.383  19.911  0.00  0.00    +0.000 OA
ATOM     10  H   UNL     1       2.477   8.953  16.913  0.00  0.00    +0.000 HD
BRANCH   8  11
ATOM     11  C   UNL     1       1.399  10.397  18.663  0.00  0.00    +0.000 C 
BRANCH  11  12
ATOM     12  C   UNL     1      -0.085  10.547  18.464  0.00  0.00    +0.000 A 
ATOM     13  C   UNL     1      -0.747   9.764  17.521  0.00  0.00    +0.000 A 
ATOM     14  C   UNL     1      -2.124   9.892  17.345  0.00  0.00    +0.000 A 
ATOM     15  C   UNL     1      -2.875  10.796  18.115  0.00  0.00    +0.000 A 
ATOM     16  C   UNL     1      -4.361  10.863  17.911  0.00  0.00    +0.000 C 
ATOM     17  C   UNL     1      -2.217  11.592  19.070  0.00  0.00    +0.000 A 
ATOM     18  C   UNL     1      -2.930  12.561  19.974  0.00  0.00    +0.000 C 
ATOM     19  C   UNL     1      -0.824  11.462  19.226  0.00  0.00    +0.000 A 
ENDBRANCH  11  12
ENDBRANCH   8  11
ENDBRANCH   4   7
BRANCH   6  20
ATOM     20  S   UNL     1       6.342   5.417  16.403  0.00  0.00    +0.000 S 
ATOM     21  O   UNL     1       6.838   6.779  16.488  0.00  0.00    +0.000 OA
ATOM     22  O   UNL     1       7.013   4.361  17.139  0.00  0.00    +0.000 OA
BRANCH  20  23
ATOM     23  N   UNL     1       6.363   4.982  14.770  0.00  0.00    +0.000 NA
ATOM     24  C   UNL     1       7.505   5.395  13.948  0.00  0.00    +0.000 C 
ATOM     25  C   UNL     1       7.654   4.737  12.581  0.00  0.00    +0.000 C 
ATOM     26  C   UNL     1       6.710   3.604  12.232  0.00  0.00    +0.000 C 
ATOM     27  C   UNL     1       5.329   3.776  12.815  0.00  0.00    +0.000 C 
ATOM     28  C   UNL     1       5.303   4.095  14.296  0.00  0.00    +0.000 C 
ENDBRANCH  20  23
ENDBRANCH   6  20
BRANCH   1  30
ATOM     29  C   UNL     1       3.125   2.242  17.831  0.00  0.00    +0.000 C 
ATOM     30  O   UNL     1       4.221   3.115  17.492  0.00  0.00    +0.000 OA
ENDBRANCH   1  30
TORSDOF 6
ENDMDL
MODEL 7
REMARK VINA RESULT:      -7.9      2.466      3.207
REMARK  Name = 
REMARK  9 active torsions:
REMARK  status: ('A' for Active; 'I' for Inactive)
REMARK    1  A    between atoms: C_1  and  O_2
REMARK    2  A    between atoms: O_2  and  C_3
REMARK    3  A    between atoms: C_6  and  N_7
REMARK    4  A    between atoms: C_8  and  C_10
REMARK    5  A    between atoms: C_10  and  C_11
REMARK    6  A    between atoms: C_14  and  C_15
REMARK    7  A    between atoms: C_16  and  C_17
REMARK    8  A    between atoms: C_20  and  S_21
REMARK    9  A    between atoms: S_21  and  N_24
REMARK                            x       y       z     vdW  Elec       q    Type
REMARK                         _______ _______ _______ _____ _____    ______ ____
ROOT
ATOM      1  C   UNL     1       3.927   4.539  17.642  0.00  0.00    +0.000 A 
ATOM      2  C   UNL     1       2.690   4.917  18.193  0.00  0.00    +0.000 A 
ATOM      3  C   UNL     1       2.273   6.225  18.277  0.00  0.00    +0.000 A 
ATOM      4  C   UNL     1       3.043   7.226  17.743  0.00  0.00    +0.000 A 
ATOM      5  C   UNL     1       4.283   6.897  17.182  0.00  0.00    +0.000 A 
ATOM      6  C   UNL     1       4.748   5.552  17.134  0.00  0.00    +0.000 A 
ENDROOT
BRANCH   4   7
ATOM      7  N   UNL     1       2.587   8.540  17.764  0.00  0.00    +0.000 N 
ATOM      8  C   UNL     1       1.822   9.097  18.782  0.00  0.00    +0.000 C 
ATOM      9  O   UNL     1       1.387   8.507  19.785  0.00  0.00    +0.000 OA
ATOM     10  H   UNL     1       2.715   9.094  16.923  0.00  0.00    +0.000 HD
BRANCH   8  11
ATOM     11  C   UNL     1       1.482  10.539  18.567  0.00  0.00    +0.000 C 
BRANCH  11  12
ATOM     12  C   UNL     1      -0.005  10.762  18.509  0.00  0.00    +0.000 A 
ATOM     13  C   UNL     1      -0.617  11.625  19.416  0.00  0.00    +0.000 A 
ATOM     14  C   UNL     1      -1.993  11.845  19.356  0.00  0.00    +0.000 A 
ATOM     15  C   UNL     1      -2.788  11.217  18.382  0.00  0.00    +0.000 A 
ATOM     16  C   UNL     1      -4.258  11.521  18.340  0.00  0.00    +0.000 C 
ATOM     17  C   UNL     1      -2.181  10.343  17.463  0.00  0.00    +0.000 A 
ATOM     18  C   UNL     1      -2.931   9.651  16.357  0.00  0.00    +0.000 C 
ATOM     19  C   UNL     1      -0.793  10.120  17.545  0.00  0.00    +0.000 A 
ENDBRANCH  11  12
ENDBRANCH   8  11
ENDBRANCH   4   7
BRANCH   6  20
ATOM     20  S   UNL     1       6.391   5.432  16.424  0.00  0.00    +0.000 S 
ATOM     21  O   UNL     1       6.929   6.780  16.493  0.00  0.00    +0.000 OA
ATOM     22  O   UNL     1       7.043   4.361  17.155  0.00  0.00    +0.000 OA
BRANCH  20  23
ATOM     23  N   UNL     1       6.373   4.988  14.793  0.00  0.00    +0.000 NA
ATOM     24  C   UNL     1       7.461   5.451  13.927  0.00  0.00    +0.000 C 
ATOM     25  C   UNL     1       7.591   4.793  12.558  0.00  0.00    +0.000 C 
ATOM     26  C   UNL     1       6.695   3.611  12.251  0.00  0.00    +0.000 C 
ATOM     27  C   UNL     1       5.329   3.717  12.885  0.00  0.00    +0.000 C 
ATOM     28  C   UNL     1       5.343   4.045  14.365  0.00  0.00    +0.000 C 
ENDBRANCH  20  23
ENDBRANCH   6  20
BRANCH   1  30
ATOM     29  C   UNL     1       4.015   2.562  18.889  0.00  0.00    +0.000 C 
ATOM     30  O   UNL     1       4.248   3.206  17.621  0.00  0.00    +0.000 OA
ENDBRANCH   1  30
TORSDOF 6
ENDMDL
MODEL 8
REMARK VINA RESULT:      -7.9      0.578      1.479
REMARK  Name = 
REMARK  9 active torsions:
REMARK  status: ('A' for Active; 'I' for Inactive)
REMARK    1  A    between atoms: C_1  and  O_2
REMARK    2  A    between atoms: O_2  and  C_3
REMARK    3  A    between atoms: C_6  and  N_7
REMARK    4  A    between atoms: C_8  and  C_10
REMARK    5  A    between atoms: C_10  and  C_11
REMARK    6  A    between atoms: C_14  and  C_15
REMARK    7  A    between atoms: C_16  and  C_17
REMARK    8  A    between atoms: C_20  and  S_21
REMARK    9  A    between atoms: S_21  and  N_24
REMARK                            x       y       z     vdW  Elec       q    Type
REMARK                         _______ _______ _______ _____ _____    ______ ____
ROOT
ATOM      1  C   UNL     1       2.305   4.053  20.207  0.00  0.00    +0.000 A 
ATOM      2  C   UNL     1       1.333   4.933  20.714  0.00  0.00    +0.000 A 
ATOM      3  C   UNL     1       1.363   6.291  20.497  0.00  0.00    +0.000 A 
ATOM      4  C   UNL     1       2.332   6.836  19.693  0.00  0.00    +0.000 A 
ATOM      5  C   UNL     1       3.320   5.997  19.165  0.00  0.00    +0.000 A 
ATOM      6  C   UNL     1       3.329   4.596  19.423  0.00  0.00    +0.000 A 
ENDROOT
BRANCH   4   7
ATOM      7  N   UNL     1       2.320   8.199  19.416  0.00  0.00    +0.000 N 
ATOM      8  C   UNL     1       2.172   8.748  18.148  0.00  0.00    +0.000 C 
ATOM      9  O   UNL     1       2.083   8.122  17.079  0.00  0.00    +0.000 OA
ATOM     10  H   UNL     1       2.561   8.833  20.172  0.00  0.00    +0.000 HD
BRANCH   8  11
ATOM     11  C   UNL     1       2.173  10.245  18.131  0.00  0.00    +0.000 C 
BRANCH  11  12
ATOM     12  C   UNL     1       0.946  10.815  18.791  0.00  0.00    +0.000 A 
ATOM     13  C   UNL     1      -0.320  10.381  18.405  0.00  0.00    +0.000 A 
ATOM     14  C   UNL     1      -1.458  10.897  19.023  0.00  0.00    +0.000 A 
ATOM     15  C   UNL     1      -1.357  11.851  20.050  0.00  0.00    +0.000 A 
ATOM     16  C   UNL     1      -2.615  12.343  20.708  0.00  0.00    +0.000 C 
ATOM     17  C   UNL     1      -0.084  12.298  20.447  0.00  0.00    +0.000 A 
ATOM     18  C   UNL     1       0.138  13.286  21.561  0.00  0.00    +0.000 C 
ATOM     19  C   UNL     1       1.054  11.778  19.803  0.00  0.00    +0.000 A 
ENDBRANCH  11  12
ENDBRANCH   8  11
ENDBRANCH   4   7
BRANCH   6  20
ATOM     20  S   UNL     1       4.743   3.782  18.678  0.00  0.00    +0.000 S 
ATOM     21  O   UNL     1       5.276   2.925  19.722  0.00  0.00    +0.000 OA
ATOM     22  O   UNL     1       4.237   3.191  17.452  0.00  0.00    +0.000 OA
BRANCH  20  23
ATOM     23  N   UNL     1       5.971   4.859  18.245  0.00  0.00    +0.000 NA
ATOM     24  C   UNL     1       6.073   5.284  16.846  0.00  0.00    +0.000 C 
ATOM     25  C   UNL     1       6.974   6.475  16.542  0.00  0.00    +0.000 C 
ATOM     26  C   UNL     1       7.575   7.228  17.712  0.00  0.00    +0.000 C 
ATOM     27  C   UNL     1       7.907   6.338  18.886  0.00  0.00    +0.000 C 
ATOM     28  C   UNL     1       6.783   5.420  19.322  0.00  0.00    +0.000 C 
ENDBRANCH  20  23
ENDBRANCH   6  20
BRANCH   1  30
ATOM     29  C   UNL     1       1.553   1.977  19.434  0.00  0.00    +0.000 C 
ATOM     30  O   UNL     1       2.185   2.717  20.496  0.00  0.00    +0.000 OA
ENDBRANCH   1  30
TORSDOF 6
ENDMDL
MODEL 9
REMARK VINA RESULT:      -7.8      3.056      8.646
REMARK  Name = 
REMARK  9 active torsions:
REMARK  status: ('A' for Active; 'I' for Inactive)
REMARK    1  A    between atoms: C_1  and  O_2
REMARK    2  A    between atoms: O_2  and  C_3
REMARK    3  A    between atoms: C_6  and  N_7
REMARK    4  A    between atoms: C_8  and  C_10
REMARK    5  A    between atoms: C_10  and  C_11
REMARK    6  A    between atoms: C_14  and  C_15
REMARK    7  A    between atoms: C_16  and  C_17
REMARK    8  A    between atoms: C_20  and  S_21
REMARK    9  A    between atoms: S_21  and  N_24
REMARK                            x       y       z     vdW  Elec       q    Type
REMARK                         _______ _______ _______ _____ _____    ______ ____
ROOT
ATOM      1  C   UNL     1       0.725   9.819  19.184  0.00  0.00    +0.000 A 
ATOM      2  C   UNL     1       1.286   9.211  18.047  0.00  0.00    +0.000 A 
ATOM      3  C   UNL     1       2.040   8.063  18.104  0.00  0.00    +0.000 A 
ATOM      4  C   UNL     1       2.213   7.414  19.300  0.00  0.00    +0.000 A 
ATOM      5  C   UNL     1       1.671   7.982  20.459  0.00  0.00    +0.000 A 
ATOM      6  C   UNL     1       0.930   9.198  20.421  0.00  0.00    +0.000 A 
ENDROOT
BRANCH   4   7
ATOM      7  N   UNL     1       2.916   6.214  19.345  0.00  0.00    +0.000 N 
ATOM      8  C   UNL     1       2.415   5.022  19.855  0.00  0.00    +0.000 C 
ATOM      9  O   UNL     1       1.305   4.856  20.389  0.00  0.00    +0.000 OA
ATOM     10  H   UNL     1       3.902   6.240  19.107  0.00  0.00    +0.000 HD
BRANCH   8  11
ATOM     11  C   UNL     1       3.372   3.875  19.765  0.00  0.00    +0.000 C 
BRANCH  11  12
ATOM     12  C   UNL     1       4.383   4.071  18.667  0.00  0.00    +0.000 A 
ATOM     13  C   UNL     1       4.110   3.620  17.378  0.00  0.00    +0.000 A 
ATOM     14  C   UNL     1       5.038   3.813  16.356  0.00  0.00    +0.000 A 
ATOM     15  C   UNL     1       6.256   4.472  16.595  0.00  0.00    +0.000 A 
ATOM     16  C   UNL     1       7.201   4.688  15.447  0.00  0.00    +0.000 C 
ATOM     17  C   UNL     1       6.542   4.932  17.893  0.00  0.00    +0.000 A 
ATOM     18  C   UNL     1       7.797   5.684  18.248  0.00  0.00    +0.000 C 
ATOM     19  C   UNL     1       5.601   4.716  18.917  0.00  0.00    +0.000 A 
ENDBRANCH  11  12
ENDBRANCH   8  11
ENDBRANCH   4   7
BRANCH   6  20
ATOM     20  S   UNL     1       0.414   9.724  22.056  0.00  0.00    +0.000 S 
ATOM     21  O   UNL     1      -0.721   8.878  22.382  0.00  0.00    +0.000 OA
ATOM     22  O   UNL     1       1.614   9.662  22.871  0.00  0.00    +0.000 OA
BRANCH  20  23
ATOM     23  N   UNL     1      -0.133  11.323  22.091  0.00  0.00    +0.000 NA
ATOM     24  C   UNL     1      -1.400  11.618  22.767  0.00  0.00    +0.000 C 
ATOM     25  C   UNL     1      -1.713  13.082  23.055  0.00  0.00    +0.000 C 
ATOM     26  C   UNL     1      -0.637  14.108  22.764  0.00  0.00    +0.000 C 
ATOM     27  C   UNL     1       0.208  13.762  21.562  0.00  0.00    +0.000 C 
ATOM     28  C   UNL     1       0.760  12.351  21.562  0.00  0.00    +0.000 C 
ENDBRANCH  20  23
ENDBRANCH   6  20
BRANCH   1  30
ATOM     29  C   UNL     1      -1.351  10.716  18.583  0.00  0.00    +0.000 C 
ATOM     30  O   UNL     1       0.001  10.972  19.013  0.00  0.00    +0.000 OA
ENDBRANCH   1  30
TORSDOF 6
ENDMDL
