MODEL 1
REMARK VINA RESULT:      -8.1      0.000      0.000
REMARK  Name = 
REMARK  10 active torsions:
REMARK  status: ('A' for Active; 'I' for Inactive)
REMARK    1  A    between atoms: C_1  and  C_2
REMARK    2  A    between atoms: C_2  and  C_3
REMARK    3  A    between atoms: C_3  and  C_6
REMARK    4  A    between atoms: C_11  and  O_12
REMARK    5  A    between atoms: O_12  and  C_13
REMARK    6  A    between atoms: C_17  and  O_18
REMARK    7  A    between atoms: O_18  and  C_19
REMARK    8  A    between atoms: C_22  and  S_23
REMARK    9  A    between atoms: S_23  and  C_24
REMARK   10  A    between atoms: C_28  and  C_29
REMARK                            x       y       z     vdW  Elec       q    Type
REMARK                         _______ _______ _______ _____ _____    ______ ____
ROOT
ATOM      1  C   UNL     1       1.880   7.852  20.088  0.00  0.00    +0.000 A 
ATOM      2  N   UNL     1       1.152   7.541  21.181  0.00  0.00    +0.000 NA
ATOM      3  C   UNL     1       0.094   8.329  21.423  0.00  0.00    +0.000 A 
ATOM      4  N   UNL     1      -0.307   9.362  20.670  0.00  0.00    +0.000 NA
ATOM      5  C   UNL     1       0.423   9.596  19.554  0.00  0.00    +0.000 A 
ATOM      6  C   UNL     1       1.556   8.882  19.229  0.00  0.00    +0.000 A 
ATOM      7  F   UNL     1       2.287   9.162  18.141  0.00  0.00    +0.000 F 
ENDROOT
BRANCH   1   8
ATOM      8  O   UNL     1       3.008   7.105  19.794  0.00  0.00    +0.000 OA
BRANCH   8  14
ATOM      9  C   UNL     1       6.179   4.900  16.835  0.00  0.00    +0.000 C 
ATOM     10  O   UNL     1       7.072   4.231  17.375  0.00  0.00    +0.000 OA
ATOM     11  N   UNL     1       5.144   5.441  17.597  0.00  0.00    +0.000 N 
ATOM     12  C   UNL     1       5.221   5.324  19.049  0.00  0.00    +0.000 C 
ATOM     13  C   UNL     1       3.898   4.817  19.602  0.00  0.00    +0.000 C 
ATOM     14  C   UNL     1       2.772   5.794  19.243  0.00  0.00    +0.000 C 
ATOM     15  C   UNL     1       2.713   5.927  17.708  0.00  0.00    +0.000 C 
ATOM     16  C   UNL     1       4.068   6.299  17.091  0.00  0.00    +0.000 C 
BRANCH   9  17
ATOM     17  C   UNL     1       6.187   5.131  15.306  0.00  0.00    +0.000 C 
ATOM     18  F   UNL     1       7.463   5.232  14.825  0.00  0.00    +0.000 F 
ATOM     19  F   UNL     1       5.568   6.303  14.974  0.00  0.00    +0.000 F 
BRANCH  17  21
ATOM     20  C   UNL     1       6.073   3.684  13.218  0.00  0.00    +0.000 C 
ATOM     21  C   UNL     1       5.479   3.982  14.584  0.00  0.00    +0.000 C 
ENDBRANCH  17  21
ENDBRANCH   9  17
ENDBRANCH   8  14
ENDBRANCH   1   8
BRANCH   5  22
ATOM     22  O   UNL     1       0.010  10.607  18.688  0.00  0.00    +0.000 OA
BRANCH  22  23
ATOM     23  C   UNL     1      -1.350  10.803  18.532  0.00  0.00    +0.000 A 
ATOM     24  C   UNL     1      -2.129  10.037  17.653  0.00  0.00    +0.000 A 
ATOM     25  C   UNL     1      -3.495  10.271  17.539  0.00  0.00    +0.000 A 
ATOM     26  C   UNL     1      -4.023  11.303  18.289  0.00  0.00    +0.000 A 
ATOM     27  N   UNL     1      -3.313  12.114  19.116  0.00  0.00    +0.000 NA
ATOM     28  C   UNL     1      -1.977  11.857  19.218  0.00  0.00    +0.000 A 
ATOM     29  C   UNL     1      -1.210  12.792  20.106  0.00  0.00    +0.000 C 
BRANCH  26  30
ATOM     30  S   UNL     1      -5.761  11.649  18.172  0.00  0.00    +0.000 S 
ATOM     31  C   UNL     1      -6.125  12.755  19.506  0.00  0.00    +0.000 C 
ATOM     32  O   UNL     1      -5.963  12.374  16.929  0.00  0.00    +0.000 OA
ATOM     33  O   UNL     1      -6.462  10.401  18.424  0.00  0.00    +0.000 OA
ENDBRANCH  26  30
ENDBRANCH  22  23
ENDBRANCH   5  22
TORSDOF 7
ENDMDL
MODEL 2
REMARK VINA RESULT:      -8.1      1.162      1.352
REMARK  Name = 
REMARK  10 active torsions:
REMARK  status: ('A' for Active; 'I' for Inactive)
REMARK    1  A    between atoms: C_1  and  C_2
REMARK    2  A    between atoms: C_2  and  C_3
REMARK    3  A    between atoms: C_3  and  C_6
REMARK    4  A    between atoms: C_11  and  O_12
REMARK    5  A    between atoms: O_12  and  C_13
REMARK    6  A    between atoms: C_17  and  O_18
REMARK    7  A    between atoms: O_18  and  C_19
REMARK    8  A    between atoms: C_22  and  S_23
REMARK    9  A    between atoms: S_23  and  C_24
REMARK   10  A    between atoms: C_28  and  C_29
REMARK                            x       y       z     vdW  Elec       q    Type
REMARK                         _______ _______ _______ _____ _____    ______ ____
ROOT
ATOM      1  C   UNL     1       1.424   8.671  20.146  0.00  0.00    +0.000 A 
ATOM      2  N   UNL     1       0.842   8.194  21.266  0.00  0.00    +0.000 NA
ATOM      3  C   UNL     1      -0.165   8.928  21.761  0.00  0.00    +0.000 A 
ATOM      4  N   UNL     1      -0.647  10.061  21.232  0.00  0.00    +0.000 NA
ATOM      5  C   UNL     1      -0.067  10.467  20.078  0.00  0.00    +0.000 A 
ATOM      6  C   UNL     1       1.005   9.818  19.503  0.00  0.00    +0.000 A 
ATOM      7  F   UNL     1       1.591  10.264  18.383  0.00  0.00    +0.000 F 
ENDROOT
BRANCH   1   8
ATOM      8  O   UNL     1       2.494   7.985  19.596  0.00  0.00    +0.000 OA
BRANCH   8  14
ATOM      9  C   UNL     1       5.713   4.569  18.316  0.00  0.00    +0.000 C 
ATOM     10  O   UNL     1       5.813   3.589  19.068  0.00  0.00    +0.000 OA
ATOM     11  N   UNL     1       4.714   5.520  18.525  0.00  0.00    +0.000 N 
ATOM     12  C   UNL     1       3.894   5.407  19.726  0.00  0.00    +0.000 C 
ATOM     13  C   UNL     1       2.422   5.534  19.365  0.00  0.00    +0.000 C 
ATOM     14  C   UNL     1       2.159   6.897  18.712  0.00  0.00    +0.000 C 
ATOM     15  C   UNL     1       3.047   7.015  17.456  0.00  0.00    +0.000 C 
ATOM     16  C   UNL     1       4.530   6.751  17.751  0.00  0.00    +0.000 C 
BRANCH   9  17
ATOM     17  C   UNL     1       6.682   4.746  17.124  0.00  0.00    +0.000 C 
ATOM     18  F   UNL     1       7.894   4.166  17.378  0.00  0.00    +0.000 F 
ATOM     19  F   UNL     1       6.942   6.066  16.883  0.00  0.00    +0.000 F 
BRANCH  17  21
ATOM     20  C   UNL     1       6.138   5.059  14.660  0.00  0.00    +0.000 C 
ATOM     21  C   UNL     1       6.095   4.123  15.856  0.00  0.00    +0.000 C 
ENDBRANCH  17  21
ENDBRANCH   9  17
ENDBRANCH   8  14
ENDBRANCH   1   8
BRANCH   5  22
ATOM     22  O   UNL     1      -0.576  11.595  19.437  0.00  0.00    +0.000 OA
BRANCH  22  23
ATOM     23  C   UNL     1      -1.922  11.603  19.124  0.00  0.00    +0.000 A 
ATOM     24  C   UNL     1      -2.464  10.828  18.088  0.00  0.00    +0.000 A 
ATOM     25  C   UNL     1      -3.827  10.868  17.819  0.00  0.00    +0.000 A 
ATOM     26  C   UNL     1      -4.596  11.724  18.583  0.00  0.00    +0.000 A 
ATOM     27  N   UNL     1      -4.124  12.538  19.564  0.00  0.00    +0.000 NA
ATOM     28  C   UNL     1      -2.785  12.472  19.814  0.00  0.00    +0.000 A 
ATOM     29  C   UNL     1      -2.283  13.409  20.874  0.00  0.00    +0.000 C 
BRANCH  26  30
ATOM     30  S   UNL     1      -6.342  11.819  18.273  0.00  0.00    +0.000 S 
ATOM     31  C   UNL     1      -7.002  12.862  19.544  0.00  0.00    +0.000 C 
ATOM     32  O   UNL     1      -6.508  12.509  17.005  0.00  0.00    +0.000 OA
ATOM     33  O   UNL     1      -6.882  10.484  18.467  0.00  0.00    +0.000 OA
ENDBRANCH  26  30
ENDBRANCH  22  23
ENDBRANCH   5  22
TORSDOF 7
ENDMDL
MODEL 3
REMARK VINA RESULT:      -8.1      1.339      1.852
REMARK  Name = 
REMARK  10 active torsions:
REMARK  status: ('A' for Active; 'I' for Inactive)
REMARK    1  A    between atoms: C_1  and  C_2
REMARK    2  A    between atoms: C_2  and  C_3
REMARK    3  A    between atoms: C_3  and  C_6
REMARK    4  A    between atoms: C_11  and  O_12
REMARK    5  A    between atoms: O_12  and  C_13
REMARK    6  A    between atoms: C_17  and  O_18
REMARK    7  A    between atoms: O_18  and  C_19
REMARK    8  A    between atoms: C_22  and  S_23
REMARK    9  A    between atoms: S_23  and  C_24
REMARK   10  A    between atoms: C_28  and  C_29
REMARK                            x       y       z     vdW  Elec       q    Type
REMARK                         _______ _______ _______ _____ _____    ______ ____
ROOT
ATOM      1  C   UNL     1       1.432   8.653  20.011  0.00  0.00    +0.000 A 
ATOM      2  N   UNL     1       0.809   8.284  21.149  0.00  0.00    +0.000 NA
ATOM      3  C   UNL     1      -0.249   9.028  21.506  0.00  0.00    +0.000 A 
ATOM      4  N   UNL     1      -0.741  10.072  20.826  0.00  0.00    +0.000 NA
ATOM      5  C   UNL     1      -0.115  10.367  19.662  0.00  0.00    +0.000 A 
ATOM      6  C   UNL     1       1.008   9.701  19.219  0.00  0.00    +0.000 A 
ATOM      7  F   UNL     1       1.637  10.040  18.086  0.00  0.00    +0.000 F 
ENDROOT
BRANCH   1   8
ATOM      8  O   UNL     1       2.554   7.954  19.598  0.00  0.00    +0.000 OA
BRANCH   8  14
ATOM      9  C   UNL     1       5.991   4.786  18.247  0.00  0.00    +0.000 C 
ATOM     10  O   UNL     1       6.052   3.726  18.887  0.00  0.00    +0.000 OA
ATOM     11  N   UNL     1       4.946   5.683  18.468  0.00  0.00    +0.000 N 
ATOM     12  C   UNL     1       4.020   5.410  19.562  0.00  0.00    +0.000 C 
ATOM     13  C   UNL     1       2.586   5.547  19.077  0.00  0.00    +0.000 C 
ATOM     14  C   UNL     1       2.340   6.972  18.565  0.00  0.00    +0.000 C 
ATOM     15  C   UNL     1       3.337   7.257  17.423  0.00  0.00    +0.000 C 
ATOM     16  C   UNL     1       4.794   6.993  17.827  0.00  0.00    +0.000 C 
BRANCH   9  17
ATOM     17  C   UNL     1       7.060   5.124  17.184  0.00  0.00    +0.000 C 
ATOM     18  F   UNL     1       8.057   4.188  17.165  0.00  0.00    +0.000 F 
ATOM     19  F   UNL     1       7.672   6.317  17.452  0.00  0.00    +0.000 F 
BRANCH  17  21
ATOM     20  C   UNL     1       5.869   3.868  15.322  0.00  0.00    +0.000 C 
ATOM     21  C   UNL     1       6.430   5.199  15.791  0.00  0.00    +0.000 C 
ENDBRANCH  17  21
ENDBRANCH   9  17
ENDBRANCH   8  14
ENDBRANCH   1   8
BRANCH   5  22
ATOM     22  O   UNL     1      -0.628  11.393  18.871  0.00  0.00    +0.000 OA
BRANCH  22  23
ATOM     23  C   UNL     1      -1.991  11.617  18.915  0.00  0.00    +0.000 A 
ATOM     24  C   UNL     1      -2.592  12.442  19.878  0.00  0.00    +0.000 A 
ATOM     25  C   UNL     1      -3.968  12.641  19.874  0.00  0.00    +0.000 A 
ATOM     26  C   UNL     1      -4.700  11.964  18.918  0.00  0.00    +0.000 A 
ATOM     27  N   UNL     1      -4.184  11.111  17.994  0.00  0.00    +0.000 NA
ATOM     28  C   UNL     1      -2.831  10.943  18.013  0.00  0.00    +0.000 A 
ATOM     29  C   UNL     1      -2.292   9.966  17.009  0.00  0.00    +0.000 C 
BRANCH  26  30
ATOM     30  S   UNL     1      -6.462  12.176  18.876  0.00  0.00    +0.000 S 
ATOM     31  C   UNL     1      -7.014  11.967  20.546  0.00  0.00    +0.000 C 
ATOM     32  O   UNL     1      -6.711  13.557  18.497  0.00  0.00    +0.000 OA
ATOM     33  O   UNL     1      -7.005  11.082  18.087  0.00  0.00    +0.000 OA
ENDBRANCH  26  30
ENDBRANCH  22  23
ENDBRANCH   5  22
TORSDOF 7
ENDMDL
MODEL 4
REMARK VINA RESULT:      -8.0      1.409      1.902
REMARK  Name = 
REMARK  10 active torsions:
REMARK  status: ('A' for Active; 'I' for Inactive)
REMARK    1  A    between atoms: C_1  and  C_2
REMARK    2  A    between atoms: C_2  and  C_3
REMARK    3  A    between atoms: C_3  and  C_6
REMARK    4  A    between atoms: C_11  and  O_12
REMARK    5  A    between atoms: O_12  and  C_13
REMARK    6  A    between atoms: C_17  and  O_18
REMARK    7  A    between atoms: O_18  and  C_19
REMARK    8  A    between atoms: C_22  and  S_23
REMARK    9  A    between atoms: S_23  and  C_24
REMARK   10  A    between atoms: C_28  and  C_29
REMARK                            x       y       z     vdW  Elec       q    Type
REMARK                         _______ _______ _______ _____ _____    ______ ____
ROOT
ATOM      1  C   UNL     1       1.302   8.739  20.164  0.00  0.00    +0.000 A 
ATOM      2  N   UNL     1       0.723   8.293  21.297  0.00  0.00    +0.000 NA
ATOM      3  C   UNL     1      -0.309   9.019  21.753  0.00  0.00    +0.000 A 
ATOM      4  N   UNL     1      -0.815  10.116  21.174  0.00  0.00    +0.000 NA
ATOM      5  C   UNL     1      -0.235  10.489  20.009  0.00  0.00    +0.000 A 
ATOM      6  C   UNL     1       0.859   9.847  19.470  0.00  0.00    +0.000 A 
ATOM      7  F   UNL     1       1.444  10.263  18.338  0.00  0.00    +0.000 F 
ENDROOT
BRANCH   1   8
ATOM      8  O   UNL     1       2.396   8.061  19.652  0.00  0.00    +0.000 OA
BRANCH   8  14
ATOM      9  C   UNL     1       5.724   4.823  18.199  0.00  0.00    +0.000 C 
ATOM     10  O   UNL     1       5.837   3.796  18.884  0.00  0.00    +0.000 OA
ATOM     11  N   UNL     1       4.697   5.732  18.455  0.00  0.00    +0.000 N 
ATOM     12  C   UNL     1       3.860   5.516  19.629  0.00  0.00    +0.000 C 
ATOM     13  C   UNL     1       2.392   5.631  19.252  0.00  0.00    +0.000 C 
ATOM     14  C   UNL     1       2.104   7.029  18.689  0.00  0.00    +0.000 C 
ATOM     15  C   UNL     1       3.009   7.255  17.461  0.00  0.00    +0.000 C 
ATOM     16  C   UNL     1       4.493   7.008  17.763  0.00  0.00    +0.000 C 
BRANCH   9  17
ATOM     17  C   UNL     1       6.707   5.106  17.039  0.00  0.00    +0.000 C 
ATOM     18  F   UNL     1       6.064   5.109  15.832  0.00  0.00    +0.000 F 
ATOM     19  F   UNL     1       7.666   4.137  16.950  0.00  0.00    +0.000 F 
BRANCH  17  21
ATOM     20  C   UNL     1       8.026   6.612  18.607  0.00  0.00    +0.000 C 
ATOM     21  C   UNL     1       7.394   6.459  17.234  0.00  0.00    +0.000 C 
ENDBRANCH  17  21
ENDBRANCH   9  17
ENDBRANCH   8  14
ENDBRANCH   1   8
BRANCH   5  22
ATOM     22  O   UNL     1      -0.768  11.576  19.318  0.00  0.00    +0.000 OA
BRANCH  22  23
ATOM     23  C   UNL     1      -2.125  11.565  19.052  0.00  0.00    +0.000 A 
ATOM     24  C   UNL     1      -2.691  10.785  18.033  0.00  0.00    +0.000 A 
ATOM     25  C   UNL     1      -4.063  10.806  17.812  0.00  0.00    +0.000 A 
ATOM     26  C   UNL     1      -4.817  11.649  18.605  0.00  0.00    +0.000 A 
ATOM     27  N   UNL     1      -4.322  12.468  19.571  0.00  0.00    +0.000 NA
ATOM     28  C   UNL     1      -2.975  12.420  19.774  0.00  0.00    +0.000 A 
ATOM     29  C   UNL     1      -2.450  13.363  20.818  0.00  0.00    +0.000 C 
BRANCH  26  30
ATOM     30  S   UNL     1      -6.574  11.720  18.357  0.00  0.00    +0.000 S 
ATOM     31  C   UNL     1      -7.210  12.707  19.682  0.00  0.00    +0.000 C 
ATOM     32  O   UNL     1      -6.795  12.447  17.118  0.00  0.00    +0.000 OA
ATOM     33  O   UNL     1      -7.082  10.368  18.523  0.00  0.00    +0.000 OA
ENDBRANCH  26  30
ENDBRANCH  22  23
ENDBRANCH   5  22
TORSDOF 7
ENDMDL
MODEL 5
REMARK VINA RESULT:      -7.9      1.458      2.203
REMARK  Name = 
REMARK  10 active torsions:
REMARK  status: ('A' for Active; 'I' for Inactive)
REMARK    1  A    between atoms: C_1  and  C_2
REMARK    2  A    between atoms: C_2  and  C_3
REMARK    3  A    between atoms: C_3  and  C_6
REMARK    4  A    between atoms: C_11  and  O_12
REMARK    5  A    between atoms: O_12  and  C_13
REMARK    6  A    between atoms: C_17  and  O_18
REMARK    7  A    between atoms: O_18  and  C_19
REMARK    8  A    between atoms: C_22  and  S_23
REMARK    9  A    between atoms: S_23  and  C_24
REMARK   10  A    between atoms: C_28  and  C_29
REMARK                            x       y       z     vdW  Elec       q    Type
REMARK                         _______ _______ _______ _____ _____    ______ ____
ROOT
ATOM      1  C   UNL     1       1.288   8.756  20.280  0.00  0.00    +0.000 A 
ATOM      2  N   UNL     1       0.698   8.453  21.455  0.00  0.00    +0.000 NA
ATOM      3  C   UNL     1      -0.303   9.262  21.833  0.00  0.00    +0.000 A 
ATOM      4  N   UNL     1      -0.771  10.310  21.143  0.00  0.00    +0.000 NA
ATOM      5  C   UNL     1      -0.184  10.537  19.944  0.00  0.00    +0.000 A 
ATOM      6  C   UNL     1       0.882   9.801  19.474  0.00  0.00    +0.000 A 
ATOM      7  F   UNL     1       1.476  10.073  18.304  0.00  0.00    +0.000 F 
ENDROOT
BRANCH   1   8
ATOM      8  O   UNL     1       2.353   7.987  19.840  0.00  0.00    +0.000 OA
BRANCH   8  14
ATOM      9  C   UNL     1       5.679   4.872  18.137  0.00  0.00    +0.000 C 
ATOM     10  O   UNL     1       5.832   3.819  18.773  0.00  0.00    +0.000 OA
ATOM     11  N   UNL     1       4.647   5.751  18.466  0.00  0.00    +0.000 N 
ATOM     12  C   UNL     1       3.856   5.471  19.659  0.00  0.00    +0.000 C 
ATOM     13  C   UNL     1       2.374   5.576  19.337  0.00  0.00    +0.000 C 
ATOM     14  C   UNL     1       2.044   6.992  18.845  0.00  0.00    +0.000 C 
ATOM     15  C   UNL     1       2.901   7.285  17.597  0.00  0.00    +0.000 C 
ATOM     16  C   UNL     1       4.399   7.052  17.837  0.00  0.00    +0.000 C 
BRANCH   9  17
ATOM     17  C   UNL     1       6.616   5.220  16.957  0.00  0.00    +0.000 C 
ATOM     18  F   UNL     1       5.916   5.359  15.791  0.00  0.00    +0.000 F 
ATOM     19  F   UNL     1       7.526   4.226  16.733  0.00  0.00    +0.000 F 
BRANCH  17  21
ATOM     20  C   UNL     1       8.004   6.558  18.616  0.00  0.00    +0.000 C 
ATOM     21  C   UNL     1       7.370   6.522  17.235  0.00  0.00    +0.000 C 
ENDBRANCH  17  21
ENDBRANCH   9  17
ENDBRANCH   8  14
ENDBRANCH   1   8
BRANCH   5  22
ATOM     22  O   UNL     1      -0.680  11.564  19.144  0.00  0.00    +0.000 OA
BRANCH  22  23
ATOM     23  C   UNL     1      -2.051  11.732  19.090  0.00  0.00    +0.000 A 
ATOM     24  C   UNL     1      -2.757  12.504  20.024  0.00  0.00    +0.000 A 
ATOM     25  C   UNL     1      -4.136  12.646  19.920  0.00  0.00    +0.000 A 
ATOM     26  C   UNL     1      -4.764  11.968  18.894  0.00  0.00    +0.000 A 
ATOM     27  N   UNL     1      -4.144  11.163  17.991  0.00  0.00    +0.000 NA
ATOM     28  C   UNL     1      -2.790  11.049  18.110  0.00  0.00    +0.000 A 
ATOM     29  C   UNL     1      -2.136  10.124  17.125  0.00  0.00    +0.000 C 
BRANCH  26  30
ATOM     30  S   UNL     1      -6.526  12.109  18.724  0.00  0.00    +0.000 S 
ATOM     31  C   UNL     1      -7.154  12.338  20.364  0.00  0.00    +0.000 C 
ATOM     32  O   UNL     1      -6.780  13.330  17.978  0.00  0.00    +0.000 OA
ATOM     33  O   UNL     1      -7.011  10.828  18.235  0.00  0.00    +0.000 OA
ENDBRANCH  26  30
ENDBRANCH  22  23
ENDBRANCH   5  22
TORSDOF 7
ENDMDL
MODEL 6
REMARK VINA RESULT:      -7.8      2.870      3.567
REMARK  Name = 
REMARK  10 active torsions:
REMARK  status: ('A' for Active; 'I' for Inactive)
REMARK    1  A    between atoms: C_1  and  C_2
REMARK    2  A    between atoms: C_2  and  C_3
REMARK    3  A    between atoms: C_3  and  C_6
REMARK    4  A    between atoms: C_11  and  O_12
REMARK    5  A    between atoms: O_12  and  C_13
REMARK    6  A    between atoms: C_17  and  O_18
REMARK    7  A    between atoms: O_18  and  C_19
REMARK    8  A    between atoms: C_22  and  S_23
REMARK    9  A    between atoms: S_23  and  C_24
REMARK   10  A    between atoms: C_28  and  C_29
REMARK                            x       y       z     vdW  Elec       q    Type
REMARK                         _______ _______ _______ _____ _____    ______ ____
ROOT
ATOM      1  C   UNL     1       1.526   8.833  19.380  0.00  0.00    +0.000 A 
ATOM      2  N   UNL     1       1.001   9.227  18.201  0.00  0.00    +0.000 NA
ATOM      3  C   UNL     1       0.331  10.389  18.218  0.00  0.00    +0.000 A 
ATOM      4  N   UNL     1       0.165  11.186  19.282  0.00  0.00    +0.000 NA
ATOM      5  C   UNL     1       0.760  10.774  20.426  0.00  0.00    +0.000 A 
ATOM      6  C   UNL     1       1.434   9.578  20.538  0.00  0.00    +0.000 A 
ATOM      7  F   UNL     1       1.977   9.170  21.694  0.00  0.00    +0.000 F 
ENDROOT
BRANCH   1   8
ATOM      8  O   UNL     1       2.202   7.626  19.448  0.00  0.00    +0.000 OA
BRANCH   8  14
ATOM      9  C   UNL     1       5.884   4.627  18.392  0.00  0.00    +0.000 C 
ATOM     10  O   UNL     1       5.794   3.465  18.815  0.00  0.00    +0.000 OA
ATOM     11  N   UNL     1       4.811   5.509  18.520  0.00  0.00    +0.000 N 
ATOM     12  C   UNL     1       3.648   5.076  19.286  0.00  0.00    +0.000 C 
ATOM     13  C   UNL     1       2.375   5.358  18.504  0.00  0.00    +0.000 C 
ATOM     14  C   UNL     1       2.253   6.862  18.227  0.00  0.00    +0.000 C 
ATOM     15  C   UNL     1       3.497   7.313  17.435  0.00  0.00    +0.000 C 
ATOM     16  C   UNL     1       4.813   6.920  18.121  0.00  0.00    +0.000 C 
BRANCH   9  17
ATOM     17  C   UNL     1       7.180   5.113  17.702  0.00  0.00    +0.000 C 
ATOM     18  F   UNL     1       8.159   4.160  17.755  0.00  0.00    +0.000 F 
ATOM     19  F   UNL     1       7.695   6.214  18.326  0.00  0.00    +0.000 F 
BRANCH  17  21
ATOM     20  C   UNL     1       6.420   4.274  15.425  0.00  0.00    +0.000 C 
ATOM     21  C   UNL     1       6.911   5.461  16.237  0.00  0.00    +0.000 C 
ENDBRANCH  17  21
ENDBRANCH   9  17
ENDBRANCH   8  14
ENDBRANCH   1   8
BRANCH   5  22
ATOM     22  O   UNL     1       0.690  11.599  21.547  0.00  0.00    +0.000 OA
BRANCH  22  23
ATOM     23  C   UNL     1      -0.564  11.951  22.009  0.00  0.00    +0.000 A 
ATOM     24  C   UNL     1      -1.174  13.173  21.689  0.00  0.00    +0.000 A 
ATOM     25  C   UNL     1      -2.442  13.474  22.174  0.00  0.00    +0.000 A 
ATOM     26  C   UNL     1      -3.037  12.544  23.004  0.00  0.00    +0.000 A 
ATOM     27  N   UNL     1      -2.477  11.369  23.394  0.00  0.00    +0.000 NA
ATOM     28  C   UNL     1      -1.238  11.093  22.895  0.00  0.00    +0.000 A 
ATOM     29  C   UNL     1      -0.626   9.808  23.372  0.00  0.00    +0.000 C 
BRANCH  26  30
ATOM     30  S   UNL     1      -4.652  12.885  23.659  0.00  0.00    +0.000 S 
ATOM     31  C   UNL     1      -4.728  14.643  23.866  0.00  0.00    +0.000 C 
ATOM     32  O   UNL     1      -5.610  12.520  22.628  0.00  0.00    +0.000 OA
ATOM     33  O   UNL     1      -4.715  12.278  24.977  0.00  0.00    +0.000 OA
ENDBRANCH  26  30
ENDBRANCH  22  23
ENDBRANCH   5  22
TORSDOF 7
ENDMDL
MODEL 7
REMARK VINA RESULT:      -7.8      1.229      1.782
REMARK  Name = 
REMARK  10 active torsions:
REMARK  status: ('A' for Active; 'I' for Inactive)
REMARK    1  A    between atoms: C_1  and  C_2
REMARK    2  A    between atoms: C_2  and  C_3
REMARK    3  A    between atoms: C_3  and  C_6
REMARK    4  A    between atoms: C_11  and  O_12
REMARK    5  A    between atoms: O_12  and  C_13
REMARK    6  A    between atoms: C_17  and  O_18
REMARK    7  A    between atoms: O_18  and  C_19
REMARK    8  A    between atoms: C_22  and  S_23
REMARK    9  A    between atoms: S_23  and  C_24
REMARK   10  A    between atoms: C_28  and  C_29
REMARK                            x       y       z     vdW  Elec       q    Type
REMARK                         _______ _______ _______ _____ _____    ______ ____
ROOT
ATOM      1  C   UNL     1       1.494   8.373  20.006  0.00  0.00    +0.000 A 
ATOM      2  N   UNL     1       0.901   8.075  21.181  0.00  0.00    +0.000 NA
ATOM      3  C   UNL     1      -0.078   8.905  21.570  0.00  0.00    +0.000 A 
ATOM      4  N   UNL     1      -0.524   9.970  20.889  0.00  0.00    +0.000 NA
ATOM      5  C   UNL     1       0.064  10.192  19.690  0.00  0.00    +0.000 A 
ATOM      6  C   UNL     1       1.110   9.434  19.210  0.00  0.00    +0.000 A 
ATOM      7  F   UNL     1       1.706   9.700  18.039  0.00  0.00    +0.000 F 
ENDROOT
BRANCH   1   8
ATOM      8  O   UNL     1       2.537   7.581  19.556  0.00  0.00    +0.000 OA
BRANCH   8  14
ATOM      9  C   UNL     1       5.712   4.454  17.605  0.00  0.00    +0.000 C 
ATOM     10  O   UNL     1       6.515   3.918  18.384  0.00  0.00    +0.000 OA
ATOM     11  N   UNL     1       4.675   5.246  18.097  0.00  0.00    +0.000 N 
ATOM     12  C   UNL     1       4.650   5.543  19.525  0.00  0.00    +0.000 C 
ATOM     13  C   UNL     1       3.261   5.288  20.087  0.00  0.00    +0.000 C 
ATOM     14  C   UNL     1       2.237   6.183  19.377  0.00  0.00    +0.000 C 
ATOM     15  C   UNL     1       2.286   5.876  17.866  0.00  0.00    +0.000 C 
ATOM     16  C   UNL     1       3.703   5.983  17.285  0.00  0.00    +0.000 C 
BRANCH   9  17
ATOM     17  C   UNL     1       5.835   4.239  16.079  0.00  0.00    +0.000 C 
ATOM     18  F   UNL     1       4.716   4.673  15.424  0.00  0.00    +0.000 F 
ATOM     19  F   UNL     1       5.960   2.913  15.770  0.00  0.00    +0.000 F 
BRANCH  17  21
ATOM     20  C   UNL     1       7.113   4.975  14.008  0.00  0.00    +0.000 C 
ATOM     21  C   UNL     1       7.050   4.987  15.526  0.00  0.00    +0.000 C 
ENDBRANCH  17  21
ENDBRANCH   9  17
ENDBRANCH   8  14
ENDBRANCH   1   8
BRANCH   5  22
ATOM     22  O   UNL     1      -0.410  11.237  18.899  0.00  0.00    +0.000 OA
BRANCH  22  23
ATOM     23  C   UNL     1      -1.774  11.463  18.883  0.00  0.00    +0.000 A 
ATOM     24  C   UNL     1      -2.419  12.271  19.830  0.00  0.00    +0.000 A 
ATOM     25  C   UNL     1      -3.793  12.471  19.764  0.00  0.00    +0.000 A 
ATOM     26  C   UNL     1      -4.479  11.812  18.762  0.00  0.00    +0.000 A 
ATOM     27  N   UNL     1      -3.920  10.976  17.849  0.00  0.00    +0.000 NA
ATOM     28  C   UNL     1      -2.569  10.805  17.930  0.00  0.00    +0.000 A 
ATOM     29  C   UNL     1      -1.984   9.846  16.935  0.00  0.00    +0.000 C 
BRANCH  26  30
ATOM     30  S   UNL     1      -6.237  12.028  18.640  0.00  0.00    +0.000 S 
ATOM     31  C   UNL     1      -6.496  13.130  17.278  0.00  0.00    +0.000 C 
ATOM     32  O   UNL     1      -6.795  10.736  18.276  0.00  0.00    +0.000 OA
ATOM     33  O   UNL     1      -6.669  12.706  19.851  0.00  0.00    +0.000 OA
ENDBRANCH  26  30
ENDBRANCH  22  23
ENDBRANCH   5  22
TORSDOF 7
ENDMDL
MODEL 8
REMARK VINA RESULT:      -7.6      1.645      2.397
REMARK  Name = 
REMARK  10 active torsions:
REMARK  status: ('A' for Active; 'I' for Inactive)
REMARK    1  A    between atoms: C_1  and  C_2
REMARK    2  A    between atoms: C_2  and  C_3
REMARK    3  A    between atoms: C_3  and  C_6
REMARK    4  A    between atoms: C_11  and  O_12
REMARK    5  A    between atoms: O_12  and  C_13
REMARK    6  A    between atoms: C_17  and  O_18
REMARK    7  A    between atoms: O_18  and  C_19
REMARK    8  A    between atoms: C_22  and  S_23
REMARK    9  A    between atoms: S_23  and  C_24
REMARK   10  A    between atoms: C_28  and  C_29
REMARK                            x       y       z     vdW  Elec       q    Type
REMARK                         _______ _______ _______ _____ _____    ______ ____
ROOT
ATOM      1  C   UNL     1       1.294   8.680  20.578  0.00  0.00    +0.000 A 
ATOM      2  N   UNL     1       0.754   8.445  21.792  0.00  0.00    +0.000 NA
ATOM      3  C   UNL     1      -0.141   9.348  22.220  0.00  0.00    +0.000 A 
ATOM      4  N   UNL     1      -0.552  10.429  21.544  0.00  0.00    +0.000 NA
ATOM      5  C   UNL     1      -0.024  10.589  20.309  0.00  0.00    +0.000 A 
ATOM      6  C   UNL     1       0.937   9.751  19.784  0.00  0.00    +0.000 A 
ATOM      7  F   UNL     1       1.478   9.955  18.575  0.00  0.00    +0.000 F 
ENDROOT
BRANCH   1   8
ATOM      8  O   UNL     1       2.251   7.809  20.085  0.00  0.00    +0.000 OA
BRANCH   8  14
ATOM      9  C   UNL     1       5.147   4.310  18.342  0.00  0.00    +0.000 C 
ATOM     10  O   UNL     1       5.296   3.306  19.054  0.00  0.00    +0.000 OA
ATOM     11  N   UNL     1       4.221   5.292  18.694  0.00  0.00    +0.000 N 
ATOM     12  C   UNL     1       3.548   5.177  19.982  0.00  0.00    +0.000 C 
ATOM     13  C   UNL     1       2.050   5.371  19.807  0.00  0.00    +0.000 C 
ATOM     14  C   UNL     1       1.767   6.761  19.223  0.00  0.00    +0.000 C 
ATOM     15  C   UNL     1       2.500   6.879  17.871  0.00  0.00    +0.000 C 
ATOM     16  C   UNL     1       3.996   6.550  17.976  0.00  0.00    +0.000 C 
BRANCH   9  17
ATOM     17  C   UNL     1       5.971   4.482  17.045  0.00  0.00    +0.000 C 
ATOM     18  F   UNL     1       5.520   5.542  16.307  0.00  0.00    +0.000 F 
ATOM     19  F   UNL     1       5.861   3.388  16.235  0.00  0.00    +0.000 F 
BRANCH  17  21
ATOM     20  C   UNL     1       7.678   5.859  18.332  0.00  0.00    +0.000 C 
ATOM     21  C   UNL     1       7.449   4.705  17.371  0.00  0.00    +0.000 C 
ENDBRANCH  17  21
ENDBRANCH   9  17
ENDBRANCH   8  14
ENDBRANCH   1   8
BRANCH   5  22
ATOM     22  O   UNL     1      -0.471  11.651  19.525  0.00  0.00    +0.000 OA
BRANCH  22  23
ATOM     23  C   UNL     1      -1.826  11.924  19.526  0.00  0.00    +0.000 A 
ATOM     24  C   UNL     1      -2.439  12.712  20.511  0.00  0.00    +0.000 A 
ATOM     25  C   UNL     1      -3.806  12.962  20.462  0.00  0.00    +0.000 A 
ATOM     26  C   UNL     1      -4.518  12.371  19.437  0.00  0.00    +0.000 A 
ATOM     27  N   UNL     1      -3.993  11.555  18.485  0.00  0.00    +0.000 NA
ATOM     28  C   UNL     1      -2.648  11.335  18.550  0.00  0.00    +0.000 A 
ATOM     29  C   UNL     1      -2.100  10.400  17.512  0.00  0.00    +0.000 C 
BRANCH  26  30
ATOM     30  S   UNL     1      -6.269  12.651  19.334  0.00  0.00    +0.000 S 
ATOM     31  C   UNL     1      -6.856  11.578  18.053  0.00  0.00    +0.000 C 
ATOM     32  O   UNL     1      -6.842  12.196  20.590  0.00  0.00    +0.000 OA
ATOM     33  O   UNL     1      -6.456  14.021  18.888  0.00  0.00    +0.000 OA
ENDBRANCH  26  30
ENDBRANCH  22  23
ENDBRANCH   5  22
TORSDOF 7
ENDMDL
MODEL 9
REMARK VINA RESULT:      -7.5      1.399      1.671
REMARK  Name = 
REMARK  10 active torsions:
REMARK  status: ('A' for Active; 'I' for Inactive)
REMARK    1  A    between atoms: C_1  and  C_2
REMARK    2  A    between atoms: C_2  and  C_3
REMARK    3  A    between atoms: C_3  and  C_6
REMARK    4  A    between atoms: C_11  and  O_12
REMARK    5  A    between atoms: O_12  and  C_13
REMARK    6  A    between atoms: C_17  and  O_18
REMARK    7  A    between atoms: O_18  and  C_19
REMARK    8  A    between atoms: C_22  and  S_23
REMARK    9  A    between atoms: S_23  and  C_24
REMARK   10  A    between atoms: C_28  and  C_29
REMARK                            x       y       z     vdW  Elec       q    Type
REMARK                         _______ _______ _______ _____ _____    ______ ____
ROOT
ATOM      1  C   UNL     1       2.039   7.938  19.004  0.00  0.00    +0.000 A 
ATOM      2  N   UNL     1       1.842   7.464  20.252  0.00  0.00    +0.000 NA
ATOM      3  C   UNL     1       1.227   8.297  21.105  0.00  0.00    +0.000 A 
ATOM      4  N   UNL     1       0.781   9.527  20.818  0.00  0.00    +0.000 NA
ATOM      5  C   UNL     1       0.951   9.934  19.538  0.00  0.00    +0.000 A 
ATOM      6  C   UNL     1       1.609   9.182  18.589  0.00  0.00    +0.000 A 
ATOM      7  F   UNL     1       1.804   9.625  17.339  0.00  0.00    +0.000 F 
ENDROOT
BRANCH   1   8
ATOM      8  O   UNL     1       2.699   7.148  18.078  0.00  0.00    +0.000 OA
BRANCH   8  14
ATOM      9  C   UNL     1       6.379   5.285  15.498  0.00  0.00    +0.000 C 
ATOM     10  O   UNL     1       7.449   5.911  15.523  0.00  0.00    +0.000 OA
ATOM     11  N   UNL     1       5.321   5.664  16.324  0.00  0.00    +0.000 N 
ATOM     12  C   UNL     1       5.455   6.891  17.100  0.00  0.00    +0.000 C 
ATOM     13  C   UNL     1       5.062   6.638  18.547  0.00  0.00    +0.000 C 
ATOM     14  C   UNL     1       3.604   6.165  18.618  0.00  0.00    +0.000 C 
ATOM     15  C   UNL     1       3.468   4.880  17.777  0.00  0.00    +0.000 C 
ATOM     16  C   UNL     1       3.989   5.050  16.343  0.00  0.00    +0.000 C 
BRANCH   9  17
ATOM     17  C   UNL     1       6.205   4.064  14.565  0.00  0.00    +0.000 C 
ATOM     18  F   UNL     1       4.966   4.054  13.986  0.00  0.00    +0.000 F 
ATOM     19  F   UNL     1       6.306   2.890  15.256  0.00  0.00    +0.000 F 
BRANCH  17  21
ATOM     20  C   UNL     1       6.746   3.537  12.137  0.00  0.00    +0.000 C 
ATOM     21  C   UNL     1       7.263   4.076  13.460  0.00  0.00    +0.000 C 
ENDBRANCH  17  21
ENDBRANCH   9  17
ENDBRANCH   8  14
ENDBRANCH   1   8
BRANCH   5  22
ATOM     22  O   UNL     1       0.437  11.172  19.159  0.00  0.00    +0.000 OA
BRANCH  22  23
ATOM     23  C   UNL     1      -0.933  11.278  18.999  0.00  0.00    +0.000 A 
ATOM     24  C   UNL     1      -1.631  10.604  17.987  0.00  0.00    +0.000 A 
ATOM     25  C   UNL     1      -3.011  10.738  17.875  0.00  0.00    +0.000 A 
ATOM     26  C   UNL     1      -3.636  11.586  18.769  0.00  0.00    +0.000 A 
ATOM     27  N   UNL     1      -3.009  12.306  19.736  0.00  0.00    +0.000 NA
ATOM     28  C   UNL     1      -1.658  12.148  19.830  0.00  0.00    +0.000 A 
ATOM     29  C   UNL     1      -0.986  12.985  20.880  0.00  0.00    +0.000 C 
BRANCH  26  30
ATOM     30  S   UNL     1      -5.395  11.800  18.662  0.00  0.00    +0.000 S 
ATOM     31  C   UNL     1      -5.710  12.415  17.031  0.00  0.00    +0.000 C 
ATOM     32  O   UNL     1      -5.987  10.476  18.758  0.00  0.00    +0.000 OA
ATOM     33  O   UNL     1      -5.756  12.843  19.608  0.00  0.00    +0.000 OA
ENDBRANCH  26  30
ENDBRANCH  22  23
ENDBRANCH   5  22
TORSDOF 7
ENDMDL
