MODEL 1
REMARK VINA RESULT:      -6.9      0.000      0.000
REMARK  Name = 
REMARK  10 active torsions:
REMARK  status: ('A' for Active; 'I' for Inactive)
REMARK    1  A    between atoms: C_1  and  C_2
REMARK    2  A    between atoms: C_2  and  N_3
REMARK    3  A    between atoms: N_3  and  C_4
REMARK    4  A    between atoms: N_3  and  C_6
REMARK    5  A    between atoms: C_4  and  C_5
REMARK    6  A    between atoms: C_6  and  C_7
REMARK    7  A    between atoms: C_8  and  C_9
REMARK    8  A    between atoms: C_14  and  N_15
REMARK    9  A    between atoms: C_16  and  C_17
REMARK   10  A    between atoms: C_21  and  O_22
REMARK                            x       y       z     vdW  Elec       q    Type
REMARK                         _______ _______ _______ _____ _____    ______ ____
ROOT
ATOM      1  C   UNL     1       3.063   5.676  19.161  0.00  0.00    +0.000 A 
ATOM      2  C   UNL     1       3.546   6.229  17.975  0.00  0.00    +0.000 A 
ATOM      3  C   UNL     1       4.415   5.503  16.992  0.00  0.00    +0.000 C 
ATOM      4  N   UNL     1       3.237   7.495  17.588  0.00  0.00    +0.000 NA
ATOM      5  C   UNL     1       2.427   8.248  18.342  0.00  0.00    +0.000 A 
ATOM      6  C   UNL     1       1.996   9.457  17.828  0.00  0.00    +0.000 A 
ATOM      7  C   UNL     1       1.090  10.275  18.513  0.00  0.00    +0.000 A 
ATOM      8  C   UNL     1       0.652   9.923  19.782  0.00  0.00    +0.000 A 
ATOM      9  C   UNL     1       1.130   8.728  20.344  0.00  0.00    +0.000 A 
ATOM     10  C   UNL     1       1.964   7.842  19.604  0.00  0.00    +0.000 A 
ATOM     11  C   UNL     1       2.329   6.534  20.000  0.00  0.00    +0.000 A 
ENDROOT
BRANCH   8  12
ATOM     12  N   UNL     1      -0.272  10.678  20.537  0.00  0.00    +0.000 N 
ATOM     13  C   UNL     1      -0.001  11.801  21.300  0.00  0.00    +0.000 C 
ATOM     14  C   UNL     1      -1.231  12.384  21.944  0.00  0.00    +0.000 C 
ATOM     15  O   UNL     1       1.098  12.312  21.490  0.00  0.00    +0.000 OA
ATOM     16  H   UNL     1      -1.242  10.395  20.473  0.00  0.00    +0.000 HD
ENDBRANCH   8  12
BRANCH  11  17
ATOM     17  O   UNL     1       1.919   6.013  21.207  0.00  0.00    +0.000 OA
ATOM     18  H   UNL     1       1.602   6.723  21.781  0.00  0.00    +0.000 HD
ENDBRANCH  11  17
BRANCH   1  19
ATOM     19  C   UNL     1       3.125   4.192  19.470  0.00  0.00    +0.000 C 
BRANCH  19  20
ATOM     20  N   UNL     1       1.919   3.395  19.191  0.00  0.00    +0.000 NA
BRANCH  20  22
ATOM     21  C   UNL     1       3.459   1.755  18.086  0.00  0.00    +0.000 C 
ATOM     22  C   UNL     1       2.125   2.495  18.047  0.00  0.00    +0.000 C 
ENDBRANCH  20  22
BRANCH  20  23
ATOM     23  C   UNL     1       1.443   2.729  20.417  0.00  0.00    +0.000 C 
ATOM     24  C   UNL     1       2.413   2.671  21.596  0.00  0.00    +0.000 C 
ENDBRANCH  20  23
ENDBRANCH  19  20
ENDBRANCH   1  19
TORSDOF 6
ENDMDL
MODEL 2
REMARK VINA RESULT:      -6.7      2.436      4.455
REMARK  Name = 
REMARK  10 active torsions:
REMARK  status: ('A' for Active; 'I' for Inactive)
REMARK    1  A    between atoms: C_1  and  C_2
REMARK    2  A    between atoms: C_2  and  N_3
REMARK    3  A    between atoms: N_3  and  C_4
REMARK    4  A    between atoms: N_3  and  C_6
REMARK    5  A    between atoms: C_4  and  C_5
REMARK    6  A    between atoms: C_6  and  C_7
REMARK    7  A    between atoms: C_8  and  C_9
REMARK    8  A    between atoms: C_14  and  N_15
REMARK    9  A    between atoms: C_16  and  C_17
REMARK   10  A    between atoms: C_21  and  O_22
REMARK                            x       y       z     vdW  Elec       q    Type
REMARK                         _______ _______ _______ _____ _____    ______ ____
ROOT
ATOM      1  C   UNL     1       4.095   4.263  17.339  0.00  0.00    +0.000 A 
ATOM      2  C   UNL     1       3.439   3.326  18.137  0.00  0.00    +0.000 A 
ATOM      3  C   UNL     1       3.623   1.841  18.027  0.00  0.00    +0.000 C 
ATOM      4  N   UNL     1       2.577   3.691  19.123  0.00  0.00    +0.000 NA
ATOM      5  C   UNL     1       2.351   4.987  19.371  0.00  0.00    +0.000 A 
ATOM      6  C   UNL     1       1.611   5.315  20.492  0.00  0.00    +0.000 A 
ATOM      7  C   UNL     1       1.388   6.644  20.870  0.00  0.00    +0.000 A 
ATOM      8  C   UNL     1       1.848   7.684  20.075  0.00  0.00    +0.000 A 
ATOM      9  C   UNL     1       2.546   7.365  18.900  0.00  0.00    +0.000 A 
ATOM     10  C   UNL     1       2.869   6.017  18.571  0.00  0.00    +0.000 A 
ATOM     11  C   UNL     1       3.735   5.610  17.529  0.00  0.00    +0.000 A 
ENDROOT
BRANCH   8  12
ATOM     12  N   UNL     1       1.683   9.051  20.388  0.00  0.00    +0.000 N 
ATOM     13  C   UNL     1       0.761   9.925  19.837  0.00  0.00    +0.000 C 
ATOM     14  C   UNL     1       0.834  11.307  20.431  0.00  0.00    +0.000 C 
ATOM     15  O   UNL     1      -0.046   9.675  18.947  0.00  0.00    +0.000 OA
ATOM     16  H   UNL     1       2.269   9.416  21.129  0.00  0.00    +0.000 HD
ENDBRANCH   8  12
BRANCH  11  17
ATOM     17  O   UNL     1       4.323   6.529  16.690  0.00  0.00    +0.000 OA
ATOM     18  H   UNL     1       4.372   6.172  15.793  0.00  0.00    +0.000 HD
ENDBRANCH  11  17
BRANCH   1  19
ATOM     19  C   UNL     1       5.279   3.918  16.455  0.00  0.00    +0.000 C 
BRANCH  19  20
ATOM     20  N   UNL     1       6.417   4.852  16.460  0.00  0.00    +0.000 NA
BRANCH  20  22
ATOM     21  C   UNL     1       7.465   5.636  18.597  0.00  0.00    +0.000 C 
ATOM     22  C   UNL     1       7.363   4.540  17.541  0.00  0.00    +0.000 C 
ENDBRANCH  20  22
BRANCH  20  23
ATOM     23  C   UNL     1       7.025   4.934  15.118  0.00  0.00    +0.000 C 
ATOM     24  C   UNL     1       6.372   4.110  14.009  0.00  0.00    +0.000 C 
ENDBRANCH  20  23
ENDBRANCH  19  20
ENDBRANCH   1  19
TORSDOF 6
ENDMDL
MODEL 3
REMARK VINA RESULT:      -6.7      0.992      1.001
REMARK  Name = 
REMARK  10 active torsions:
REMARK  status: ('A' for Active; 'I' for Inactive)
REMARK    1  A    between atoms: C_1  and  C_2
REMARK    2  A    between atoms: C_2  and  N_3
REMARK    3  A    between atoms: N_3  and  C_4
REMARK    4  A    between atoms: N_3  and  C_6
REMARK    5  A    between atoms: C_4  and  C_5
REMARK    6  A    between atoms: C_6  and  C_7
REMARK    7  A    between atoms: C_8  and  C_9
REMARK    8  A    between atoms: C_14  and  N_15
REMARK    9  A    between atoms: C_16  and  C_17
REMARK   10  A    between atoms: C_21  and  O_22
REMARK                            x       y       z     vdW  Elec       q    Type
REMARK                         _______ _______ _______ _____ _____    ______ ____
ROOT
ATOM      1  C   UNL     1       3.336   5.707  19.026  0.00  0.00    +0.000 A 
ATOM      2  C   UNL     1       3.677   6.396  17.863  0.00  0.00    +0.000 A 
ATOM      3  C   UNL     1       4.541   5.839  16.769  0.00  0.00    +0.000 C 
ATOM      4  N   UNL     1       3.221   7.650  17.602  0.00  0.00    +0.000 NA
ATOM      5  C   UNL     1       2.397   8.257  18.466  0.00  0.00    +0.000 A 
ATOM      6  C   UNL     1       1.817   9.451  18.082  0.00  0.00    +0.000 A 
ATOM      7  C   UNL     1       0.887  10.117  18.889  0.00  0.00    +0.000 A 
ATOM      8  C   UNL     1       0.577   9.627  20.149  0.00  0.00    +0.000 A 
ATOM      9  C   UNL     1       1.206   8.448  20.578  0.00  0.00    +0.000 A 
ATOM     10  C   UNL     1       2.067   7.710  19.717  0.00  0.00    +0.000 A 
ATOM     11  C   UNL     1       2.584   6.420  19.978  0.00  0.00    +0.000 A 
ENDROOT
BRANCH   8  12
ATOM     12  N   UNL     1      -0.361  10.224  21.021  0.00  0.00    +0.000 N 
ATOM     13  C   UNL     1      -0.236  10.384  22.391  0.00  0.00    +0.000 C 
ATOM     14  C   UNL     1      -1.409  11.100  23.006  0.00  0.00    +0.000 C 
ATOM     15  O   UNL     1       0.690   9.994  23.094  0.00  0.00    +0.000 OA
ATOM     16  H   UNL     1      -1.187  10.619  20.590  0.00  0.00    +0.000 HD
ENDBRANCH   8  12
BRANCH  11  17
ATOM     17  O   UNL     1       2.313   5.770  21.162  0.00  0.00    +0.000 OA
ATOM     18  H   UNL     1       2.241   6.411  21.881  0.00  0.00    +0.000 HD
ENDBRANCH  11  17
BRANCH   1  19
ATOM     19  C   UNL     1       3.563   4.219  19.207  0.00  0.00    +0.000 C 
BRANCH  19  20
ATOM     20  N   UNL     1       2.411   3.410  19.641  0.00  0.00    +0.000 NA
BRANCH  20  22
ATOM     21  C   UNL     1       2.670   2.729  17.243  0.00  0.00    +0.000 C 
ATOM     22  C   UNL     1       1.962   2.502  18.575  0.00  0.00    +0.000 C 
ENDBRANCH  20  22
BRANCH  20  23
ATOM     23  C   UNL     1       2.697   2.749  20.928  0.00  0.00    +0.000 C 
ATOM     24  C   UNL     1       1.502   2.437  21.828  0.00  0.00    +0.000 C 
ENDBRANCH  20  23
ENDBRANCH  19  20
ENDBRANCH   1  19
TORSDOF 6
ENDMDL
MODEL 4
REMARK VINA RESULT:      -6.6      2.613      7.364
REMARK  Name = 
REMARK  10 active torsions:
REMARK  status: ('A' for Active; 'I' for Inactive)
REMARK    1  A    between atoms: C_1  and  C_2
REMARK    2  A    between atoms: C_2  and  N_3
REMARK    3  A    between atoms: N_3  and  C_4
REMARK    4  A    between atoms: N_3  and  C_6
REMARK    5  A    between atoms: C_4  and  C_5
REMARK    6  A    between atoms: C_6  and  C_7
REMARK    7  A    between atoms: C_8  and  C_9
REMARK    8  A    between atoms: C_14  and  N_15
REMARK    9  A    between atoms: C_16  and  C_17
REMARK   10  A    between atoms: C_21  and  O_22
REMARK                            x       y       z     vdW  Elec       q    Type
REMARK                         _______ _______ _______ _____ _____    ______ ____
ROOT
ATOM      1  C   UNL     1       0.848   9.853  19.392  0.00  0.00    +0.000 A 
ATOM      2  C   UNL     1       0.727   9.128  20.577  0.00  0.00    +0.000 A 
ATOM      3  C   UNL     1      -0.122   9.543  21.743  0.00  0.00    +0.000 C 
ATOM      4  N   UNL     1       1.361   7.941  20.768  0.00  0.00    +0.000 NA
ATOM      5  C   UNL     1       2.115   7.418  19.793  0.00  0.00    +0.000 A 
ATOM      6  C   UNL     1       2.595   6.133  19.960  0.00  0.00    +0.000 A 
ATOM      7  C   UNL     1       3.329   5.480  18.963  0.00  0.00    +0.000 A 
ATOM      8  C   UNL     1       3.663   6.145  17.792  0.00  0.00    +0.000 A 
ATOM      9  C   UNL     1       3.237   7.473  17.635  0.00  0.00    +0.000 A 
ATOM     10  C   UNL     1       2.398   8.102  18.600  0.00  0.00    +0.000 A 
ATOM     11  C   UNL     1       1.755   9.351  18.440  0.00  0.00    +0.000 A 
ENDROOT
BRANCH   8  12
ATOM     12  N   UNL     1       4.384   5.559  16.728  0.00  0.00    +0.000 N 
ATOM     13  C   UNL     1       5.610   5.969  16.229  0.00  0.00    +0.000 C 
ATOM     14  C   UNL     1       6.112   5.092  15.113  0.00  0.00    +0.000 C 
ATOM     15  O   UNL     1       6.263   6.941  16.595  0.00  0.00    +0.000 OA
ATOM     16  H   UNL     1       3.985   4.723  16.321  0.00  0.00    +0.000 HD
ENDBRANCH   8  12
BRANCH  11  17
ATOM     17  O   UNL     1       1.935  10.107  17.303  0.00  0.00    +0.000 OA
ATOM     18  H   UNL     1       2.862  10.370  17.227  0.00  0.00    +0.000 HD
ENDBRANCH  11  17
BRANCH   1  19
ATOM     19  C   UNL     1      -0.071  11.002  19.023  0.00  0.00    +0.000 C 
BRANCH  19  20
ATOM     20  N   UNL     1      -1.493  10.684  18.807  0.00  0.00    +0.000 NA
BRANCH  20  22
ATOM     21  C   UNL     1      -1.893  12.589  20.385  0.00  0.00    +0.000 C 
ATOM     22  C   UNL     1      -2.355  11.824  19.148  0.00  0.00    +0.000 C 
ENDBRANCH  20  22
BRANCH  20  23
ATOM     23  C   UNL     1      -1.702  10.141  17.452  0.00  0.00    +0.000 C 
ATOM     24  C   UNL     1      -3.126   9.729  17.082  0.00  0.00    +0.000 C 
ENDBRANCH  20  23
ENDBRANCH  19  20
ENDBRANCH   1  19
TORSDOF 6
ENDMDL
MODEL 5
REMARK VINA RESULT:      -6.6      1.013      1.013
REMARK  Name = 
REMARK  10 active torsions:
REMARK  status: ('A' for Active; 'I' for Inactive)
REMARK    1  A    between atoms: C_1  and  C_2
REMARK    2  A    between atoms: C_2  and  N_3
REMARK    3  A    between atoms: N_3  and  C_4
REMARK    4  A    between atoms: N_3  and  C_6
REMARK    5  A    between atoms: C_4  and  C_5
REMARK    6  A    between atoms: C_6  and  C_7
REMARK    7  A    between atoms: C_8  and  C_9
REMARK    8  A    between atoms: C_14  and  N_15
REMARK    9  A    between atoms: C_16  and  C_17
REMARK   10  A    between atoms: C_21  and  O_22
REMARK                            x       y       z     vdW  Elec       q    Type
REMARK                         _______ _______ _______ _____ _____    ______ ____
ROOT
ATOM      1  C   UNL     1       2.997   5.676  19.174  0.00  0.00    +0.000 A 
ATOM      2  C   UNL     1       3.512   6.163  17.974  0.00  0.00    +0.000 A 
ATOM      3  C   UNL     1       4.342   5.357  17.017  0.00  0.00    +0.000 C 
ATOM      4  N   UNL     1       3.277   7.432  17.546  0.00  0.00    +0.000 NA
ATOM      5  C   UNL     1       2.510   8.253  18.273  0.00  0.00    +0.000 A 
ATOM      6  C   UNL     1       2.151   9.468  17.719  0.00  0.00    +0.000 A 
ATOM      7  C   UNL     1       1.291  10.357  18.375  0.00  0.00    +0.000 A 
ATOM      8  C   UNL     1       0.831  10.071  19.652  0.00  0.00    +0.000 A 
ATOM      9  C   UNL     1       1.239   8.870  20.253  0.00  0.00    +0.000 A 
ATOM     10  C   UNL     1       2.022   7.914  19.545  0.00  0.00    +0.000 A 
ATOM     11  C   UNL     1       2.311   6.601  19.983  0.00  0.00    +0.000 A 
ENDROOT
BRANCH   8  12
ATOM     12  N   UNL     1      -0.051  10.901  20.379  0.00  0.00    +0.000 N 
ATOM     13  C   UNL     1      -1.296  11.350  19.971  0.00  0.00    +0.000 C 
ATOM     14  C   UNL     1      -1.988  12.188  21.013  0.00  0.00    +0.000 C 
ATOM     15  O   UNL     1      -1.832  11.141  18.888  0.00  0.00    +0.000 OA
ATOM     16  H   UNL     1       0.239  11.153  21.316  0.00  0.00    +0.000 HD
ENDBRANCH   8  12
BRANCH  11  17
ATOM     17  O   UNL     1       1.869   6.143  21.204  0.00  0.00    +0.000 OA
ATOM     18  H   UNL     1       1.051   5.642  21.091  0.00  0.00    +0.000 HD
ENDBRANCH  11  17
BRANCH   1  19
ATOM     19  C   UNL     1       2.973   4.202  19.530  0.00  0.00    +0.000 C 
BRANCH  19  20
ATOM     20  N   UNL     1       1.736   3.458  19.239  0.00  0.00    +0.000 NA
BRANCH  20  22
ATOM     21  C   UNL     1       3.312   1.861  18.121  0.00  0.00    +0.000 C 
ATOM     22  C   UNL     1       1.930   2.508  18.134  0.00  0.00    +0.000 C 
ENDBRANCH  20  22
BRANCH  20  23
ATOM     23  C   UNL     1       1.188   2.862  20.471  0.00  0.00    +0.000 C 
ATOM     24  C   UNL     1       2.143   2.714  21.655  0.00  0.00    +0.000 C 
ENDBRANCH  20  23
ENDBRANCH  19  20
ENDBRANCH   1  19
TORSDOF 6
ENDMDL
MODEL 6
REMARK VINA RESULT:      -6.6      1.528      1.765
REMARK  Name = 
REMARK  10 active torsions:
REMARK  status: ('A' for Active; 'I' for Inactive)
REMARK    1  A    between atoms: C_1  and  C_2
REMARK    2  A    between atoms: C_2  and  N_3
REMARK    3  A    between atoms: N_3  and  C_4
REMARK    4  A    between atoms: N_3  and  C_6
REMARK    5  A    between atoms: C_4  and  C_5
REMARK    6  A    between atoms: C_6  and  C_7
REMARK    7  A    between atoms: C_8  and  C_9
REMARK    8  A    between atoms: C_14  and  N_15
REMARK    9  A    between atoms: C_16  and  C_17
REMARK   10  A    between atoms: C_21  and  O_22
REMARK                            x       y       z     vdW  Elec       q    Type
REMARK                         _______ _______ _______ _____ _____    ______ ____
ROOT
ATOM      1  C   UNL     1       4.034   5.488  18.395  0.00  0.00    +0.000 A 
ATOM      2  C   UNL     1       4.219   6.305  17.280  0.00  0.00    +0.000 A 
ATOM      3  C   UNL     1       5.055   5.939  16.089  0.00  0.00    +0.000 C 
ATOM      4  N   UNL     1       3.618   7.519  17.164  0.00  0.00    +0.000 NA
ATOM      5  C   UNL     1       2.800   7.958  18.129  0.00  0.00    +0.000 A 
ATOM      6  C   UNL     1       2.074   9.110  17.892  0.00  0.00    +0.000 A 
ATOM      7  C   UNL     1       1.140   9.600  18.812  0.00  0.00    +0.000 A 
ATOM      8  C   UNL     1       0.973   8.975  20.039  0.00  0.00    +0.000 A 
ATOM      9  C   UNL     1       1.750   7.840  20.320  0.00  0.00    +0.000 A 
ATOM     10  C   UNL     1       2.618   7.275  19.343  0.00  0.00    +0.000 A 
ATOM     11  C   UNL     1       3.283   6.032  19.453  0.00  0.00    +0.000 A 
ENDROOT
BRANCH   8  12
ATOM     12  N   UNL     1       0.043   9.391  21.019  0.00  0.00    +0.000 N 
ATOM     13  C   UNL     1       0.319   9.743  22.329  0.00  0.00    +0.000 C 
ATOM     14  C   UNL     1      -0.906  10.177  23.090  0.00  0.00    +0.000 C 
ATOM     15  O   UNL     1       1.414   9.713  22.882  0.00  0.00    +0.000 OA
ATOM     16  H   UNL     1      -0.917   9.487  20.714  0.00  0.00    +0.000 HD
ENDBRANCH   8  12
BRANCH  11  17
ATOM     17  O   UNL     1       3.166   5.259  20.587  0.00  0.00    +0.000 OA
ATOM     18  H   UNL     1       3.142   5.824  21.370  0.00  0.00    +0.000 HD
ENDBRANCH  11  17
BRANCH   1  19
ATOM     19  C   UNL     1       4.426   4.023  18.425  0.00  0.00    +0.000 C 
BRANCH  19  20
ATOM     20  N   UNL     1       3.520   3.070  17.762  0.00  0.00    +0.000 NA
BRANCH  20  22
ATOM     21  C   UNL     1       4.254   1.759  19.768  0.00  0.00    +0.000 C 
ATOM     22  C   UNL     1       3.566   1.750  18.407  0.00  0.00    +0.000 C 
ENDBRANCH  20  22
BRANCH  20  23
ATOM     23  C   UNL     1       2.167   3.644  17.637  0.00  0.00    +0.000 C 
ATOM     24  C   UNL     1       1.096   3.110  18.588  0.00  0.00    +0.000 C 
ENDBRANCH  20  23
ENDBRANCH  19  20
ENDBRANCH   1  19
TORSDOF 6
ENDMDL
MODEL 7
REMARK VINA RESULT:      -6.5      2.438      4.233
REMARK  Name = 
REMARK  10 active torsions:
REMARK  status: ('A' for Active; 'I' for Inactive)
REMARK    1  A    between atoms: C_1  and  C_2
REMARK    2  A    between atoms: C_2  and  N_3
REMARK    3  A    between atoms: N_3  and  C_4
REMARK    4  A    between atoms: N_3  and  C_6
REMARK    5  A    between atoms: C_4  and  C_5
REMARK    6  A    between atoms: C_6  and  C_7
REMARK    7  A    between atoms: C_8  and  C_9
REMARK    8  A    between atoms: C_14  and  N_15
REMARK    9  A    between atoms: C_16  and  C_17
REMARK   10  A    between atoms: C_21  and  O_22
REMARK                            x       y       z     vdW  Elec       q    Type
REMARK                         _______ _______ _______ _____ _____    ______ ____
ROOT
ATOM      1  C   UNL     1       4.188   4.844  18.113  0.00  0.00    +0.000 A 
ATOM      2  C   UNL     1       3.681   4.279  19.283  0.00  0.00    +0.000 A 
ATOM      3  C   UNL     1       4.045   2.916  19.794  0.00  0.00    +0.000 C 
ATOM      4  N   UNL     1       2.816   4.945  20.094  0.00  0.00    +0.000 NA
ATOM      5  C   UNL     1       2.440   6.194  19.791  0.00  0.00    +0.000 A 
ATOM      6  C   UNL     1       1.705   6.896  20.728  0.00  0.00    +0.000 A 
ATOM      7  C   UNL     1       1.332   8.231  20.529  0.00  0.00    +0.000 A 
ATOM      8  C   UNL     1       1.630   8.869  19.334  0.00  0.00    +0.000 A 
ATOM      9  C   UNL     1       2.321   8.148  18.348  0.00  0.00    +0.000 A 
ATOM     10  C   UNL     1       2.797   6.828  18.591  0.00  0.00    +0.000 A 
ATOM     11  C   UNL     1       3.669   6.100  17.748  0.00  0.00    +0.000 A 
ENDROOT
BRANCH   8  12
ATOM     12  N   UNL     1       1.308  10.216  19.056  0.00  0.00    +0.000 N 
ATOM     13  C   UNL     1       0.043  10.745  18.863  0.00  0.00    +0.000 C 
ATOM     14  C   UNL     1       0.059  12.232  18.624  0.00  0.00    +0.000 C 
ATOM     15  O   UNL     1      -1.017  10.128  18.855  0.00  0.00    +0.000 OA
ATOM     16  H   UNL     1       2.081  10.870  19.045  0.00  0.00    +0.000 HD
ENDBRANCH   8  12
BRANCH  11  17
ATOM     17  O   UNL     1       4.109   6.624  16.553  0.00  0.00    +0.000 OA
ATOM     18  H   UNL     1       3.396   6.601  15.902  0.00  0.00    +0.000 HD
ENDBRANCH  11  17
BRANCH   1  19
ATOM     19  C   UNL     1       5.373   4.271  17.360  0.00  0.00    +0.000 C 
BRANCH  19  20
ATOM     20  N   UNL     1       6.465   5.197  17.018  0.00  0.00    +0.000 NA
BRANCH  20  22
ATOM     21  C   UNL     1       7.857   6.816  18.331  0.00  0.00    +0.000 C 
ATOM     22  C   UNL     1       7.389   5.376  18.147  0.00  0.00    +0.000 C 
ENDBRANCH  20  22
BRANCH  20  23
ATOM     23  C   UNL     1       7.112   4.793  15.756  0.00  0.00    +0.000 C 
ATOM     24  C   UNL     1       6.198   4.297  14.636  0.00  0.00    +0.000 C 
ENDBRANCH  20  23
ENDBRANCH  19  20
ENDBRANCH   1  19
TORSDOF 6
ENDMDL
MODEL 8
REMARK VINA RESULT:      -6.4      2.601      7.520
REMARK  Name = 
REMARK  10 active torsions:
REMARK  status: ('A' for Active; 'I' for Inactive)
REMARK    1  A    between atoms: C_1  and  C_2
REMARK    2  A    between atoms: C_2  and  N_3
REMARK    3  A    between atoms: N_3  and  C_4
REMARK    4  A    between atoms: N_3  and  C_6
REMARK    5  A    between atoms: C_4  and  C_5
REMARK    6  A    between atoms: C_6  and  C_7
REMARK    7  A    between atoms: C_8  and  C_9
REMARK    8  A    between atoms: C_14  and  N_15
REMARK    9  A    between atoms: C_16  and  C_17
REMARK   10  A    between atoms: C_21  and  O_22
REMARK                            x       y       z     vdW  Elec       q    Type
REMARK                         _______ _______ _______ _____ _____    ______ ____
ROOT
ATOM      1  C   UNL     1       0.962   9.463  19.508  0.00  0.00    +0.000 A 
ATOM      2  C   UNL     1       0.928   8.705  20.678  0.00  0.00    +0.000 A 
ATOM      3  C   UNL     1       0.125   9.058  21.895  0.00  0.00    +0.000 C 
ATOM      4  N   UNL     1       1.615   7.538  20.807  0.00  0.00    +0.000 NA
ATOM      5  C   UNL     1       2.337   7.069  19.782  0.00  0.00    +0.000 A 
ATOM      6  C   UNL     1       2.872   5.799  19.890  0.00  0.00    +0.000 A 
ATOM      7  C   UNL     1       3.577   5.199  18.841  0.00  0.00    +0.000 A 
ATOM      8  C   UNL     1       3.828   5.905  17.673  0.00  0.00    +0.000 A 
ATOM      9  C   UNL     1       3.345   7.220  17.573  0.00  0.00    +0.000 A 
ATOM     10  C   UNL     1       2.534   7.792  18.594  0.00  0.00    +0.000 A 
ATOM     11  C   UNL     1       1.838   9.019  18.500  0.00  0.00    +0.000 A 
ENDROOT
BRANCH   8  12
ATOM     12  N   UNL     1       4.515   5.373  16.559  0.00  0.00    +0.000 N 
ATOM     13  C   UNL     1       5.731   5.800  16.052  0.00  0.00    +0.000 C 
ATOM     14  C   UNL     1       6.195   4.982  14.876  0.00  0.00    +0.000 C 
ATOM     15  O   UNL     1       6.403   6.745  16.453  0.00  0.00    +0.000 OA
ATOM     16  H   UNL     1       4.097   4.564  16.118  0.00  0.00    +0.000 HD
ENDBRANCH   8  12
BRANCH  11  17
ATOM     17  O   UNL     1       1.932   9.809  17.375  0.00  0.00    +0.000 OA
ATOM     18  H   UNL     1       1.824  10.738  17.616  0.00  0.00    +0.000 HD
ENDBRANCH  11  17
BRANCH   1  19
ATOM     19  C   UNL     1      -0.016  10.584  19.216  0.00  0.00    +0.000 C 
BRANCH  19  20
ATOM     20  N   UNL     1       0.545  11.929  19.005  0.00  0.00    +0.000 NA
BRANCH  20  22
ATOM     21  C   UNL     1      -1.728  12.141  17.972  0.00  0.00    +0.000 C 
ATOM     22  C   UNL     1      -0.453  12.842  18.429  0.00  0.00    +0.000 C 
ENDBRANCH  20  22
BRANCH  20  23
ATOM     23  C   UNL     1       1.186  12.423  20.238  0.00  0.00    +0.000 C 
ATOM     24  C   UNL     1       2.122  13.623  20.102  0.00  0.00    +0.000 C 
ENDBRANCH  20  23
ENDBRANCH  19  20
ENDBRANCH   1  19
TORSDOF 6
ENDMDL
MODEL 9
REMARK VINA RESULT:      -6.4      2.654      7.321
REMARK  Name = 
REMARK  10 active torsions:
REMARK  status: ('A' for Active; 'I' for Inactive)
REMARK    1  A    between atoms: C_1  and  C_2
REMARK    2  A    between atoms: C_2  and  N_3
REMARK    3  A    between atoms: N_3  and  C_4
REMARK    4  A    between atoms: N_3  and  C_6
REMARK    5  A    between atoms: C_4  and  C_5
REMARK    6  A    between atoms: C_6  and  C_7
REMARK    7  A    between atoms: C_8  and  C_9
REMARK    8  A    between atoms: C_14  and  N_15
REMARK    9  A    between atoms: C_16  and  C_17
REMARK   10  A    between atoms: C_21  and  O_22
REMARK                            x       y       z     vdW  Elec       q    Type
REMARK                         _______ _______ _______ _____ _____    ______ ____
ROOT
ATOM      1  C   UNL     1       0.676   9.626  19.695  0.00  0.00    +0.000 A 
ATOM      2  C   UNL     1       0.628   8.822  20.834  0.00  0.00    +0.000 A 
ATOM      3  C   UNL     1      -0.211   9.112  22.043  0.00  0.00    +0.000 C 
ATOM      4  N   UNL     1       1.333   7.664  20.933  0.00  0.00    +0.000 NA
ATOM      5  C   UNL     1       2.090   7.249  19.909  0.00  0.00    +0.000 A 
ATOM      6  C   UNL     1       2.646   5.985  19.981  0.00  0.00    +0.000 A 
ATOM      7  C   UNL     1       3.388   5.440  18.927  0.00  0.00    +0.000 A 
ATOM      8  C   UNL     1       3.653   6.196  17.794  0.00  0.00    +0.000 A 
ATOM      9  C   UNL     1       3.148   7.505  17.734  0.00  0.00    +0.000 A 
ATOM     10  C   UNL     1       2.301   8.021  18.756  0.00  0.00    +0.000 A 
ATOM     11  C   UNL     1       1.584   9.238  18.693  0.00  0.00    +0.000 A 
ENDROOT
BRANCH   8  12
ATOM     12  N   UNL     1       4.377   5.721  16.678  0.00  0.00    +0.000 N 
ATOM     13  C   UNL     1       5.729   5.891  16.432  0.00  0.00    +0.000 C 
ATOM     14  C   UNL     1       6.183   5.218  15.163  0.00  0.00    +0.000 C 
ATOM     15  O   UNL     1       6.527   6.522  17.117  0.00  0.00    +0.000 OA
ATOM     16  H   UNL     1       3.861   5.157  16.015  0.00  0.00    +0.000 HD
ENDBRANCH   8  12
BRANCH  11  17
ATOM     17  O   UNL     1       1.691  10.074  17.603  0.00  0.00    +0.000 OA
ATOM     18  H   UNL     1       1.884  10.974  17.896  0.00  0.00    +0.000 HD
ENDBRANCH  11  17
BRANCH   1  19
ATOM     19  C   UNL     1      -0.316  10.740  19.423  0.00  0.00    +0.000 C 
BRANCH  19  20
ATOM     20  N   UNL     1      -0.982  10.742  18.110  0.00  0.00    +0.000 NA
BRANCH  20  22
ATOM     21  C   UNL     1      -3.400  10.306  17.613  0.00  0.00    +0.000 C 
ATOM     22  C   UNL     1      -2.054   9.737  18.051  0.00  0.00    +0.000 C 
ENDBRANCH  20  22
BRANCH  20  23
ATOM     23  C   UNL     1      -1.403  12.108  17.745  0.00  0.00    +0.000 C 
ATOM     24  C   UNL     1      -0.535  13.259  18.251  0.00  0.00    +0.000 C 
ENDBRANCH  20  23
ENDBRANCH  19  20
ENDBRANCH   1  19
TORSDOF 6
ENDMDL
