MODEL 1
REMARK VINA RESULT:      -7.7      0.000      0.000
REMARK  Name = 
REMARK  4 active torsions:
REMARK  status: ('A' for Active; 'I' for Inactive)
REMARK    1  A    between atoms: C_1  and  C_2
REMARK    2  A    between atoms: N_5  and  C_6
REMARK    3  A    between atoms: N_10  and  C_11
REMARK    4  A    between atoms: C_11  and  C_12
REMARK                            x       y       z     vdW  Elec       q    Type
REMARK                         _______ _______ _______ _____ _____    ______ ____
ROOT
ATOM      1  C   UNL     1       0.623   9.197  20.007  0.00  0.00    +0.000 C 
ATOM      2  C   UNL     1       1.151  10.206  18.984  0.00  0.00    +0.000 C 
ATOM      3  C   UNL     1       1.568   9.459  17.723  0.00  0.00    +0.000 C 
ATOM      4  C   UNL     1       2.584   8.359  18.037  0.00  0.00    +0.000 C 
ATOM      5  N   UNL     1       2.089   7.413  19.056  0.00  0.00    +0.000 NA
ATOM      6  C   UNL     1       1.696   8.127  20.293  0.00  0.00    +0.000 C 
ENDROOT
BRANCH   1  11
ATOM      7  C   UNL     1      -1.564  12.447  23.128  0.00  0.00    +0.000 C 
ATOM      8  C   UNL     1      -0.863  11.273  22.562  0.00  0.00    +0.000 A 
ATOM      9  C   UNL     1      -0.568  10.044  23.192  0.00  0.00    +0.000 A 
ATOM     10  N   UNL     1       0.044   9.183  22.377  0.00  0.00    +0.000 NA
ATOM     11  N   UNL     1       0.124   9.844  21.211  0.00  0.00    +0.000 N 
ATOM     12  C   UNL     1      -0.352  11.125  21.291  0.00  0.00    +0.000 A 
ENDBRANCH   1  11
BRANCH   5  13
ATOM     13  C   UNL     1       3.119   6.393  19.368  0.00  0.00    +0.000 C 
BRANCH  13  14
ATOM     14  C   UNL     1       2.698   5.004  18.953  0.00  0.00    +0.000 A 
ATOM     15  C   UNL     1       2.882   4.560  17.632  0.00  0.00    +0.000 A 
ATOM     16  C   UNL     1       2.609   3.229  17.270  0.00  0.00    +0.000 A 
ATOM     17  C   UNL     1       2.144   2.318  18.220  0.00  0.00    +0.000 A 
ATOM     18  C   UNL     1       1.958   2.773  19.507  0.00  0.00    +0.000 A 
ATOM     19  C   UNL     1       2.218   4.079  19.865  0.00  0.00    +0.000 A 
ATOM     20  O   UNL     1       1.998   4.294  21.192  0.00  0.00    +0.000 OA
ATOM     21  C   UNL     1       1.663   2.964  21.636  0.00  0.00    +0.000 C 
ATOM     22  O   UNL     1       1.548   2.015  20.560  0.00  0.00    +0.000 OA
ENDBRANCH  13  14
ENDBRANCH   5  13
TORSDOF 3
ENDMDL
MODEL 2
REMARK VINA RESULT:      -7.7      3.293      5.285
REMARK  Name = 
REMARK  4 active torsions:
REMARK  status: ('A' for Active; 'I' for Inactive)
REMARK    1  A    between atoms: C_1  and  C_2
REMARK    2  A    between atoms: N_5  and  C_6
REMARK    3  A    between atoms: N_10  and  C_11
REMARK    4  A    between atoms: C_11  and  C_12
REMARK                            x       y       z     vdW  Elec       q    Type
REMARK                         _______ _______ _______ _____ _____    ______ ____
ROOT
ATOM      1  C   UNL     1       2.267   5.643  20.471  0.00  0.00    +0.000 C 
ATOM      2  C   UNL     1       1.057   4.707  20.450  0.00  0.00    +0.000 C 
ATOM      3  C   UNL     1       1.516   3.298  20.805  0.00  0.00    +0.000 C 
ATOM      4  C   UNL     1       2.636   2.825  19.877  0.00  0.00    +0.000 C 
ATOM      5  N   UNL     1       3.784   3.754  19.866  0.00  0.00    +0.000 NA
ATOM      6  C   UNL     1       3.351   5.123  19.505  0.00  0.00    +0.000 C 
ENDROOT
BRANCH   1  11
ATOM      7  C   UNL     1       1.345  10.012  18.200  0.00  0.00    +0.000 C 
ATOM      8  C   UNL     1       1.474   8.931  19.203  0.00  0.00    +0.000 A 
ATOM      9  C   UNL     1       0.958   8.894  20.517  0.00  0.00    +0.000 A 
ATOM     10  N   UNL     1       1.227   7.746  21.142  0.00  0.00    +0.000 NA
ATOM     11  N   UNL     1       1.895   7.028  20.224  0.00  0.00    +0.000 N 
ATOM     12  C   UNL     1       2.120   7.723  19.066  0.00  0.00    +0.000 A 
ENDBRANCH   1  11
BRANCH   5  13
ATOM     13  C   UNL     1       4.825   3.288  18.920  0.00  0.00    +0.000 C 
BRANCH  13  14
ATOM     14  C   UNL     1       5.675   4.420  18.395  0.00  0.00    +0.000 A 
ATOM     15  C   UNL     1       6.536   5.131  19.249  0.00  0.00    +0.000 A 
ATOM     16  C   UNL     1       7.420   6.101  18.744  0.00  0.00    +0.000 A 
ATOM     17  C   UNL     1       7.458   6.380  17.377  0.00  0.00    +0.000 A 
ATOM     18  C   UNL     1       6.600   5.683  16.556  0.00  0.00    +0.000 A 
ATOM     19  C   UNL     1       5.726   4.736  17.047  0.00  0.00    +0.000 A 
ATOM     20  O   UNL     1       5.002   4.150  16.053  0.00  0.00    +0.000 OA
ATOM     21  C   UNL     1       5.583   4.767  14.888  0.00  0.00    +0.000 C 
ATOM     22  O   UNL     1       6.532   5.803  15.203  0.00  0.00    +0.000 OA
ENDBRANCH  13  14
ENDBRANCH   5  13
TORSDOF 3
ENDMDL
MODEL 3
REMARK VINA RESULT:      -7.6      4.558      7.870
REMARK  Name = 
REMARK  4 active torsions:
REMARK  status: ('A' for Active; 'I' for Inactive)
REMARK    1  A    between atoms: C_1  and  C_2
REMARK    2  A    between atoms: N_5  and  C_6
REMARK    3  A    between atoms: N_10  and  C_11
REMARK    4  A    between atoms: C_11  and  C_12
REMARK                            x       y       z     vdW  Elec       q    Type
REMARK                         _______ _______ _______ _____ _____    ______ ____
ROOT
ATOM      1  C   UNL     1       6.274   5.353  15.611  0.00  0.00    +0.000 C 
ATOM      2  C   UNL     1       5.249   6.485  15.512  0.00  0.00    +0.000 C 
ATOM      3  C   UNL     1       5.109   7.146  16.878  0.00  0.00    +0.000 C 
ATOM      4  C   UNL     1       4.750   6.124  17.958  0.00  0.00    +0.000 C 
ATOM      5  N   UNL     1       5.717   5.010  18.020  0.00  0.00    +0.000 NA
ATOM      6  C   UNL     1       5.848   4.350  16.701  0.00  0.00    +0.000 C 
ENDROOT
BRANCH   1  11
ATOM      7  C   UNL     1       5.828   2.515  11.507  0.00  0.00    +0.000 C 
ATOM      8  C   UNL     1       6.300   3.489  12.517  0.00  0.00    +0.000 A 
ATOM      9  C   UNL     1       7.303   4.474  12.378  0.00  0.00    +0.000 A 
ATOM     10  N   UNL     1       7.451   5.215  13.477  0.00  0.00    +0.000 NA
ATOM     11  N   UNL     1       6.527   4.727  14.321  0.00  0.00    +0.000 N 
ATOM     12  C   UNL     1       5.854   3.651  13.810  0.00  0.00    +0.000 A 
ENDBRANCH   1  11
BRANCH   5  13
ATOM     13  C   UNL     1       5.308   4.017  19.042  0.00  0.00    +0.000 C 
BRANCH  13  14
ATOM     14  C   UNL     1       3.899   3.520  18.831  0.00  0.00    +0.000 A 
ATOM     15  C   UNL     1       3.637   2.438  17.974  0.00  0.00    +0.000 A 
ATOM     16  C   UNL     1       2.345   1.890  17.870  0.00  0.00    +0.000 A 
ATOM     17  C   UNL     1       1.291   2.417  18.618  0.00  0.00    +0.000 A 
ATOM     18  C   UNL     1       1.563   3.486  19.445  0.00  0.00    +0.000 A 
ATOM     19  C   UNL     1       2.826   4.029  19.545  0.00  0.00    +0.000 A 
ATOM     20  O   UNL     1       2.868   5.050  20.446  0.00  0.00    +0.000 OA
ATOM     21  C   UNL     1       1.522   5.022  20.959  0.00  0.00    +0.000 C 
ATOM     22  O   UNL     1       0.666   4.094  20.267  0.00  0.00    +0.000 OA
ENDBRANCH  13  14
ENDBRANCH   5  13
TORSDOF 3
ENDMDL
MODEL 4
REMARK VINA RESULT:      -7.6      4.572      7.630
REMARK  Name = 
REMARK  4 active torsions:
REMARK  status: ('A' for Active; 'I' for Inactive)
REMARK    1  A    between atoms: C_1  and  C_2
REMARK    2  A    between atoms: N_5  and  C_6
REMARK    3  A    between atoms: N_10  and  C_11
REMARK    4  A    between atoms: C_11  and  C_12
REMARK                            x       y       z     vdW  Elec       q    Type
REMARK                         _______ _______ _______ _____ _____    ______ ____
ROOT
ATOM      1  C   UNL     1       6.477   4.646  16.757  0.00  0.00    +0.000 C 
ATOM      2  C   UNL     1       7.587   5.448  17.438  0.00  0.00    +0.000 C 
ATOM      3  C   UNL     1       7.329   5.473  18.940  0.00  0.00    +0.000 C 
ATOM      4  C   UNL     1       5.936   6.017  19.258  0.00  0.00    +0.000 C 
ATOM      5  N   UNL     1       4.870   5.268  18.564  0.00  0.00    +0.000 NA
ATOM      6  C   UNL     1       5.102   5.252  17.101  0.00  0.00    +0.000 C 
ENDROOT
BRANCH   1  11
ATOM      7  C   UNL     1       5.975   3.331  11.949  0.00  0.00    +0.000 C 
ATOM      8  C   UNL     1       6.447   3.934  13.216  0.00  0.00    +0.000 A 
ATOM      9  C   UNL     1       7.399   4.963  13.391  0.00  0.00    +0.000 A 
ATOM     10  N   UNL     1       7.563   5.298  14.672  0.00  0.00    +0.000 NA
ATOM     11  N   UNL     1       6.699   4.504  15.326  0.00  0.00    +0.000 N 
ATOM     12  C   UNL     1       6.053   3.626  14.499  0.00  0.00    +0.000 A 
ENDBRANCH   1  11
BRANCH   5  13
ATOM     13  C   UNL     1       3.540   5.856  18.857  0.00  0.00    +0.000 C 
BRANCH  13  14
ATOM     14  C   UNL     1       2.451   4.812  18.919  0.00  0.00    +0.000 A 
ATOM     15  C   UNL     1       1.777   4.404  17.755  0.00  0.00    +0.000 A 
ATOM     16  C   UNL     1       0.852   3.345  17.786  0.00  0.00    +0.000 A 
ATOM     17  C   UNL     1       0.581   2.678  18.982  0.00  0.00    +0.000 A 
ATOM     18  C   UNL     1       1.241   3.099  20.116  0.00  0.00    +0.000 A 
ATOM     19  C   UNL     1       2.144   4.140  20.091  0.00  0.00    +0.000 A 
ATOM     20  O   UNL     1       2.700   4.358  21.315  0.00  0.00    +0.000 OA
ATOM     21  C   UNL     1       2.116   3.285  22.079  0.00  0.00    +0.000 C 
ATOM     22  O   UNL     1       1.123   2.539  21.350  0.00  0.00    +0.000 OA
ENDBRANCH  13  14
ENDBRANCH   5  13
TORSDOF 3
ENDMDL
MODEL 5
REMARK VINA RESULT:      -7.6      3.036      4.935
REMARK  Name = 
REMARK  4 active torsions:
REMARK  status: ('A' for Active; 'I' for Inactive)
REMARK    1  A    between atoms: C_1  and  C_2
REMARK    2  A    between atoms: N_5  and  C_6
REMARK    3  A    between atoms: N_10  and  C_11
REMARK    4  A    between atoms: C_11  and  C_12
REMARK                            x       y       z     vdW  Elec       q    Type
REMARK                         _______ _______ _______ _____ _____    ______ ____
ROOT
ATOM      1  C   UNL     1       2.537   6.353  19.776  0.00  0.00    +0.000 C 
ATOM      2  C   UNL     1       1.505   5.644  20.655  0.00  0.00    +0.000 C 
ATOM      3  C   UNL     1       2.128   4.376  21.226  0.00  0.00    +0.000 C 
ATOM      4  C   UNL     1       2.670   3.473  20.117  0.00  0.00    +0.000 C 
ATOM      5  N   UNL     1       3.633   4.174  19.244  0.00  0.00    +0.000 NA
ATOM      6  C   UNL     1       3.031   5.399  18.671  0.00  0.00    +0.000 C 
ENDROOT
BRANCH   1  11
ATOM      7  C   UNL     1       0.644  10.982  19.487  0.00  0.00    +0.000 C 
ATOM      8  C   UNL     1       1.232   9.664  19.158  0.00  0.00    +0.000 A 
ATOM      9  C   UNL     1       1.790   9.238  17.932  0.00  0.00    +0.000 A 
ATOM     10  N   UNL     1       2.268   7.994  17.991  0.00  0.00    +0.000 NA
ATOM     11  N   UNL     1       2.043   7.622  19.262  0.00  0.00    +0.000 N 
ATOM     12  C   UNL     1       1.368   8.569  19.982  0.00  0.00    +0.000 A 
ENDBRANCH   1  11
BRANCH   5  13
ATOM     13  C   UNL     1       4.097   3.282  18.154  0.00  0.00    +0.000 C 
BRANCH  13  14
ATOM     14  C   UNL     1       5.109   3.951  17.255  0.00  0.00    +0.000 A 
ATOM     15  C   UNL     1       4.929   3.978  15.861  0.00  0.00    +0.000 A 
ATOM     16  C   UNL     1       5.800   4.706  15.032  0.00  0.00    +0.000 A 
ATOM     17  C   UNL     1       6.869   5.417  15.578  0.00  0.00    +0.000 A 
ATOM     18  C   UNL     1       7.038   5.370  16.945  0.00  0.00    +0.000 A 
ATOM     19  C   UNL     1       6.191   4.653  17.762  0.00  0.00    +0.000 A 
ATOM     20  O   UNL     1       6.527   4.778  19.076  0.00  0.00    +0.000 OA
ATOM     21  C   UNL     1       7.613   5.721  18.995  0.00  0.00    +0.000 C 
ATOM     22  O   UNL     1       8.001   6.031  17.643  0.00  0.00    +0.000 OA
ENDBRANCH  13  14
ENDBRANCH   5  13
TORSDOF 3
ENDMDL
MODEL 6
REMARK VINA RESULT:      -7.5      4.882      7.925
REMARK  Name = 
REMARK  4 active torsions:
REMARK  status: ('A' for Active; 'I' for Inactive)
REMARK    1  A    between atoms: C_1  and  C_2
REMARK    2  A    between atoms: N_5  and  C_6
REMARK    3  A    between atoms: N_10  and  C_11
REMARK    4  A    between atoms: C_11  and  C_12
REMARK                            x       y       z     vdW  Elec       q    Type
REMARK                         _______ _______ _______ _____ _____    ______ ____
ROOT
ATOM      1  C   UNL     1       5.790   5.117  15.853  0.00  0.00    +0.000 C 
ATOM      2  C   UNL     1       5.404   6.596  15.922  0.00  0.00    +0.000 C 
ATOM      3  C   UNL     1       4.760   6.876  17.274  0.00  0.00    +0.000 C 
ATOM      4  C   UNL     1       3.571   5.949  17.529  0.00  0.00    +0.000 C 
ATOM      5  N   UNL     1       3.937   4.523  17.418  0.00  0.00    +0.000 NA
ATOM      6  C   UNL     1       4.549   4.236  16.100  0.00  0.00    +0.000 C 
ENDROOT
BRANCH   1  11
ATOM      7  C   UNL     1       6.932   3.185  11.374  0.00  0.00    +0.000 C 
ATOM      8  C   UNL     1       6.962   3.948  12.642  0.00  0.00    +0.000 A 
ATOM      9  C   UNL     1       7.842   4.989  13.014  0.00  0.00    +0.000 A 
ATOM     10  N   UNL     1       7.565   5.488  14.220  0.00  0.00    +0.000 NA
ATOM     11  N   UNL     1       6.490   4.789  14.620  0.00  0.00    +0.000 N 
ATOM     12  C   UNL     1       6.131   3.812  13.732  0.00  0.00    +0.000 A 
ENDBRANCH   1  11
BRANCH   5  13
ATOM     13  C   UNL     1       2.750   3.659  17.622  0.00  0.00    +0.000 C 
BRANCH  13  14
ATOM     14  C   UNL     1       2.470   3.402  19.083  0.00  0.00    +0.000 A 
ATOM     15  C   UNL     1       1.220   3.719  19.643  0.00  0.00    +0.000 A 
ATOM     16  C   UNL     1       0.910   3.367  20.969  0.00  0.00    +0.000 A 
ATOM     17  C   UNL     1       1.844   2.695  21.760  0.00  0.00    +0.000 A 
ATOM     18  C   UNL     1       3.068   2.402  21.198  0.00  0.00    +0.000 A 
ATOM     19  C   UNL     1       3.378   2.751  19.901  0.00  0.00    +0.000 A 
ATOM     20  O   UNL     1       4.625   2.331  19.548  0.00  0.00    +0.000 OA
ATOM     21  C   UNL     1       5.018   1.607  20.730  0.00  0.00    +0.000 C 
ATOM     22  O   UNL     1       4.075   1.724  21.811  0.00  0.00    +0.000 OA
ENDBRANCH  13  14
ENDBRANCH   5  13
TORSDOF 3
ENDMDL
MODEL 7
REMARK VINA RESULT:      -7.5      3.031      5.063
REMARK  Name = 
REMARK  4 active torsions:
REMARK  status: ('A' for Active; 'I' for Inactive)
REMARK    1  A    between atoms: C_1  and  C_2
REMARK    2  A    between atoms: N_5  and  C_6
REMARK    3  A    between atoms: N_10  and  C_11
REMARK    4  A    between atoms: C_11  and  C_12
REMARK                            x       y       z     vdW  Elec       q    Type
REMARK                         _______ _______ _______ _____ _____    ______ ____
ROOT
ATOM      1  C   UNL     1       2.598   5.760  20.079  0.00  0.00    +0.000 C 
ATOM      2  C   UNL     1       1.543   4.901  20.780  0.00  0.00    +0.000 C 
ATOM      3  C   UNL     1       2.130   3.522  21.051  0.00  0.00    +0.000 C 
ATOM      4  C   UNL     1       2.652   2.875  19.767  0.00  0.00    +0.000 C 
ATOM      5  N   UNL     1       3.636   3.726  19.071  0.00  0.00    +0.000 NA
ATOM      6  C   UNL     1       3.070   5.064  18.787  0.00  0.00    +0.000 C 
ENDROOT
BRANCH   1  11
ATOM      7  C   UNL     1       1.370  10.099  17.896  0.00  0.00    +0.000 C 
ATOM      8  C   UNL     1       1.585   9.014  18.880  0.00  0.00    +0.000 A 
ATOM      9  C   UNL     1       1.103   8.928  20.205  0.00  0.00    +0.000 A 
ATOM     10  N   UNL     1       1.452   7.789  20.805  0.00  0.00    +0.000 NA
ATOM     11  N   UNL     1       2.140   7.125  19.862  0.00  0.00    +0.000 N 
ATOM     12  C   UNL     1       2.297   7.847  18.710  0.00  0.00    +0.000 A 
ENDBRANCH   1  11
BRANCH   5  13
ATOM     13  C   UNL     1       4.081   3.088  17.808  0.00  0.00    +0.000 C 
BRANCH  13  14
ATOM     14  C   UNL     1       5.078   3.935  17.055  0.00  0.00    +0.000 A 
ATOM     15  C   UNL     1       4.912   4.196  15.684  0.00  0.00    +0.000 A 
ATOM     16  C   UNL     1       5.766   5.085  15.007  0.00  0.00    +0.000 A 
ATOM     17  C   UNL     1       6.803   5.726  15.686  0.00  0.00    +0.000 A 
ATOM     18  C   UNL     1       6.958   5.450  17.027  0.00  0.00    +0.000 A 
ATOM     19  C   UNL     1       6.128   4.574  17.694  0.00  0.00    +0.000 A 
ATOM     20  O   UNL     1       6.445   4.483  19.016  0.00  0.00    +0.000 OA
ATOM     21  C   UNL     1       7.498   5.461  19.116  0.00  0.00    +0.000 C 
ATOM     22  O   UNL     1       7.889   6.011  17.845  0.00  0.00    +0.000 OA
ENDBRANCH  13  14
ENDBRANCH   5  13
TORSDOF 3
ENDMDL
MODEL 8
REMARK VINA RESULT:      -7.5      3.283      5.220
REMARK  Name = 
REMARK  4 active torsions:
REMARK  status: ('A' for Active; 'I' for Inactive)
REMARK    1  A    between atoms: C_1  and  C_2
REMARK    2  A    between atoms: N_5  and  C_6
REMARK    3  A    between atoms: N_10  and  C_11
REMARK    4  A    between atoms: C_11  and  C_12
REMARK                            x       y       z     vdW  Elec       q    Type
REMARK                         _______ _______ _______ _____ _____    ______ ____
ROOT
ATOM      1  C   UNL     1       2.298   5.765  20.440  0.00  0.00    +0.000 C 
ATOM      2  C   UNL     1       1.136   4.775  20.552  0.00  0.00    +0.000 C 
ATOM      3  C   UNL     1       1.683   3.417  20.974  0.00  0.00    +0.000 C 
ATOM      4  C   UNL     1       2.773   2.933  20.017  0.00  0.00    +0.000 C 
ATOM      5  N   UNL     1       3.871   3.910  19.877  0.00  0.00    +0.000 NA
ATOM      6  C   UNL     1       3.352   5.230  19.451  0.00  0.00    +0.000 C 
ENDROOT
BRANCH   1  11
ATOM      7  C   UNL     1       0.534  10.436  20.851  0.00  0.00    +0.000 C 
ATOM      8  C   UNL     1       1.090   9.168  20.328  0.00  0.00    +0.000 A 
ATOM      9  C   UNL     1       1.650   8.919  19.056  0.00  0.00    +0.000 A 
ATOM     10  N   UNL     1       2.094   7.668  18.926  0.00  0.00    +0.000 NA
ATOM     11  N   UNL     1       1.844   7.111  20.123  0.00  0.00    +0.000 N 
ATOM     12  C   UNL     1       1.187   7.956  20.975  0.00  0.00    +0.000 A 
ENDBRANCH   1  11
BRANCH   5  13
ATOM     13  C   UNL     1       4.882   3.428  18.906  0.00  0.00    +0.000 C 
BRANCH  13  14
ATOM     14  C   UNL     1       5.722   4.549  18.344  0.00  0.00    +0.000 A 
ATOM     15  C   UNL     1       6.592   5.281  19.170  0.00  0.00    +0.000 A 
ATOM     16  C   UNL     1       7.468   6.240  18.631  0.00  0.00    +0.000 A 
ATOM     17  C   UNL     1       7.488   6.488  17.258  0.00  0.00    +0.000 A 
ATOM     18  C   UNL     1       6.620   5.770  16.464  0.00  0.00    +0.000 A 
ATOM     19  C   UNL     1       5.755   4.833  16.989  0.00  0.00    +0.000 A 
ATOM     20  O   UNL     1       5.020   4.223  16.018  0.00  0.00    +0.000 OA
ATOM     21  C   UNL     1       5.584   4.814  14.831  0.00  0.00    +0.000 C 
ATOM     22  O   UNL     1       6.534   5.859  15.110  0.00  0.00    +0.000 OA
ENDBRANCH  13  14
ENDBRANCH   5  13
TORSDOF 3
ENDMDL
MODEL 9
REMARK VINA RESULT:      -7.5      4.165      8.015
REMARK  Name = 
REMARK  4 active torsions:
REMARK  status: ('A' for Active; 'I' for Inactive)
REMARK    1  A    between atoms: C_1  and  C_2
REMARK    2  A    between atoms: N_5  and  C_6
REMARK    3  A    between atoms: N_10  and  C_11
REMARK    4  A    between atoms: C_11  and  C_12
REMARK                            x       y       z     vdW  Elec       q    Type
REMARK                         _______ _______ _______ _____ _____    ______ ____
ROOT
ATOM      1  C   UNL     1       6.545   5.219  15.938  0.00  0.00    +0.000 C 
ATOM      2  C   UNL     1       7.459   6.385  16.320  0.00  0.00    +0.000 C 
ATOM      3  C   UNL     1       7.205   6.755  17.776  0.00  0.00    +0.000 C 
ATOM      4  C   UNL     1       5.728   7.066  18.023  0.00  0.00    +0.000 C 
ATOM      5  N   UNL     1       4.845   5.956  17.611  0.00  0.00    +0.000 NA
ATOM      6  C   UNL     1       5.073   5.599  16.192  0.00  0.00    +0.000 C 
ENDROOT
BRANCH   1  11
ATOM      7  C   UNL     1       6.122   2.822  11.560  0.00  0.00    +0.000 C 
ATOM      8  C   UNL     1       6.573   3.705  12.658  0.00  0.00    +0.000 A 
ATOM      9  C   UNL     1       7.520   4.752  12.604  0.00  0.00    +0.000 A 
ATOM     10  N   UNL     1       7.663   5.376  13.774  0.00  0.00    +0.000 NA
ATOM     11  N   UNL     1       6.790   4.751  14.581  0.00  0.00    +0.000 N 
ATOM     12  C   UNL     1       6.158   3.701  13.971  0.00  0.00    +0.000 A 
ENDBRANCH   1  11
BRANCH   5  13
ATOM     13  C   UNL     1       3.422   6.314  17.820  0.00  0.00    +0.000 C 
BRANCH  13  14
ATOM     14  C   UNL     1       2.747   5.423  18.834  0.00  0.00    +0.000 A 
ATOM     15  C   UNL     1       2.194   5.958  20.010  0.00  0.00    +0.000 A 
ATOM     16  C   UNL     1       1.456   5.154  20.896  0.00  0.00    +0.000 A 
ATOM     17  C   UNL     1       1.258   3.799  20.625  0.00  0.00    +0.000 A 
ATOM     18  C   UNL     1       1.816   3.288  19.474  0.00  0.00    +0.000 A 
ATOM     19  C   UNL     1       2.547   4.071  18.606  0.00  0.00    +0.000 A 
ATOM     20  O   UNL     1       2.970   3.365  17.520  0.00  0.00    +0.000 OA
ATOM     21  C   UNL     1       2.348   2.087  17.762  0.00  0.00    +0.000 C 
ATOM     22  O   UNL     1       1.692   2.005  19.040  0.00  0.00    +0.000 OA
ENDBRANCH  13  14
ENDBRANCH   5  13
TORSDOF 3
ENDMDL
