MODEL 1
REMARK VINA RESULT:      -8.0      0.000      0.000
REMARK  Name = 
REMARK  4 active torsions:
REMARK  status: ('A' for Active; 'I' for Inactive)
REMARK    1  A    between atoms: C_1  and  O_2
REMARK    2  A    between atoms: O_2  and  C_3
REMARK    3  A    between atoms: N_12  and  C_13
REMARK    4  A    between atoms: C_16  and  N_17
REMARK                            x       y       z     vdW  Elec       q    Type
REMARK                         _______ _______ _______ _____ _____    ______ ____
ROOT
ATOM      1  C   UNL     1      -5.942  12.219  17.918  0.00  0.00    +0.000 A 
ATOM      2  C   UNL     1      -5.166  11.523  16.994  0.00  0.00    +0.000 A 
ATOM      3  C   UNL     1      -3.835  11.207  17.278  0.00  0.00    +0.000 A 
ATOM      4  C   UNL     1      -3.270  11.601  18.502  0.00  0.00    +0.000 A 
ATOM      5  N   UNL     1      -1.987  11.313  18.924  0.00  0.00    +0.000 NA
ATOM      6  C   UNL     1      -1.797  11.854  20.099  0.00  0.00    +0.000 A 
ATOM      7  N   UNL     1      -0.678  11.770  20.864  0.00  0.00    +0.000 N 
ATOM      8  C   UNL     1       0.381  10.941  20.638  0.00  0.00    +0.000 C 
ATOM      9  O   UNL     1       1.310  10.995  21.443  0.00  0.00    +0.000 OA
ATOM     10  N   UNL     1       0.304  10.101  19.556  0.00  0.00    +0.000 N 
ATOM     11  S   UNL     1      -3.077  12.744  20.768  0.00  0.00    +0.000 S 
ATOM     12  C   UNL     1      -4.045  12.343  19.396  0.00  0.00    +0.000 A 
ATOM     13  C   UNL     1      -5.385  12.659  19.125  0.00  0.00    +0.000 A 
ATOM     14  H   UNL     1      -0.632  12.309  21.716  0.00  0.00    +0.000 HD
ATOM     15  H   UNL     1      -0.434  10.317  18.890  0.00  0.00    +0.000 HD
ENDROOT
BRANCH  10  16
ATOM     16  C   UNL     1       1.183   9.053  19.226  0.00  0.00    +0.000 A 
ATOM     17  C   UNL     1       1.529   8.042  20.118  0.00  0.00    +0.000 A 
ATOM     18  C   UNL     1       2.411   7.022  19.743  0.00  0.00    +0.000 A 
ATOM     19  C   UNL     1       2.987   6.975  18.469  0.00  0.00    +0.000 A 
ATOM     20  C   UNL     1       2.611   7.989  17.573  0.00  0.00    +0.000 A 
ATOM     21  C   UNL     1       1.711   9.005  17.935  0.00  0.00    +0.000 A 
BRANCH  19  22
ATOM     22  N   UNL     1       3.845   5.964  18.075  0.00  0.00    +0.000 N 
ATOM     23  C   UNL     1       3.454   4.544  18.112  0.00  0.00    +0.000 C 
ATOM     24  C   UNL     1       4.184   3.795  19.234  0.00  0.00    +0.000 C 
ATOM     25  O   UNL     1       5.609   3.957  19.129  0.00  0.00    +0.000 OA
ATOM     26  C   UNL     1       5.951   5.350  19.232  0.00  0.00    +0.000 C 
ATOM     27  C   UNL     1       5.302   6.188  18.114  0.00  0.00    +0.000 C 
ENDBRANCH  19  22
ENDBRANCH  10  16
BRANCH   1  29
ATOM     28  C   UNL     1      -7.818  13.410  18.728  0.00  0.00    +0.000 C 
ATOM     29  O   UNL     1      -7.256  12.558  17.734  0.00  0.00    +0.000 OA
ENDBRANCH   1  29
TORSDOF 3
ENDMDL
MODEL 2
REMARK VINA RESULT:      -7.9      0.774      1.008
REMARK  Name = 
REMARK  4 active torsions:
REMARK  status: ('A' for Active; 'I' for Inactive)
REMARK    1  A    between atoms: C_1  and  O_2
REMARK    2  A    between atoms: O_2  and  C_3
REMARK    3  A    between atoms: N_12  and  C_13
REMARK    4  A    between atoms: C_16  and  N_17
REMARK                            x       y       z     vdW  Elec       q    Type
REMARK                         _______ _______ _______ _____ _____    ______ ____
ROOT
ATOM      1  C   UNL     1      -5.661  12.032  17.610  0.00  0.00    +0.000 A 
ATOM      2  C   UNL     1      -4.839  11.339  16.725  0.00  0.00    +0.000 A 
ATOM      3  C   UNL     1      -3.524  11.020  17.076  0.00  0.00    +0.000 A 
ATOM      4  C   UNL     1      -3.023  11.410  18.329  0.00  0.00    +0.000 A 
ATOM      5  N   UNL     1      -1.763  11.119  18.816  0.00  0.00    +0.000 NA
ATOM      6  C   UNL     1      -1.634  11.657  20.000  0.00  0.00    +0.000 A 
ATOM      7  N   UNL     1      -0.556  11.569  20.822  0.00  0.00    +0.000 N 
ATOM      8  C   UNL     1       0.512  10.739  20.648  0.00  0.00    +0.000 C 
ATOM      9  O   UNL     1       1.399  10.790  21.500  0.00  0.00    +0.000 OA
ATOM     10  N   UNL     1       0.491   9.903  19.561  0.00  0.00    +0.000 N 
ATOM     11  S   UNL     1      -2.946  12.546  20.606  0.00  0.00    +0.000 S 
ATOM     12  C   UNL     1      -3.843  12.150  19.185  0.00  0.00    +0.000 A 
ATOM     13  C   UNL     1      -5.166  12.469  18.846  0.00  0.00    +0.000 A 
ATOM     14  H   UNL     1      -0.553  12.106  21.677  0.00  0.00    +0.000 HD
ATOM     15  H   UNL     1      -0.212  10.122  18.858  0.00  0.00    +0.000 HD
ENDROOT
BRANCH  10  16
ATOM     16  C   UNL     1       1.385   8.855  19.274  0.00  0.00    +0.000 A 
ATOM     17  C   UNL     1       1.580   7.769  20.121  0.00  0.00    +0.000 A 
ATOM     18  C   UNL     1       2.484   6.753  19.792  0.00  0.00    +0.000 A 
ATOM     19  C   UNL     1       3.232   6.783  18.610  0.00  0.00    +0.000 A 
ATOM     20  C   UNL     1       3.007   7.874  17.754  0.00  0.00    +0.000 A 
ATOM     21  C   UNL     1       2.087   8.888  18.068  0.00  0.00    +0.000 A 
BRANCH  19  22
ATOM     22  N   UNL     1       4.115   5.778  18.259  0.00  0.00    +0.000 N 
ATOM     23  C   UNL     1       4.918   5.054  19.260  0.00  0.00    +0.000 C 
ATOM     24  C   UNL     1       6.398   5.447  19.174  0.00  0.00    +0.000 C 
ATOM     25  O   UNL     1       6.910   5.268  17.843  0.00  0.00    +0.000 OA
ATOM     26  C   UNL     1       6.180   6.097  16.923  0.00  0.00    +0.000 C 
ATOM     27  C   UNL     1       4.680   5.747  16.897  0.00  0.00    +0.000 C 
ENDBRANCH  19  22
ENDBRANCH  10  16
BRANCH   1  29
ATOM     28  C   UNL     1      -7.515  13.369  18.216  0.00  0.00    +0.000 C 
ATOM     29  O   UNL     1      -6.964  12.374  17.360  0.00  0.00    +0.000 OA
ENDBRANCH   1  29
TORSDOF 3
ENDMDL
MODEL 3
REMARK VINA RESULT:      -7.7      0.790      1.328
REMARK  Name = 
REMARK  4 active torsions:
REMARK  status: ('A' for Active; 'I' for Inactive)
REMARK    1  A    between atoms: C_1  and  O_2
REMARK    2  A    between atoms: O_2  and  C_3
REMARK    3  A    between atoms: N_12  and  C_13
REMARK    4  A    between atoms: C_16  and  N_17
REMARK                            x       y       z     vdW  Elec       q    Type
REMARK                         _______ _______ _______ _____ _____    ______ ____
ROOT
ATOM      1  C   UNL     1      -5.658  12.273  17.642  0.00  0.00    +0.000 A 
ATOM      2  C   UNL     1      -4.832  11.551  16.783  0.00  0.00    +0.000 A 
ATOM      3  C   UNL     1      -3.536  11.200  17.171  0.00  0.00    +0.000 A 
ATOM      4  C   UNL     1      -3.058  11.586  18.433  0.00  0.00    +0.000 A 
ATOM      5  N   UNL     1      -1.819  11.265  18.955  0.00  0.00    +0.000 NA
ATOM      6  C   UNL     1      -1.706  11.807  20.139  0.00  0.00    +0.000 A 
ATOM      7  N   UNL     1      -0.653  11.697  20.989  0.00  0.00    +0.000 N 
ATOM      8  C   UNL     1       0.397  10.838  20.848  0.00  0.00    +0.000 C 
ATOM      9  O   UNL     1       1.262  10.871  21.723  0.00  0.00    +0.000 OA
ATOM     10  N   UNL     1       0.381   9.995  19.766  0.00  0.00    +0.000 N 
ATOM     11  S   UNL     1      -3.010  12.735  20.704  0.00  0.00    +0.000 S 
ATOM     12  C   UNL     1      -3.879  12.353  19.263  0.00  0.00    +0.000 A 
ATOM     13  C   UNL     1      -5.185  12.704  18.888  0.00  0.00    +0.000 A 
ATOM     14  H   UNL     1      -0.658  12.239  21.840  0.00  0.00    +0.000 HD
ATOM     15  H   UNL     1      -0.297  10.227  19.044  0.00  0.00    +0.000 HD
ENDROOT
BRANCH  10  16
ATOM     16  C   UNL     1       1.254   8.921  19.509  0.00  0.00    +0.000 A 
ATOM     17  C   UNL     1       1.513   7.914  20.434  0.00  0.00    +0.000 A 
ATOM     18  C   UNL     1       2.393   6.868  20.131  0.00  0.00    +0.000 A 
ATOM     19  C   UNL     1       3.052   6.790  18.901  0.00  0.00    +0.000 A 
ATOM     20  C   UNL     1       2.764   7.802  17.969  0.00  0.00    +0.000 A 
ATOM     21  C   UNL     1       1.867   8.844  18.258  0.00  0.00    +0.000 A 
BRANCH  19  22
ATOM     22  N   UNL     1       3.909   5.754  18.577  0.00  0.00    +0.000 N 
ATOM     23  C   UNL     1       5.100   5.954  17.733  0.00  0.00    +0.000 C 
ATOM     24  C   UNL     1       4.913   5.323  16.348  0.00  0.00    +0.000 C 
ATOM     25  O   UNL     1       4.554   3.935  16.449  0.00  0.00    +0.000 OA
ATOM     26  C   UNL     1       3.315   3.801  17.167  0.00  0.00    +0.000 C 
ATOM     27  C   UNL     1       3.413   4.364  18.597  0.00  0.00    +0.000 C 
ENDBRANCH  19  22
ENDBRANCH  10  16
BRANCH   1  29
ATOM     28  C   UNL     1      -7.692  13.172  18.449  0.00  0.00    +0.000 C 
ATOM     29  O   UNL     1      -6.945  12.646  17.356  0.00  0.00    +0.000 OA
ENDBRANCH   1  29
TORSDOF 3
ENDMDL
MODEL 4
REMARK VINA RESULT:      -7.7      0.587      1.101
REMARK  Name = 
REMARK  4 active torsions:
REMARK  status: ('A' for Active; 'I' for Inactive)
REMARK    1  A    between atoms: C_1  and  O_2
REMARK    2  A    between atoms: O_2  and  C_3
REMARK    3  A    between atoms: N_12  and  C_13
REMARK    4  A    between atoms: C_16  and  N_17
REMARK                            x       y       z     vdW  Elec       q    Type
REMARK                         _______ _______ _______ _____ _____    ______ ____
ROOT
ATOM      1  C   UNL     1      -5.765  12.629  18.797  0.00  0.00    +0.000 A 
ATOM      2  C   UNL     1      -5.104  11.941  17.782  0.00  0.00    +0.000 A 
ATOM      3  C   UNL     1      -3.769  11.558  17.935  0.00  0.00    +0.000 A 
ATOM      4  C   UNL     1      -3.083  11.877  19.118  0.00  0.00    +0.000 A 
ATOM      5  N   UNL     1      -1.782  11.518  19.414  0.00  0.00    +0.000 NA
ATOM      6  C   UNL     1      -1.466  12.001  20.586  0.00  0.00    +0.000 A 
ATOM      7  N   UNL     1      -0.290  11.839  21.246  0.00  0.00    +0.000 N 
ATOM      8  C   UNL     1       0.706  10.976  20.895  0.00  0.00    +0.000 C 
ATOM      9  O   UNL     1       1.703  10.958  21.616  0.00  0.00    +0.000 OA
ATOM     10  N   UNL     1       0.498  10.187  19.793  0.00  0.00    +0.000 N 
ATOM     11  S   UNL     1      -2.643  12.915  21.400  0.00  0.00    +0.000 S 
ATOM     12  C   UNL     1      -3.743  12.612  20.105  0.00  0.00    +0.000 A 
ATOM     13  C   UNL     1      -5.086  12.995  19.967  0.00  0.00    +0.000 A 
ATOM     14  H   UNL     1      -0.146  12.339  22.110  0.00  0.00    +0.000 HD
ATOM     15  H   UNL     1      -0.285  10.460  19.204  0.00  0.00    +0.000 HD
ENDROOT
BRANCH  10  16
ATOM     16  C   UNL     1       1.297   9.117  19.347  0.00  0.00    +0.000 A 
ATOM     17  C   UNL     1       1.902   9.092  18.095  0.00  0.00    +0.000 A 
ATOM     18  C   UNL     1       2.686   8.002  17.696  0.00  0.00    +0.000 A 
ATOM     19  C   UNL     1       2.889   6.896  18.526  0.00  0.00    +0.000 A 
ATOM     20  C   UNL     1       2.290   6.945  19.796  0.00  0.00    +0.000 A 
ATOM     21  C   UNL     1       1.518   8.044  20.211  0.00  0.00    +0.000 A 
BRANCH  19  22
ATOM     22  N   UNL     1       3.676   5.820  18.157  0.00  0.00    +0.000 N 
ATOM     23  C   UNL     1       3.271   4.426  18.412  0.00  0.00    +0.000 C 
ATOM     24  C   UNL     1       4.122   3.793  19.520  0.00  0.00    +0.000 C 
ATOM     25  O   UNL     1       5.525   3.899  19.226  0.00  0.00    +0.000 OA
ATOM     26  C   UNL     1       5.899   5.283  19.119  0.00  0.00    +0.000 C 
ATOM     27  C   UNL     1       5.131   6.003  17.994  0.00  0.00    +0.000 C 
ENDBRANCH  19  22
ENDBRANCH  10  16
BRANCH   1  29
ATOM     28  C   UNL     1      -7.573  13.334  17.445  0.00  0.00    +0.000 C 
ATOM     29  O   UNL     1      -7.074  13.030  18.744  0.00  0.00    +0.000 OA
ENDBRANCH   1  29
TORSDOF 3
ENDMDL
MODEL 5
REMARK VINA RESULT:      -7.6      0.810      1.617
REMARK  Name = 
REMARK  4 active torsions:
REMARK  status: ('A' for Active; 'I' for Inactive)
REMARK    1  A    between atoms: C_1  and  O_2
REMARK    2  A    between atoms: O_2  and  C_3
REMARK    3  A    between atoms: N_12  and  C_13
REMARK    4  A    between atoms: C_16  and  N_17
REMARK                            x       y       z     vdW  Elec       q    Type
REMARK                         _______ _______ _______ _____ _____    ______ ____
ROOT
ATOM      1  C   UNL     1      -5.988  12.403  18.395  0.00  0.00    +0.000 A 
ATOM      2  C   UNL     1      -5.296  11.604  17.487  0.00  0.00    +0.000 A 
ATOM      3  C   UNL     1      -3.957  11.273  17.708  0.00  0.00    +0.000 A 
ATOM      4  C   UNL     1      -3.298  11.756  18.851  0.00  0.00    +0.000 A 
ATOM      5  N   UNL     1      -1.996  11.466  19.210  0.00  0.00    +0.000 NA
ATOM      6  C   UNL     1      -1.711  12.103  20.315  0.00  0.00    +0.000 A 
ATOM      7  N   UNL     1      -0.544  12.052  21.008  0.00  0.00    +0.000 N 
ATOM      8  C   UNL     1       0.475  11.173  20.787  0.00  0.00    +0.000 C 
ATOM      9  O   UNL     1       1.460  11.269  21.519  0.00  0.00    +0.000 OA
ATOM     10  N   UNL     1       0.302  10.244  19.793  0.00  0.00    +0.000 N 
ATOM     11  S   UNL     1      -2.919  13.088  20.987  0.00  0.00    +0.000 S 
ATOM     12  C   UNL     1      -3.990  12.597  19.725  0.00  0.00    +0.000 A 
ATOM     13  C   UNL     1      -5.337  12.931  19.518  0.00  0.00    +0.000 A 
ATOM     14  H   UNL     1      -0.424  12.662  21.803  0.00  0.00    +0.000 HD
ATOM     15  H   UNL     1      -0.475  10.422  19.161  0.00  0.00    +0.000 HD
ENDROOT
BRANCH  10  16
ATOM     16  C   UNL     1       1.129   9.143  19.500  0.00  0.00    +0.000 A 
ATOM     17  C   UNL     1       1.759   8.971  18.272  0.00  0.00    +0.000 A 
ATOM     18  C   UNL     1       2.570   7.856  18.029  0.00  0.00    +0.000 A 
ATOM     19  C   UNL     1       2.778   6.869  18.997  0.00  0.00    +0.000 A 
ATOM     20  C   UNL     1       2.155   7.068  20.240  0.00  0.00    +0.000 A 
ATOM     21  C   UNL     1       1.355   8.194  20.498  0.00  0.00    +0.000 A 
BRANCH  19  22
ATOM     22  N   UNL     1       3.593   5.772  18.781  0.00  0.00    +0.000 N 
ATOM     23  C   UNL     1       4.864   5.871  18.043  0.00  0.00    +0.000 C 
ATOM     24  C   UNL     1       4.760   5.207  16.665  0.00  0.00    +0.000 C 
ATOM     25  O   UNL     1       4.306   3.847  16.772  0.00  0.00    +0.000 OA
ATOM     26  C   UNL     1       3.003   3.813  17.378  0.00  0.00    +0.000 C 
ATOM     27  C   UNL     1       3.009   4.417  18.795  0.00  0.00    +0.000 C 
ENDBRANCH  19  22
ENDBRANCH  10  16
BRANCH   1  29
ATOM     28  C   UNL     1      -7.810  13.608  19.301  0.00  0.00    +0.000 C 
ATOM     29  O   UNL     1      -7.303  12.766  18.271  0.00  0.00    +0.000 OA
ENDBRANCH   1  29
TORSDOF 3
ENDMDL
MODEL 6
REMARK VINA RESULT:      -7.6      1.142      1.574
REMARK  Name = 
REMARK  4 active torsions:
REMARK  status: ('A' for Active; 'I' for Inactive)
REMARK    1  A    between atoms: C_1  and  O_2
REMARK    2  A    between atoms: O_2  and  C_3
REMARK    3  A    between atoms: N_12  and  C_13
REMARK    4  A    between atoms: C_16  and  N_17
REMARK                            x       y       z     vdW  Elec       q    Type
REMARK                         _______ _______ _______ _____ _____    ______ ____
ROOT
ATOM      1  C   UNL     1      -5.129  11.949  17.377  0.00  0.00    +0.000 A 
ATOM      2  C   UNL     1      -4.336  11.098  16.610  0.00  0.00    +0.000 A 
ATOM      3  C   UNL     1      -3.086  10.680  17.074  0.00  0.00    +0.000 A 
ATOM      4  C   UNL     1      -2.619  11.128  18.320  0.00  0.00    +0.000 A 
ATOM      5  N   UNL     1      -1.428  10.755  18.912  0.00  0.00    +0.000 NA
ATOM      6  C   UNL     1      -1.309  11.381  20.054  0.00  0.00    +0.000 A 
ATOM      7  N   UNL     1      -0.296  11.259  20.950  0.00  0.00    +0.000 N 
ATOM      8  C   UNL     1       0.685  10.312  20.918  0.00  0.00    +0.000 C 
ATOM      9  O   UNL     1       1.521  10.349  21.820  0.00  0.00    +0.000 OA
ATOM     10  N   UNL     1       0.636   9.388  19.905  0.00  0.00    +0.000 N 
ATOM     11  S   UNL     1      -2.552  12.451  20.494  0.00  0.00    +0.000 S 
ATOM     12  C   UNL     1      -3.402  12.021  19.055  0.00  0.00    +0.000 A 
ATOM     13  C   UNL     1      -4.662  12.442  18.603  0.00  0.00    +0.000 A 
ATOM     14  H   UNL     1      -0.285  11.867  21.755  0.00  0.00    +0.000 HD
ATOM     15  H   UNL     1       0.002   9.612  19.142  0.00  0.00    +0.000 HD
ENDROOT
BRANCH  10  16
ATOM     16  C   UNL     1       1.427   8.232  19.767  0.00  0.00    +0.000 A 
ATOM     17  C   UNL     1       1.442   7.204  20.705  0.00  0.00    +0.000 A 
ATOM     18  C   UNL     1       2.250   6.076  20.523  0.00  0.00    +0.000 A 
ATOM     19  C   UNL     1       3.078   5.932  19.405  0.00  0.00    +0.000 A 
ATOM     20  C   UNL     1       3.036   6.967  18.456  0.00  0.00    +0.000 A 
ATOM     21  C   UNL     1       2.213   8.094  18.622  0.00  0.00    +0.000 A 
BRANCH  19  22
ATOM     22  N   UNL     1       3.867   4.815  19.199  0.00  0.00    +0.000 N 
ATOM     23  C   UNL     1       4.649   4.623  17.965  0.00  0.00    +0.000 C 
ATOM     24  C   UNL     1       4.046   3.516  17.091  0.00  0.00    +0.000 C 
ATOM     25  O   UNL     1       3.898   2.291  17.829  0.00  0.00    +0.000 OA
ATOM     26  C   UNL     1       3.019   2.498  18.948  0.00  0.00    +0.000 C 
ATOM     27  C   UNL     1       3.561   3.564  19.918  0.00  0.00    +0.000 C 
ENDBRANCH  19  22
ENDBRANCH  10  16
BRANCH   1  29
ATOM     28  C   UNL     1      -7.299  12.575  18.080  0.00  0.00    +0.000 C 
ATOM     29  O   UNL     1      -6.371  12.397  17.014  0.00  0.00    +0.000 OA
ENDBRANCH   1  29
TORSDOF 3
ENDMDL
MODEL 7
REMARK VINA RESULT:      -7.6      3.802      4.595
REMARK  Name = 
REMARK  4 active torsions:
REMARK  status: ('A' for Active; 'I' for Inactive)
REMARK    1  A    between atoms: C_1  and  O_2
REMARK    2  A    between atoms: O_2  and  C_3
REMARK    3  A    between atoms: N_12  and  C_13
REMARK    4  A    between atoms: C_16  and  N_17
REMARK                            x       y       z     vdW  Elec       q    Type
REMARK                         _______ _______ _______ _____ _____    ______ ____
ROOT
ATOM      1  C   UNL     1       1.289  15.650  18.651  0.00  0.00    +0.000 A 
ATOM      2  C   UNL     1       2.411  14.854  18.434  0.00  0.00    +0.000 A 
ATOM      3  C   UNL     1       2.443  13.532  18.886  0.00  0.00    +0.000 A 
ATOM      4  C   UNL     1       1.338  13.003  19.574  0.00  0.00    +0.000 A 
ATOM      5  N   UNL     1       1.223  11.704  20.030  0.00  0.00    +0.000 NA
ATOM      6  C   UNL     1       0.075  11.571  20.640  0.00  0.00    +0.000 A 
ATOM      7  N   UNL     1      -0.427  10.438  21.197  0.00  0.00    +0.000 N 
ATOM      8  C   UNL     1       0.087   9.183  21.048  0.00  0.00    +0.000 C 
ATOM      9  O   UNL     1      -0.504   8.270  21.623  0.00  0.00    +0.000 OA
ATOM     10  N   UNL     1       1.193   9.046  20.249  0.00  0.00    +0.000 N 
ATOM     11  S   UNL     1      -0.922  12.940  20.743  0.00  0.00    +0.000 S 
ATOM     12  C   UNL     1       0.241  13.829  19.829  0.00  0.00    +0.000 A 
ATOM     13  C   UNL     1       0.195  15.156  19.373  0.00  0.00    +0.000 A 
ATOM     14  H   UNL     1      -1.291  10.494  21.716  0.00  0.00    +0.000 HD
ATOM     15  H   UNL     1       1.668   9.914  20.010  0.00  0.00    +0.000 HD
ENDROOT
BRANCH  10  16
ATOM     16  C   UNL     1       1.787   7.846  19.814  0.00  0.00    +0.000 A 
ATOM     17  C   UNL     1       1.789   6.680  20.573  0.00  0.00    +0.000 A 
ATOM     18  C   UNL     1       2.397   5.513  20.097  0.00  0.00    +0.000 A 
ATOM     19  C   UNL     1       3.031   5.465  18.852  0.00  0.00    +0.000 A 
ATOM     20  C   UNL     1       3.002   6.643  18.088  0.00  0.00    +0.000 A 
ATOM     21  C   UNL     1       2.377   7.813  18.550  0.00  0.00    +0.000 A 
BRANCH  19  22
ATOM     22  N   UNL     1       3.619   4.314  18.358  0.00  0.00    +0.000 N 
ATOM     23  C   UNL     1       2.966   3.475  17.338  0.00  0.00    +0.000 C 
ATOM     24  C   UNL     1       2.479   2.150  17.937  0.00  0.00    +0.000 C 
ATOM     25  O   UNL     1       3.545   1.454  18.602  0.00  0.00    +0.000 OA
ATOM     26  C   UNL     1       4.061   2.260  19.675  0.00  0.00    +0.000 C 
ATOM     27  C   UNL     1       4.624   3.602  19.170  0.00  0.00    +0.000 C 
ENDBRANCH  19  22
ENDBRANCH  10  16
BRANCH   1  29
ATOM     28  C   UNL     1       2.181  17.417  17.357  0.00  0.00    +0.000 C 
ATOM     29  O   UNL     1       1.161  16.948  18.232  0.00  0.00    +0.000 OA
ENDBRANCH   1  29
TORSDOF 3
ENDMDL
MODEL 8
REMARK VINA RESULT:      -7.6      2.865      9.766
REMARK  Name = 
REMARK  4 active torsions:
REMARK  status: ('A' for Active; 'I' for Inactive)
REMARK    1  A    between atoms: C_1  and  O_2
REMARK    2  A    between atoms: O_2  and  C_3
REMARK    3  A    between atoms: N_12  and  C_13
REMARK    4  A    between atoms: C_16  and  N_17
REMARK                            x       y       z     vdW  Elec       q    Type
REMARK                         _______ _______ _______ _____ _____    ______ ____
ROOT
ATOM      1  C   UNL     1       2.872   3.212  19.801  0.00  0.00    +0.000 A 
ATOM      2  C   UNL     1       2.006   3.810  20.714  0.00  0.00    +0.000 A 
ATOM      3  C   UNL     1       1.707   5.172  20.624  0.00  0.00    +0.000 A 
ATOM      4  C   UNL     1       2.291   5.948  19.609  0.00  0.00    +0.000 A 
ATOM      5  N   UNL     1       2.044   7.288  19.381  0.00  0.00    +0.000 NA
ATOM      6  C   UNL     1       2.774   7.686  18.373  0.00  0.00    +0.000 A 
ATOM      7  N   UNL     1       2.793   8.926  17.818  0.00  0.00    +0.000 N 
ATOM      8  C   UNL     1       1.908   9.929  18.083  0.00  0.00    +0.000 C 
ATOM      9  O   UNL     1       2.074  10.989  17.480  0.00  0.00    +0.000 OA
ATOM     10  N   UNL     1       0.897   9.661  18.970  0.00  0.00    +0.000 N 
ATOM     11  S   UNL     1       3.801   6.545  17.649  0.00  0.00    +0.000 S 
ATOM     12  C   UNL     1       3.196   5.345  18.733  0.00  0.00    +0.000 A 
ATOM     13  C   UNL     1       3.498   3.977  18.810  0.00  0.00    +0.000 A 
ATOM     14  H   UNL     1       3.469   9.124  17.096  0.00  0.00    +0.000 HD
ATOM     15  H   UNL     1       1.014   8.813  19.520  0.00  0.00    +0.000 HD
ENDROOT
BRANCH  10  16
ATOM     16  C   UNL     1      -0.217  10.470  19.264  0.00  0.00    +0.000 A 
ATOM     17  C   UNL     1      -1.274  10.659  18.380  0.00  0.00    +0.000 A 
ATOM     18  C   UNL     1      -2.358  11.477  18.719  0.00  0.00    +0.000 A 
ATOM     19  C   UNL     1      -2.426  12.142  19.947  0.00  0.00    +0.000 A 
ATOM     20  C   UNL     1      -1.363  11.923  20.838  0.00  0.00    +0.000 A 
ATOM     21  C   UNL     1      -0.280  11.088  20.514  0.00  0.00    +0.000 A 
BRANCH  19  22
ATOM     22  N   UNL     1      -3.499  12.938  20.306  0.00  0.00    +0.000 N 
ATOM     23  C   UNL     1      -3.564  13.627  21.607  0.00  0.00    +0.000 C 
ATOM     24  C   UNL     1      -4.611  12.984  22.525  0.00  0.00    +0.000 C 
ATOM     25  O   UNL     1      -5.897  12.919  21.887  0.00  0.00    +0.000 OA
ATOM     26  C   UNL     1      -5.810  12.125  20.692  0.00  0.00    +0.000 C 
ATOM     27  C   UNL     1      -4.814  12.716  19.676  0.00  0.00    +0.000 C 
ENDBRANCH  19  22
ENDBRANCH  10  16
BRANCH   1  29
ATOM     28  C   UNL     1       3.660   1.363  18.555  0.00  0.00    +0.000 C 
ATOM     29  O   UNL     1       3.210   1.884  19.802  0.00  0.00    +0.000 OA
ENDBRANCH   1  29
TORSDOF 3
ENDMDL
MODEL 9
REMARK VINA RESULT:      -7.5      2.692      9.761
REMARK  Name = 
REMARK  4 active torsions:
REMARK  status: ('A' for Active; 'I' for Inactive)
REMARK    1  A    between atoms: C_1  and  O_2
REMARK    2  A    between atoms: O_2  and  C_3
REMARK    3  A    between atoms: N_12  and  C_13
REMARK    4  A    between atoms: C_16  and  N_17
REMARK                            x       y       z     vdW  Elec       q    Type
REMARK                         _______ _______ _______ _____ _____    ______ ____
ROOT
ATOM      1  C   UNL     1       3.067   3.149  19.637  0.00  0.00    +0.000 A 
ATOM      2  C   UNL     1       1.972   3.633  20.348  0.00  0.00    +0.000 A 
ATOM      3  C   UNL     1       1.578   4.968  20.227  0.00  0.00    +0.000 A 
ATOM      4  C   UNL     1       2.298   5.834  19.387  0.00  0.00    +0.000 A 
ATOM      5  N   UNL     1       1.989   7.158  19.143  0.00  0.00    +0.000 NA
ATOM      6  C   UNL     1       2.883   7.658  18.332  0.00  0.00    +0.000 A 
ATOM      7  N   UNL     1       2.912   8.919  17.826  0.00  0.00    +0.000 N 
ATOM      8  C   UNL     1       1.904   9.833  17.912  0.00  0.00    +0.000 C 
ATOM      9  O   UNL     1       2.102  10.929  17.387  0.00  0.00    +0.000 OA
ATOM     10  N   UNL     1       0.751   9.444  18.545  0.00  0.00    +0.000 N 
ATOM     11  S   UNL     1       4.143   6.638  17.828  0.00  0.00    +0.000 S 
ATOM     12  C   UNL     1       3.425   5.347  18.720  0.00  0.00    +0.000 A 
ATOM     13  C   UNL     1       3.825   4.006  18.828  0.00  0.00    +0.000 A 
ATOM     14  H   UNL     1       3.710   9.203  17.278  0.00  0.00    +0.000 HD
ATOM     15  H   UNL     1       0.821   8.585  19.086  0.00  0.00    +0.000 HD
ENDROOT
BRANCH  10  16
ATOM     16  C   UNL     1      -0.468  10.145  18.604  0.00  0.00    +0.000 A 
ATOM     17  C   UNL     1      -0.763  11.073  19.597  0.00  0.00    +0.000 A 
ATOM     18  C   UNL     1      -1.993  11.742  19.614  0.00  0.00    +0.000 A 
ATOM     19  C   UNL     1      -2.976  11.506  18.647  0.00  0.00    +0.000 A 
ATOM     20  C   UNL     1      -2.654  10.584  17.638  0.00  0.00    +0.000 A 
ATOM     21  C   UNL     1      -1.415   9.922  17.603  0.00  0.00    +0.000 A 
BRANCH  19  22
ATOM     22  N   UNL     1      -4.188  12.173  18.637  0.00  0.00    +0.000 N 
ATOM     23  C   UNL     1      -4.767  12.767  19.854  0.00  0.00    +0.000 C 
ATOM     24  C   UNL     1      -5.986  11.970  20.335  0.00  0.00    +0.000 C 
ATOM     25  O   UNL     1      -6.963  11.827  19.290  0.00  0.00    +0.000 OA
ATOM     26  C   UNL     1      -6.387  11.124  18.176  0.00  0.00    +0.000 C 
ATOM     27  C   UNL     1      -5.177  11.871  17.585  0.00  0.00    +0.000 C 
ENDBRANCH  19  22
ENDBRANCH  10  16
BRANCH   1  29
ATOM     28  C   UNL     1       3.770   1.248  18.417  0.00  0.00    +0.000 C 
ATOM     29  O   UNL     1       3.515   1.855  19.680  0.00  0.00    +0.000 OA
ENDBRANCH   1  29
TORSDOF 3
ENDMDL
