MODEL 1
REMARK VINA RESULT:      -7.4      0.000      0.000
REMARK  Name = 
REMARK  10 active torsions:
REMARK  status: ('A' for Active; 'I' for Inactive)
REMARK    1  A    between atoms: C_1  and  O_2
REMARK    2  A    between atoms: O_2  and  C_3
REMARK    3  A    between atoms: C_3  and  C_4
REMARK    4  A    between atoms: C_3  and  C_17
REMARK    5  A    between atoms: C_4  and  C_5
REMARK    6  A    between atoms: C_5  and  C_6
REMARK    7  A    between atoms: C_5  and  C_13
REMARK    8  A    between atoms: C_6  and  C_7
REMARK    9  A    between atoms: C_7  and  N_8
REMARK   10  A    between atoms: N_15  and  O_16
REMARK                            x       y       z     vdW  Elec       q    Type
REMARK                         _______ _______ _______ _____ _____    ______ ____
ROOT
ATOM      1  C   UNL     1       3.634   2.628  17.659  0.00  0.00    +0.000 C 
ENDROOT
BRANCH   1   2
ATOM      2  C   UNL     1       4.393   1.979  18.835  0.00  0.00    +0.000 C 
ATOM      3  O   UNL     1       4.910   2.614  19.760  0.00  0.00    +0.000 OA
ATOM      4  N   UNL     1       4.430   0.608  18.834  0.00  0.00    +0.000 N 
ATOM      5  H   UNL     1       4.558   0.169  17.933  0.00  0.00    +0.000 HD
BRANCH   4   6
ATOM      6  O   UNL     1       5.222   0.038  19.867  0.00  0.00    +0.000 OA
ATOM      7  H   UNL     1       6.057   0.552  19.794  0.00  0.00    +0.000 HD
ENDBRANCH   4   6
ENDBRANCH   1   2
BRANCH   1   8
ATOM      8  C   UNL     1       4.070   4.081  17.307  0.00  0.00    +0.000 C 
BRANCH   8   9
ATOM      9  C   UNL     1       5.441   4.306  16.610  0.00  0.00    +0.000 C 
BRANCH   9  10
ATOM     10  C   UNL     1       6.274   5.381  17.303  0.00  0.00    +0.000 A 
ATOM     11  C   UNL     1       6.313   6.688  16.795  0.00  0.00    +0.000 A 
ATOM     12  C   UNL     1       7.175   7.642  17.331  0.00  0.00    +0.000 A 
ATOM     13  C   UNL     1       8.004   7.301  18.403  0.00  0.00    +0.000 A 
ATOM     14  F   UNL     1       8.878   8.191  18.885  0.00  0.00    +0.000 F 
ATOM     15  C   UNL     1       7.931   6.040  18.977  0.00  0.00    +0.000 A 
ATOM     16  C   UNL     1       7.053   5.102  18.444  0.00  0.00    +0.000 A 
ENDBRANCH   9  10
BRANCH   9  18
ATOM     17  C   UNL     1       6.023   4.005  14.296  0.00  0.00    +0.000 C 
ATOM     18  O   UNL     1       5.162   4.627  15.246  0.00  0.00    +0.000 OA
ENDBRANCH   9  18
ENDBRANCH   8   9
ENDBRANCH   1   8
BRANCH   1  19
ATOM     19  C   UNL     1       2.131   2.564  18.050  0.00  0.00    +0.000 C 
BRANCH  19  20
ATOM     20  C   UNL     1       1.446   3.900  18.373  0.00  0.00    +0.000 C 
BRANCH  20  21
ATOM     21  N   UNL     1       0.797   3.886  19.696  0.00  0.00    +0.000 NA
ATOM     22  C   UNL     1       1.283   4.982  20.549  0.00  0.00    +0.000 C 
ATOM     23  C   UNL     1       2.432   4.392  21.342  0.00  0.00    +0.000 C 
ATOM     24  C   UNL     1       1.959   2.982  21.623  0.00  0.00    +0.000 C 
ATOM     25  C   UNL     1       1.048   2.642  20.453  0.00  0.00    +0.000 C 
ENDBRANCH  20  21
ENDBRANCH  19  20
ENDBRANCH   1  19
TORSDOF 9
ENDMDL
MODEL 2
REMARK VINA RESULT:      -7.3      0.899      1.433
REMARK  Name = 
REMARK  10 active torsions:
REMARK  status: ('A' for Active; 'I' for Inactive)
REMARK    1  A    between atoms: C_1  and  O_2
REMARK    2  A    between atoms: O_2  and  C_3
REMARK    3  A    between atoms: C_3  and  C_4
REMARK    4  A    between atoms: C_3  and  C_17
REMARK    5  A    between atoms: C_4  and  C_5
REMARK    6  A    between atoms: C_5  and  C_6
REMARK    7  A    between atoms: C_5  and  C_13
REMARK    8  A    between atoms: C_6  and  C_7
REMARK    9  A    between atoms: C_7  and  N_8
REMARK   10  A    between atoms: N_15  and  O_16
REMARK                            x       y       z     vdW  Elec       q    Type
REMARK                         _______ _______ _______ _____ _____    ______ ____
ROOT
ATOM      1  C   UNL     1       3.195   3.065  17.371  0.00  0.00    +0.000 C 
ENDROOT
BRANCH   1   2
ATOM      2  C   UNL     1       3.873   2.151  18.412  0.00  0.00    +0.000 C 
ATOM      3  O   UNL     1       3.745   0.922  18.441  0.00  0.00    +0.000 OA
ATOM      4  N   UNL     1       4.694   2.780  19.313  0.00  0.00    +0.000 N 
ATOM      5  H   UNL     1       4.370   3.673  19.658  0.00  0.00    +0.000 HD
BRANCH   4   6
ATOM      6  O   UNL     1       5.221   1.933  20.323  0.00  0.00    +0.000 OA
ATOM      7  H   UNL     1       5.120   1.042  19.920  0.00  0.00    +0.000 HD
ENDBRANCH   4   6
ENDBRANCH   1   2
BRANCH   1   8
ATOM      8  C   UNL     1       3.987   4.353  17.001  0.00  0.00    +0.000 C 
BRANCH   8   9
ATOM      9  C   UNL     1       5.417   4.213  16.409  0.00  0.00    +0.000 C 
BRANCH   9  10
ATOM     10  C   UNL     1       6.403   5.194  17.036  0.00  0.00    +0.000 A 
ATOM     11  C   UNL     1       7.274   4.774  18.053  0.00  0.00    +0.000 A 
ATOM     12  C   UNL     1       8.080   5.686  18.731  0.00  0.00    +0.000 A 
ATOM     13  C   UNL     1       8.036   7.039  18.385  0.00  0.00    +0.000 A 
ATOM     14  F   UNL     1       8.759   7.931  19.071  0.00  0.00    +0.000 F 
ATOM     15  C   UNL     1       7.243   7.473  17.332  0.00  0.00    +0.000 A 
ATOM     16  C   UNL     1       6.457   6.549  16.651  0.00  0.00    +0.000 A 
ENDBRANCH   9  10
BRANCH   9  18
ATOM     17  C   UNL     1       6.492   4.142  14.259  0.00  0.00    +0.000 C 
ATOM     18  O   UNL     1       5.297   4.387  14.996  0.00  0.00    +0.000 OA
ENDBRANCH   9  18
ENDBRANCH   8   9
ENDBRANCH   1   8
BRANCH   1  19
ATOM     19  C   UNL     1       1.799   3.406  17.965  0.00  0.00    +0.000 C 
BRANCH  19  20
ATOM     20  C   UNL     1       1.187   2.373  18.922  0.00  0.00    +0.000 C 
BRANCH  20  21
ATOM     21  N   UNL     1       0.733   2.985  20.183  0.00  0.00    +0.000 NA
ATOM     22  C   UNL     1       0.982   4.436  20.202  0.00  0.00    +0.000 C 
ATOM     23  C   UNL     1       2.339   4.598  20.859  0.00  0.00    +0.000 C 
ATOM     24  C   UNL     1       2.328   3.528  21.928  0.00  0.00    +0.000 C 
ATOM     25  C   UNL     1       1.418   2.440  21.373  0.00  0.00    +0.000 C 
ENDBRANCH  20  21
ENDBRANCH  19  20
ENDBRANCH   1  19
TORSDOF 9
ENDMDL
MODEL 3
REMARK VINA RESULT:      -7.1      3.669      6.780
REMARK  Name = 
REMARK  10 active torsions:
REMARK  status: ('A' for Active; 'I' for Inactive)
REMARK    1  A    between atoms: C_1  and  O_2
REMARK    2  A    between atoms: O_2  and  C_3
REMARK    3  A    between atoms: C_3  and  C_4
REMARK    4  A    between atoms: C_3  and  C_17
REMARK    5  A    between atoms: C_4  and  C_5
REMARK    6  A    between atoms: C_5  and  C_6
REMARK    7  A    between atoms: C_5  and  C_13
REMARK    8  A    between atoms: C_6  and  C_7
REMARK    9  A    between atoms: C_7  and  N_8
REMARK   10  A    between atoms: N_15  and  O_16
REMARK                            x       y       z     vdW  Elec       q    Type
REMARK                         _______ _______ _______ _____ _____    ______ ____
ROOT
ATOM      1  C   UNL     1       5.911   5.757  17.498  0.00  0.00    +0.000 C 
ENDROOT
BRANCH   1   2
ATOM      2  C   UNL     1       6.479   5.213  18.825  0.00  0.00    +0.000 C 
ATOM      3  O   UNL     1       6.067   4.193  19.388  0.00  0.00    +0.000 OA
ATOM      4  N   UNL     1       7.535   5.912  19.351  0.00  0.00    +0.000 N 
ATOM      5  H   UNL     1       7.481   6.919  19.277  0.00  0.00    +0.000 HD
BRANCH   4   6
ATOM      6  O   UNL     1       7.970   5.455  20.624  0.00  0.00    +0.000 OA
ATOM      7  H   UNL     1       7.898   4.479  20.529  0.00  0.00    +0.000 HD
ENDBRANCH   4   6
ENDBRANCH   1   2
BRANCH   1   8
ATOM      8  C   UNL     1       4.460   6.315  17.574  0.00  0.00    +0.000 C 
BRANCH   8   9
ATOM      9  C   UNL     1       3.666   6.167  18.902  0.00  0.00    +0.000 C 
BRANCH   9  10
ATOM     10  C   UNL     1       2.791   4.916  18.918  0.00  0.00    +0.000 A 
ATOM     11  C   UNL     1       2.854   3.991  17.864  0.00  0.00    +0.000 A 
ATOM     12  C   UNL     1       1.965   2.921  17.795  0.00  0.00    +0.000 A 
ATOM     13  C   UNL     1       1.006   2.751  18.797  0.00  0.00    +0.000 A 
ATOM     14  F   UNL     1       0.110   1.763  18.707  0.00  0.00    +0.000 F 
ATOM     15  C   UNL     1       0.971   3.603  19.891  0.00  0.00    +0.000 A 
ATOM     16  C   UNL     1       1.875   4.658  19.958  0.00  0.00    +0.000 A 
ENDBRANCH   9  10
BRANCH   9  18
ATOM     17  C   UNL     1       2.606   8.053  17.853  0.00  0.00    +0.000 C 
ATOM     18  O   UNL     1       2.907   7.365  19.065  0.00  0.00    +0.000 OA
ENDBRANCH   9  18
ENDBRANCH   8   9
ENDBRANCH   1   8
BRANCH   1  19
ATOM     19  C   UNL     1       6.017   4.580  16.488  0.00  0.00    +0.000 C 
BRANCH  19  20
ATOM     20  C   UNL     1       7.137   4.669  15.441  0.00  0.00    +0.000 C 
BRANCH  20  21
ATOM     21  N   UNL     1       6.654   5.195  14.152  0.00  0.00    +0.000 NA
ATOM     22  C   UNL     1       5.469   4.460  13.679  0.00  0.00    +0.000 C 
ATOM     23  C   UNL     1       6.012   3.362  12.785  0.00  0.00    +0.000 C 
ATOM     24  C   UNL     1       7.170   4.038  12.085  0.00  0.00    +0.000 C 
ATOM     25  C   UNL     1       7.655   5.091  13.071  0.00  0.00    +0.000 C 
ENDBRANCH  20  21
ENDBRANCH  19  20
ENDBRANCH   1  19
TORSDOF 9
ENDMDL
MODEL 4
REMARK VINA RESULT:      -7.0      3.212      4.252
REMARK  Name = 
REMARK  10 active torsions:
REMARK  status: ('A' for Active; 'I' for Inactive)
REMARK    1  A    between atoms: C_1  and  O_2
REMARK    2  A    between atoms: O_2  and  C_3
REMARK    3  A    between atoms: C_3  and  C_4
REMARK    4  A    between atoms: C_3  and  C_17
REMARK    5  A    between atoms: C_4  and  C_5
REMARK    6  A    between atoms: C_5  and  C_6
REMARK    7  A    between atoms: C_5  and  C_13
REMARK    8  A    between atoms: C_6  and  C_7
REMARK    9  A    between atoms: C_7  and  N_8
REMARK   10  A    between atoms: N_15  and  O_16
REMARK                            x       y       z     vdW  Elec       q    Type
REMARK                         _______ _______ _______ _____ _____    ______ ____
ROOT
ATOM      1  C   UNL     1       4.342   3.770  17.543  0.00  0.00    +0.000 C 
ENDROOT
BRANCH   1   2
ATOM      2  C   UNL     1       5.846   4.068  17.714  0.00  0.00    +0.000 C 
ATOM      3  O   UNL     1       6.399   4.231  18.807  0.00  0.00    +0.000 OA
ATOM      4  N   UNL     1       6.581   4.098  16.557  0.00  0.00    +0.000 N 
ATOM      5  H   UNL     1       6.136   4.533  15.761  0.00  0.00    +0.000 HD
BRANCH   4   6
ATOM      6  O   UNL     1       7.939   4.478  16.731  0.00  0.00    +0.000 OA
ATOM      7  H   UNL     1       8.328   4.264  15.854  0.00  0.00    +0.000 HD
ENDBRANCH   4   6
ENDBRANCH   1   2
BRANCH   1   8
ATOM      8  C   UNL     1       3.415   5.020  17.514  0.00  0.00    +0.000 C 
BRANCH   8   9
ATOM      9  C   UNL     1       3.991   6.394  17.958  0.00  0.00    +0.000 C 
BRANCH   9  10
ATOM     10  C   UNL     1       2.903   7.349  18.443  0.00  0.00    +0.000 A 
ATOM     11  C   UNL     1       2.405   8.349  17.595  0.00  0.00    +0.000 A 
ATOM     12  C   UNL     1       1.517   9.313  18.066  0.00  0.00    +0.000 A 
ATOM     13  C   UNL     1       1.099   9.278  19.399  0.00  0.00    +0.000 A 
ATOM     14  F   UNL     1       0.296  10.235  19.875  0.00  0.00    +0.000 F 
ATOM     15  C   UNL     1       1.513   8.256  20.240  0.00  0.00    +0.000 A 
ATOM     16  C   UNL     1       2.386   7.288  19.754  0.00  0.00    +0.000 A 
ENDBRANCH   9  10
BRANCH   9  18
ATOM     17  C   UNL     1       5.998   7.454  17.166  0.00  0.00    +0.000 C 
ATOM     18  O   UNL     1       4.718   6.916  16.845  0.00  0.00    +0.000 OA
ENDBRANCH   9  18
ENDBRANCH   8   9
ENDBRANCH   1   8
BRANCH   1  19
ATOM     19  C   UNL     1       3.972   2.814  18.713  0.00  0.00    +0.000 C 
BRANCH  19  20
ATOM     20  C   UNL     1       2.625   2.085  18.607  0.00  0.00    +0.000 C 
BRANCH  20  21
ATOM     21  N   UNL     1       1.915   2.040  19.897  0.00  0.00    +0.000 NA
ATOM     22  C   UNL     1       0.659   2.805  19.850  0.00  0.00    +0.000 C 
ATOM     23  C   UNL     1       1.019   4.194  20.339  0.00  0.00    +0.000 C 
ATOM     24  C   UNL     1       2.032   3.916  21.429  0.00  0.00    +0.000 C 
ATOM     25  C   UNL     1       2.697   2.612  21.012  0.00  0.00    +0.000 C 
ENDBRANCH  20  21
ENDBRANCH  19  20
ENDBRANCH   1  19
TORSDOF 9
ENDMDL
MODEL 5
REMARK VINA RESULT:      -7.0      3.596      6.726
REMARK  Name = 
REMARK  10 active torsions:
REMARK  status: ('A' for Active; 'I' for Inactive)
REMARK    1  A    between atoms: C_1  and  O_2
REMARK    2  A    between atoms: O_2  and  C_3
REMARK    3  A    between atoms: C_3  and  C_4
REMARK    4  A    between atoms: C_3  and  C_17
REMARK    5  A    between atoms: C_4  and  C_5
REMARK    6  A    between atoms: C_5  and  C_6
REMARK    7  A    between atoms: C_5  and  C_13
REMARK    8  A    between atoms: C_6  and  C_7
REMARK    9  A    between atoms: C_7  and  N_8
REMARK   10  A    between atoms: N_15  and  O_16
REMARK                            x       y       z     vdW  Elec       q    Type
REMARK                         _______ _______ _______ _____ _____    ______ ____
ROOT
ATOM      1  C   UNL     1       5.518   5.557  17.368  0.00  0.00    +0.000 C 
ENDROOT
BRANCH   1   2
ATOM      2  C   UNL     1       6.191   5.100  18.679  0.00  0.00    +0.000 C 
ATOM      3  O   UNL     1       5.851   4.099  19.320  0.00  0.00    +0.000 OA
ATOM      4  N   UNL     1       7.256   5.858  19.096  0.00  0.00    +0.000 N 
ATOM      5  H   UNL     1       7.163   6.857  18.975  0.00  0.00    +0.000 HD
BRANCH   4   6
ATOM      6  O   UNL     1       7.790   5.481  20.358  0.00  0.00    +0.000 OA
ATOM      7  H   UNL     1       7.512   6.229  20.932  0.00  0.00    +0.000 HD
ENDBRANCH   4   6
ENDBRANCH   1   2
BRANCH   1   8
ATOM      8  C   UNL     1       4.246   6.437  17.545  0.00  0.00    +0.000 C 
BRANCH   8   9
ATOM      9  C   UNL     1       3.459   6.362  18.883  0.00  0.00    +0.000 C 
BRANCH   9  10
ATOM     10  C   UNL     1       2.513   5.164  18.932  0.00  0.00    +0.000 A 
ATOM     11  C   UNL     1       2.212   4.546  20.155  0.00  0.00    +0.000 A 
ATOM     12  C   UNL     1       1.466   3.371  20.201  0.00  0.00    +0.000 A 
ATOM     13  C   UNL     1       0.994   2.804  19.015  0.00  0.00    +0.000 A 
ATOM     14  F   UNL     1       0.330   1.643  19.044  0.00  0.00    +0.000 F 
ATOM     15  C   UNL     1       1.208   3.433  17.798  0.00  0.00    +0.000 A 
ATOM     16  C   UNL     1       1.940   4.617  17.767  0.00  0.00    +0.000 A 
ENDBRANCH   9  10
BRANCH   9  18
ATOM     17  C   UNL     1       2.574   8.326  17.814  0.00  0.00    +0.000 C 
ATOM     18  O   UNL     1       2.772   7.605  19.028  0.00  0.00    +0.000 OA
ENDBRANCH   9  18
ENDBRANCH   8   9
ENDBRANCH   1   8
BRANCH   1  19
ATOM     19  C   UNL     1       5.202   4.250  16.587  0.00  0.00    +0.000 C 
BRANCH  19  20
ATOM     20  C   UNL     1       6.188   3.855  15.479  0.00  0.00    +0.000 C 
BRANCH  20  21
ATOM     21  N   UNL     1       6.010   4.665  14.261  0.00  0.00    +0.000 NA
ATOM     22  C   UNL     1       5.119   4.002  13.296  0.00  0.00    +0.000 C 
ATOM     23  C   UNL     1       6.038   3.215  12.382  0.00  0.00    +0.000 C 
ATOM     24  C   UNL     1       7.236   4.127  12.240  0.00  0.00    +0.000 C 
ATOM     25  C   UNL     1       7.275   4.916  13.541  0.00  0.00    +0.000 C 
ENDBRANCH  20  21
ENDBRANCH  19  20
ENDBRANCH   1  19
TORSDOF 9
ENDMDL
MODEL 6
REMARK VINA RESULT:      -6.8      3.268      6.258
REMARK  Name = 
REMARK  10 active torsions:
REMARK  status: ('A' for Active; 'I' for Inactive)
REMARK    1  A    between atoms: C_1  and  O_2
REMARK    2  A    between atoms: O_2  and  C_3
REMARK    3  A    between atoms: C_3  and  C_4
REMARK    4  A    between atoms: C_3  and  C_17
REMARK    5  A    between atoms: C_4  and  C_5
REMARK    6  A    between atoms: C_5  and  C_6
REMARK    7  A    between atoms: C_5  and  C_13
REMARK    8  A    between atoms: C_6  and  C_7
REMARK    9  A    between atoms: C_7  and  N_8
REMARK   10  A    between atoms: N_15  and  O_16
REMARK                            x       y       z     vdW  Elec       q    Type
REMARK                         _______ _______ _______ _____ _____    ______ ____
ROOT
ATOM      1  C   UNL     1       5.664   4.884  17.468  0.00  0.00    +0.000 C 
ENDROOT
BRANCH   1   2
ATOM      2  C   UNL     1       6.400   5.155  18.796  0.00  0.00    +0.000 C 
ATOM      3  O   UNL     1       5.835   5.475  19.847  0.00  0.00    +0.000 OA
ATOM      4  N   UNL     1       7.759   4.972  18.771  0.00  0.00    +0.000 N 
ATOM      5  H   UNL     1       8.233   5.286  17.935  0.00  0.00    +0.000 HD
BRANCH   4   6
ATOM      6  O   UNL     1       8.425   5.330  19.974  0.00  0.00    +0.000 OA
ATOM      7  H   UNL     1       9.324   5.563  19.652  0.00  0.00    +0.000 HD
ENDBRANCH   4   6
ENDBRANCH   1   2
BRANCH   1   8
ATOM      8  C   UNL     1       4.560   3.788  17.531  0.00  0.00    +0.000 C 
BRANCH   8   9
ATOM      9  C   UNL     1       3.068   4.216  17.441  0.00  0.00    +0.000 C 
BRANCH   9  10
ATOM     10  C   UNL     1       2.724   5.324  18.433  0.00  0.00    +0.000 A 
ATOM     11  C   UNL     1       2.297   5.008  19.732  0.00  0.00    +0.000 A 
ATOM     12  C   UNL     1       1.845   6.000  20.600  0.00  0.00    +0.000 A 
ATOM     13  C   UNL     1       1.832   7.333  20.183  0.00  0.00    +0.000 A 
ATOM     14  F   UNL     1       1.344   8.283  20.987  0.00  0.00    +0.000 F 
ATOM     15  C   UNL     1       2.322   7.685  18.934  0.00  0.00    +0.000 A 
ATOM     16  C   UNL     1       2.786   6.688  18.082  0.00  0.00    +0.000 A 
ENDBRANCH   9  10
BRANCH   9  18
ATOM     17  C   UNL     1       3.032   1.884  18.025  0.00  0.00    +0.000 C 
ATOM     18  O   UNL     1       2.288   3.038  17.646  0.00  0.00    +0.000 OA
ENDBRANCH   9  18
ENDBRANCH   8   9
ENDBRANCH   1   8
BRANCH   1  19
ATOM     19  C   UNL     1       6.775   4.514  16.445  0.00  0.00    +0.000 C 
BRANCH  19  20
ATOM     20  C   UNL     1       6.348   3.661  15.243  0.00  0.00    +0.000 C 
BRANCH  20  21
ATOM     21  N   UNL     1       6.030   4.483  14.062  0.00  0.00    +0.000 NA
ATOM     22  C   UNL     1       5.136   3.774  13.133  0.00  0.00    +0.000 C 
ATOM     23  C   UNL     1       6.054   3.086  12.142  0.00  0.00    +0.000 C 
ATOM     24  C   UNL     1       7.165   4.096  11.955  0.00  0.00    +0.000 C 
ATOM     25  C   UNL     1       7.223   4.854  13.274  0.00  0.00    +0.000 C 
ENDBRANCH  20  21
ENDBRANCH  19  20
ENDBRANCH   1  19
TORSDOF 9
ENDMDL
MODEL 7
REMARK VINA RESULT:      -6.8      3.478      6.288
REMARK  Name = 
REMARK  10 active torsions:
REMARK  status: ('A' for Active; 'I' for Inactive)
REMARK    1  A    between atoms: C_1  and  O_2
REMARK    2  A    between atoms: O_2  and  C_3
REMARK    3  A    between atoms: C_3  and  C_4
REMARK    4  A    between atoms: C_3  and  C_17
REMARK    5  A    between atoms: C_4  and  C_5
REMARK    6  A    between atoms: C_5  and  C_6
REMARK    7  A    between atoms: C_5  and  C_13
REMARK    8  A    between atoms: C_6  and  C_7
REMARK    9  A    between atoms: C_7  and  N_8
REMARK   10  A    between atoms: N_15  and  O_16
REMARK                            x       y       z     vdW  Elec       q    Type
REMARK                         _______ _______ _______ _____ _____    ______ ____
ROOT
ATOM      1  C   UNL     1       6.255   5.486  17.570  0.00  0.00    +0.000 C 
ENDROOT
BRANCH   1   2
ATOM      2  C   UNL     1       7.256   5.876  18.678  0.00  0.00    +0.000 C 
ATOM      3  O   UNL     1       8.039   6.828  18.599  0.00  0.00    +0.000 OA
ATOM      4  N   UNL     1       7.203   5.119  19.821  0.00  0.00    +0.000 N 
ATOM      5  H   UNL     1       7.060   4.128  19.688  0.00  0.00    +0.000 HD
BRANCH   4   6
ATOM      6  O   UNL     1       8.203   5.430  20.781  0.00  0.00    +0.000 OA
ATOM      7  H   UNL     1       7.866   4.977  21.585  0.00  0.00    +0.000 HD
ENDBRANCH   4   6
ENDBRANCH   1   2
BRANCH   1   8
ATOM      8  C   UNL     1       4.916   4.870  18.070  0.00  0.00    +0.000 C 
BRANCH   8   9
ATOM      9  C   UNL     1       3.581   5.368  17.450  0.00  0.00    +0.000 C 
BRANCH   9  10
ATOM     10  C   UNL     1       2.961   6.511  18.251  0.00  0.00    +0.000 A 
ATOM     11  C   UNL     1       2.614   6.327  19.598  0.00  0.00    +0.000 A 
ATOM     12  C   UNL     1       1.921   7.311  20.301  0.00  0.00    +0.000 A 
ATOM     13  C   UNL     1       1.579   8.506  19.664  0.00  0.00    +0.000 A 
ATOM     14  F   UNL     1       0.861   9.430  20.311  0.00  0.00    +0.000 F 
ATOM     15  C   UNL     1       1.977   8.748  18.357  0.00  0.00    +0.000 A 
ATOM     16  C   UNL     1       2.684   7.765  17.671  0.00  0.00    +0.000 A 
ENDBRANCH   9  10
BRANCH   9  18
ATOM     17  C   UNL     1       3.286   3.012  17.825  0.00  0.00    +0.000 C 
ATOM     18  O   UNL     1       2.718   4.234  17.360  0.00  0.00    +0.000 OA
ENDBRANCH   9  18
ENDBRANCH   8   9
ENDBRANCH   1   8
BRANCH   1  19
ATOM     19  C   UNL     1       7.024   4.502  16.645  0.00  0.00    +0.000 C 
BRANCH  19  20
ATOM     20  C   UNL     1       6.199   3.781  15.569  0.00  0.00    +0.000 C 
BRANCH  20  21
ATOM     21  N   UNL     1       5.964   4.630  14.388  0.00  0.00    +0.000 NA
ATOM     22  C   UNL     1       5.146   3.938  13.378  0.00  0.00    +0.000 C 
ATOM     23  C   UNL     1       6.140   3.279  12.443  0.00  0.00    +0.000 C 
ATOM     24  C   UNL     1       7.255   4.299  12.362  0.00  0.00    +0.000 C 
ATOM     25  C   UNL     1       7.210   5.025  13.699  0.00  0.00    +0.000 C 
ENDBRANCH  20  21
ENDBRANCH  19  20
ENDBRANCH   1  19
TORSDOF 9
ENDMDL
MODEL 8
REMARK VINA RESULT:      -6.8      2.990      4.604
REMARK  Name = 
REMARK  10 active torsions:
REMARK  status: ('A' for Active; 'I' for Inactive)
REMARK    1  A    between atoms: C_1  and  O_2
REMARK    2  A    between atoms: O_2  and  C_3
REMARK    3  A    between atoms: C_3  and  C_4
REMARK    4  A    between atoms: C_3  and  C_17
REMARK    5  A    between atoms: C_4  and  C_5
REMARK    6  A    between atoms: C_5  and  C_6
REMARK    7  A    between atoms: C_5  and  C_13
REMARK    8  A    between atoms: C_6  and  C_7
REMARK    9  A    between atoms: C_7  and  N_8
REMARK   10  A    between atoms: N_15  and  O_16
REMARK                            x       y       z     vdW  Elec       q    Type
REMARK                         _______ _______ _______ _____ _____    ______ ____
ROOT
ATOM      1  C   UNL     1       5.893   4.606  18.105  0.00  0.00    +0.000 C 
ENDROOT
BRANCH   1   2
ATOM      2  C   UNL     1       7.359   4.614  18.587  0.00  0.00    +0.000 C 
ATOM      3  O   UNL     1       8.299   4.124  17.951  0.00  0.00    +0.000 OA
ATOM      4  N   UNL     1       7.591   5.255  19.777  0.00  0.00    +0.000 N 
ATOM      5  H   UNL     1       6.893   5.120  20.495  0.00  0.00    +0.000 HD
BRANCH   4   6
ATOM      6  O   UNL     1       8.927   5.157  20.250  0.00  0.00    +0.000 OA
ATOM      7  H   UNL     1       9.378   4.704  19.502  0.00  0.00    +0.000 HD
ENDBRANCH   4   6
ENDBRANCH   1   2
BRANCH   1   8
ATOM      8  C   UNL     1       5.422   5.905  17.389  0.00  0.00    +0.000 C 
BRANCH   8   9
ATOM      9  C   UNL     1       6.223   6.421  16.161  0.00  0.00    +0.000 C 
BRANCH   9  10
ATOM     10  C   UNL     1       6.284   5.392  15.035  0.00  0.00    +0.000 A 
ATOM     11  C   UNL     1       7.402   5.330  14.188  0.00  0.00    +0.000 A 
ATOM     12  C   UNL     1       7.412   4.494  13.074  0.00  0.00    +0.000 A 
ATOM     13  C   UNL     1       6.303   3.691  12.800  0.00  0.00    +0.000 A 
ATOM     14  F   UNL     1       6.279   2.932  11.699  0.00  0.00    +0.000 F 
ATOM     15  C   UNL     1       5.216   3.672  13.662  0.00  0.00    +0.000 A 
ATOM     16  C   UNL     1       5.224   4.498  14.782  0.00  0.00    +0.000 A 
ENDBRANCH   9  10
BRANCH   9  18
ATOM     17  C   UNL     1       7.559   7.990  17.399  0.00  0.00    +0.000 C 
ATOM     18  O   UNL     1       7.519   6.786  16.637  0.00  0.00    +0.000 OA
ENDBRANCH   9  18
ENDBRANCH   8   9
ENDBRANCH   1   8
BRANCH   1  19
ATOM     19  C   UNL     1       5.041   4.312  19.371  0.00  0.00    +0.000 C 
BRANCH  19  20
ATOM     20  C   UNL     1       4.484   2.888  19.511  0.00  0.00    +0.000 C 
BRANCH  20  21
ATOM     21  N   UNL     1       3.016   2.851  19.381  0.00  0.00    +0.000 NA
ATOM     22  C   UNL     1       2.598   2.127  18.170  0.00  0.00    +0.000 C 
ATOM     23  C   UNL     1       2.453   3.190  17.100  0.00  0.00    +0.000 C 
ATOM     24  C   UNL     1       1.880   4.364  17.864  0.00  0.00    +0.000 C 
ATOM     25  C   UNL     1       2.408   4.194  19.282  0.00  0.00    +0.000 C 
ENDBRANCH  20  21
ENDBRANCH  19  20
ENDBRANCH   1  19
TORSDOF 9
ENDMDL
MODEL 9
REMARK VINA RESULT:      -6.7      3.617      5.904
REMARK  Name = 
REMARK  10 active torsions:
REMARK  status: ('A' for Active; 'I' for Inactive)
REMARK    1  A    between atoms: C_1  and  O_2
REMARK    2  A    between atoms: O_2  and  C_3
REMARK    3  A    between atoms: C_3  and  C_4
REMARK    4  A    between atoms: C_3  and  C_17
REMARK    5  A    between atoms: C_4  and  C_5
REMARK    6  A    between atoms: C_5  and  C_6
REMARK    7  A    between atoms: C_5  and  C_13
REMARK    8  A    between atoms: C_6  and  C_7
REMARK    9  A    between atoms: C_7  and  N_8
REMARK   10  A    between atoms: N_15  and  O_16
REMARK                            x       y       z     vdW  Elec       q    Type
REMARK                         _______ _______ _______ _____ _____    ______ ____
ROOT
ATOM      1  C   UNL     1       4.696   5.039  19.102  0.00  0.00    +0.000 C 
ENDROOT
BRANCH   1   2
ATOM      2  C   UNL     1       4.536   3.516  18.915  0.00  0.00    +0.000 C 
ATOM      3  O   UNL     1       3.866   2.996  18.015  0.00  0.00    +0.000 OA
ATOM      4  N   UNL     1       5.234   2.731  19.797  0.00  0.00    +0.000 N 
ATOM      5  H   UNL     1       5.260   3.055  20.753  0.00  0.00    +0.000 HD
BRANCH   4   6
ATOM      6  O   UNL     1       4.987   1.338  19.670  0.00  0.00    +0.000 OA
ATOM      7  H   UNL     1       5.816   1.018  19.250  0.00  0.00    +0.000 HD
ENDBRANCH   4   6
ENDBRANCH   1   2
BRANCH   1   8
ATOM      8  C   UNL     1       3.639   5.914  18.367  0.00  0.00    +0.000 C 
BRANCH   8   9
ATOM      9  C   UNL     1       2.293   6.225  19.080  0.00  0.00    +0.000 C 
BRANCH   9  10
ATOM     10  C   UNL     1       1.981   7.719  19.103  0.00  0.00    +0.000 A 
ATOM     11  C   UNL     1       1.405   8.307  20.240  0.00  0.00    +0.000 A 
ATOM     12  C   UNL     1       0.986   9.636  20.226  0.00  0.00    +0.000 A 
ATOM     13  C   UNL     1       1.156  10.404  19.071  0.00  0.00    +0.000 A 
ATOM     14  F   UNL     1       0.701  11.661  19.029  0.00  0.00    +0.000 F 
ATOM     15  C   UNL     1       1.792   9.873  17.959  0.00  0.00    +0.000 A 
ATOM     16  C   UNL     1       2.222   8.550  17.990  0.00  0.00    +0.000 A 
ENDBRANCH   9  10
BRANCH   9  18
ATOM     17  C   UNL     1       1.436   4.635  20.666  0.00  0.00    +0.000 C 
ATOM     18  O   UNL     1       2.381   5.665  20.390  0.00  0.00    +0.000 OA
ENDBRANCH   9  18
ENDBRANCH   8   9
ENDBRANCH   1   8
BRANCH   1  19
ATOM     19  C   UNL     1       6.138   5.367  18.624  0.00  0.00    +0.000 C 
BRANCH  19  20
ATOM     20  C   UNL     1       6.278   6.463  17.559  0.00  0.00    +0.000 C 
BRANCH  20  21
ATOM     21  N   UNL     1       6.808   5.938  16.288  0.00  0.00    +0.000 NA
ATOM     22  C   UNL     1       5.813   6.028  15.207  0.00  0.00    +0.000 C 
ATOM     23  C   UNL     1       5.096   4.693  15.214  0.00  0.00    +0.000 C 
ATOM     24  C   UNL     1       6.205   3.714  15.531  0.00  0.00    +0.000 C 
ATOM     25  C   UNL     1       7.197   4.515  16.364  0.00  0.00    +0.000 C 
ENDBRANCH  20  21
ENDBRANCH  19  20
ENDBRANCH   1  19
TORSDOF 9
ENDMDL
