MODEL 1
REMARK VINA RESULT:      -7.4      0.000      0.000
REMARK  Name = 
REMARK  8 active torsions:
REMARK  status: ('A' for Active; 'I' for Inactive)
REMARK    1  A    between atoms: C_1  and  O_2
REMARK    2  A    between atoms: O_2  and  C_3
REMARK    3  A    between atoms: C_8  and  C_9
REMARK    4  A    between atoms: C_9  and  N_10
REMARK    5  A    between atoms: C_14  and  C_16
REMARK    6  A    between atoms: C_16  and  O_17
REMARK    7  A    between atoms: O_17  and  C_18
REMARK    8  A    between atoms: C_22  and  C_23
REMARK                            x       y       z     vdW  Elec       q    Type
REMARK                         _______ _______ _______ _____ _____    ______ ____
ROOT
ATOM      1  N   UNL     1       3.162   4.031  18.572  0.00  0.00    +0.000 NA
ATOM      2  C   UNL     1       2.564   4.211  19.907  0.00  0.00    +0.000 C 
ATOM      3  C   UNL     1       2.449   5.626  20.510  0.00  0.00    +0.000 C 
ATOM      4  N   UNL     1       2.119   6.683  19.556  0.00  0.00    +0.000 N 
ATOM      5  C   UNL     1       1.673   7.896  20.106  0.00  0.00    +0.000 C 
ATOM      6  O   UNL     1       1.380   7.989  21.304  0.00  0.00    +0.000 OA
ATOM      7  C   UNL     1       2.812   6.593  18.276  0.00  0.00    +0.000 C 
ATOM      8  C   UNL     1       2.832   5.165  17.677  0.00  0.00    +0.000 C 
ENDROOT
BRANCH   1   9
ATOM      9  C   UNL     1       4.613   3.843  18.570  0.00  0.00    +0.000 C 
BRANCH   9  15
ATOM     10  C   UNL     1       6.483   5.060  17.440  0.00  0.00    +0.000 A 
ATOM     11  C   UNL     1       7.268   5.384  16.339  0.00  0.00    +0.000 A 
ATOM     12  C   UNL     1       6.904   4.885  15.074  0.00  0.00    +0.000 A 
ATOM     13  C   UNL     1       5.776   4.082  14.912  0.00  0.00    +0.000 A 
ATOM     14  C   UNL     1       5.021   3.718  16.028  0.00  0.00    +0.000 A 
ATOM     15  C   UNL     1       5.393   4.169  17.300  0.00  0.00    +0.000 A 
BRANCH  10  17
ATOM     16  C   UNL     1       7.643   5.764  19.529  0.00  0.00    +0.000 C 
ATOM     17  O   UNL     1       6.530   5.575  18.694  0.00  0.00    +0.000 OA
ENDBRANCH  10  17
ENDBRANCH   9  15
ENDBRANCH   1   9
BRANCH   5  18
ATOM     18  C   UNL     1       1.530   9.129  19.194  0.00  0.00    +0.000 C 
BRANCH  18  19
ATOM     19  O   UNL     1       0.718  10.120  19.817  0.00  0.00    +0.000 OA
BRANCH  19  20
ATOM     20  C   UNL     1      -0.450  10.482  19.196  0.00  0.00    +0.000 A 
ATOM     21  C   UNL     1      -1.179  11.477  19.856  0.00  0.00    +0.000 A 
ATOM     22  C   UNL     1      -2.359  11.987  19.307  0.00  0.00    +0.000 A 
ATOM     23  C   UNL     1      -2.822  11.507  18.090  0.00  0.00    +0.000 A 
ATOM     24  C   UNL     1      -2.120  10.498  17.421  0.00  0.00    +0.000 A 
ATOM     25  C   UNL     1      -2.624   9.985  16.105  0.00  0.00    +0.000 C 
ATOM     26  C   UNL     1      -0.928   9.980  17.979  0.00  0.00    +0.000 A 
ENDBRANCH  19  20
ENDBRANCH  18  19
ENDBRANCH   5  18
TORSDOF 6
ENDMDL
MODEL 2
REMARK VINA RESULT:      -7.4      1.460      2.227
REMARK  Name = 
REMARK  8 active torsions:
REMARK  status: ('A' for Active; 'I' for Inactive)
REMARK    1  A    between atoms: C_1  and  O_2
REMARK    2  A    between atoms: O_2  and  C_3
REMARK    3  A    between atoms: C_8  and  C_9
REMARK    4  A    between atoms: C_9  and  N_10
REMARK    5  A    between atoms: C_14  and  C_16
REMARK    6  A    between atoms: C_16  and  O_17
REMARK    7  A    between atoms: O_17  and  C_18
REMARK    8  A    between atoms: C_22  and  C_23
REMARK                            x       y       z     vdW  Elec       q    Type
REMARK                         _______ _______ _______ _____ _____    ______ ____
ROOT
ATOM      1  N   UNL     1       2.573   5.711  19.219  0.00  0.00    +0.000 NA
ATOM      2  C   UNL     1       1.870   6.052  20.469  0.00  0.00    +0.000 C 
ATOM      3  C   UNL     1       1.684   7.530  20.864  0.00  0.00    +0.000 C 
ATOM      4  N   UNL     1       1.412   8.441  19.754  0.00  0.00    +0.000 N 
ATOM      5  C   UNL     1       0.904   9.704  20.100  0.00  0.00    +0.000 C 
ATOM      6  O   UNL     1       0.516   9.948  21.248  0.00  0.00    +0.000 OA
ATOM      7  C   UNL     1       2.204   8.200  18.553  0.00  0.00    +0.000 C 
ATOM      8  C   UNL     1       2.296   6.705  18.157  0.00  0.00    +0.000 C 
ENDROOT
BRANCH   1   9
ATOM      9  C   UNL     1       4.023   5.564  19.352  0.00  0.00    +0.000 C 
BRANCH   9  15
ATOM     10  C   UNL     1       4.777   4.050  17.510  0.00  0.00    +0.000 A 
ATOM     11  C   UNL     1       5.478   3.768  16.342  0.00  0.00    +0.000 A 
ATOM     12  C   UNL     1       6.333   4.751  15.809  0.00  0.00    +0.000 A 
ATOM     13  C   UNL     1       6.489   5.987  16.431  0.00  0.00    +0.000 A 
ATOM     14  C   UNL     1       5.745   6.285  17.573  0.00  0.00    +0.000 A 
ATOM     15  C   UNL     1       4.856   5.336  18.094  0.00  0.00    +0.000 A 
BRANCH  10  17
ATOM     16  C   UNL     1       3.433   1.999  17.945  0.00  0.00    +0.000 C 
ATOM     17  O   UNL     1       4.062   3.205  18.293  0.00  0.00    +0.000 OA
ENDBRANCH  10  17
ENDBRANCH   9  15
ENDBRANCH   1   9
BRANCH   5  18
ATOM     18  C   UNL     1       0.812  10.800  19.021  0.00  0.00    +0.000 C 
BRANCH  18  19
ATOM     19  O   UNL     1      -0.318  11.636  19.253  0.00  0.00    +0.000 OA
BRANCH  19  20
ATOM     20  C   UNL     1      -1.480  11.352  18.583  0.00  0.00    +0.000 A 
ATOM     21  C   UNL     1      -2.634  11.898  19.155  0.00  0.00    +0.000 A 
ATOM     22  C   UNL     1      -3.882  11.742  18.546  0.00  0.00    +0.000 A 
ATOM     23  C   UNL     1      -3.989  11.036  17.355  0.00  0.00    +0.000 A 
ATOM     24  C   UNL     1      -2.852  10.464  16.775  0.00  0.00    +0.000 A 
ATOM     25  C   UNL     1      -2.973   9.705  15.486  0.00  0.00    +0.000 C 
ATOM     26  C   UNL     1      -1.590  10.621  17.393  0.00  0.00    +0.000 A 
ENDBRANCH  19  20
ENDBRANCH  18  19
ENDBRANCH   5  18
TORSDOF 6
ENDMDL
MODEL 3
REMARK VINA RESULT:      -7.4      1.352      1.951
REMARK  Name = 
REMARK  8 active torsions:
REMARK  status: ('A' for Active; 'I' for Inactive)
REMARK    1  A    between atoms: C_1  and  O_2
REMARK    2  A    between atoms: O_2  and  C_3
REMARK    3  A    between atoms: C_8  and  C_9
REMARK    4  A    between atoms: C_9  and  N_10
REMARK    5  A    between atoms: C_14  and  C_16
REMARK    6  A    between atoms: C_16  and  O_17
REMARK    7  A    between atoms: O_17  and  C_18
REMARK    8  A    between atoms: C_22  and  C_23
REMARK                            x       y       z     vdW  Elec       q    Type
REMARK                         _______ _______ _______ _____ _____    ______ ____
ROOT
ATOM      1  N   UNL     1       2.978   5.882  18.483  0.00  0.00    +0.000 NA
ATOM      2  C   UNL     1       2.350   5.908  19.816  0.00  0.00    +0.000 C 
ATOM      3  C   UNL     1       2.027   7.259  20.485  0.00  0.00    +0.000 C 
ATOM      4  N   UNL     1       1.556   8.305  19.579  0.00  0.00    +0.000 N 
ATOM      5  C   UNL     1       0.936   9.412  20.181  0.00  0.00    +0.000 C 
ATOM      6  O   UNL     1       0.623   9.401  21.377  0.00  0.00    +0.000 OA
ATOM      7  C   UNL     1       2.265   8.380  18.306  0.00  0.00    +0.000 C 
ATOM      8  C   UNL     1       2.495   7.001  17.639  0.00  0.00    +0.000 C 
ENDROOT
BRANCH   1   9
ATOM      9  C   UNL     1       4.441   5.905  18.493  0.00  0.00    +0.000 C 
BRANCH   9  15
ATOM     10  C   UNL     1       6.428   5.887  16.976  0.00  0.00    +0.000 A 
ATOM     11  C   UNL     1       7.195   5.366  15.939  0.00  0.00    +0.000 A 
ATOM     12  C   UNL     1       6.677   4.299  15.181  0.00  0.00    +0.000 A 
ATOM     13  C   UNL     1       5.418   3.766  15.451  0.00  0.00    +0.000 A 
ATOM     14  C   UNL     1       4.676   4.257  16.525  0.00  0.00    +0.000 A 
ATOM     15  C   UNL     1       5.193   5.289  17.318  0.00  0.00    +0.000 A 
BRANCH  10  17
ATOM     16  C   UNL     1       7.671   7.958  17.583  0.00  0.00    +0.000 C 
ATOM     17  O   UNL     1       6.637   7.016  17.698  0.00  0.00    +0.000 OA
ENDBRANCH  10  17
ENDBRANCH   9  15
ENDBRANCH   1   9
BRANCH   5  18
ATOM     18  C   UNL     1       0.624  10.656  19.328  0.00  0.00    +0.000 C 
BRANCH  18  19
ATOM     19  O   UNL     1      -0.684  11.143  19.613  0.00  0.00    +0.000 OA
BRANCH  19  20
ATOM     20  C   UNL     1      -1.649  11.006  18.648  0.00  0.00    +0.000 A 
ATOM     21  C   UNL     1      -1.316  10.134  17.607  0.00  0.00    +0.000 A 
ATOM     22  C   UNL     1      -2.227   9.852  16.586  0.00  0.00    +0.000 A 
ATOM     23  C   UNL     1      -3.485  10.440  16.596  0.00  0.00    +0.000 A 
ATOM     24  C   UNL     1      -3.833  11.332  17.617  0.00  0.00    +0.000 A 
ATOM     25  C   UNL     1      -5.194  11.964  17.624  0.00  0.00    +0.000 C 
ATOM     26  C   UNL     1      -2.908  11.619  18.648  0.00  0.00    +0.000 A 
ENDBRANCH  19  20
ENDBRANCH  18  19
ENDBRANCH   5  18
TORSDOF 6
ENDMDL
MODEL 4
REMARK VINA RESULT:      -7.3      1.501      8.484
REMARK  Name = 
REMARK  8 active torsions:
REMARK  status: ('A' for Active; 'I' for Inactive)
REMARK    1  A    between atoms: C_1  and  O_2
REMARK    2  A    between atoms: O_2  and  C_3
REMARK    3  A    between atoms: C_8  and  C_9
REMARK    4  A    between atoms: C_9  and  N_10
REMARK    5  A    between atoms: C_14  and  C_16
REMARK    6  A    between atoms: C_16  and  O_17
REMARK    7  A    between atoms: O_17  and  C_18
REMARK    8  A    between atoms: C_22  and  C_23
REMARK                            x       y       z     vdW  Elec       q    Type
REMARK                         _______ _______ _______ _____ _____    ______ ____
ROOT
ATOM      1  N   UNL     1       1.767   9.170  18.950  0.00  0.00    +0.000 NA
ATOM      2  C   UNL     1       1.639   8.664  20.328  0.00  0.00    +0.000 C 
ATOM      3  C   UNL     1       1.522   7.147  20.580  0.00  0.00    +0.000 C 
ATOM      4  N   UNL     1       2.338   6.307  19.706  0.00  0.00    +0.000 N 
ATOM      5  C   UNL     1       2.522   4.978  20.120  0.00  0.00    +0.000 C 
ATOM      6  O   UNL     1       2.193   4.607  21.252  0.00  0.00    +0.000 OA
ATOM      7  C   UNL     1       2.361   6.719  18.306  0.00  0.00    +0.000 C 
ATOM      8  C   UNL     1       2.558   8.242  18.108  0.00  0.00    +0.000 C 
ENDROOT
BRANCH   1   9
ATOM      9  C   UNL     1       0.497   9.442  18.276  0.00  0.00    +0.000 C 
BRANCH   9  15
ATOM     10  C   UNL     1      -1.702  10.634  18.276  0.00  0.00    +0.000 A 
ATOM     11  C   UNL     1      -2.593  11.597  18.737  0.00  0.00    +0.000 A 
ATOM     12  C   UNL     1      -2.144  12.541  19.679  0.00  0.00    +0.000 A 
ATOM     13  C   UNL     1      -0.832  12.528  20.147  0.00  0.00    +0.000 A 
ATOM     14  C   UNL     1       0.043  11.529  19.721  0.00  0.00    +0.000 A 
ATOM     15  C   UNL     1      -0.397  10.554  18.817  0.00  0.00    +0.000 A 
BRANCH  10  17
ATOM     16  C   UNL     1      -2.438   9.979  15.988  0.00  0.00    +0.000 C 
ATOM     17  O   UNL     1      -1.854   9.764  17.246  0.00  0.00    +0.000 OA
ENDBRANCH  10  17
ENDBRANCH   9  15
ENDBRANCH   1   9
BRANCH   5  18
ATOM     18  C   UNL     1       3.165   3.969  19.149  0.00  0.00    +0.000 C 
BRANCH  18  19
ATOM     19  O   UNL     1       4.586   4.015  19.249  0.00  0.00    +0.000 OA
BRANCH  19  20
ATOM     20  C   UNL     1       5.295   4.465  18.164  0.00  0.00    +0.000 A 
ATOM     21  C   UNL     1       6.409   5.251  18.478  0.00  0.00    +0.000 A 
ATOM     22  C   UNL     1       7.258   5.727  17.477  0.00  0.00    +0.000 A 
ATOM     23  C   UNL     1       7.003   5.421  16.147  0.00  0.00    +0.000 A 
ATOM     24  C   UNL     1       5.883   4.654  15.807  0.00  0.00    +0.000 A 
ATOM     25  C   UNL     1       5.613   4.324  14.368  0.00  0.00    +0.000 C 
ATOM     26  C   UNL     1       5.022   4.175  16.821  0.00  0.00    +0.000 A 
ENDBRANCH  19  20
ENDBRANCH  18  19
ENDBRANCH   5  18
TORSDOF 6
ENDMDL
MODEL 5
REMARK VINA RESULT:      -7.3      1.490      2.523
REMARK  Name = 
REMARK  8 active torsions:
REMARK  status: ('A' for Active; 'I' for Inactive)
REMARK    1  A    between atoms: C_1  and  O_2
REMARK    2  A    between atoms: O_2  and  C_3
REMARK    3  A    between atoms: C_8  and  C_9
REMARK    4  A    between atoms: C_9  and  N_10
REMARK    5  A    between atoms: C_14  and  C_16
REMARK    6  A    between atoms: C_16  and  O_17
REMARK    7  A    between atoms: O_17  and  C_18
REMARK    8  A    between atoms: C_22  and  C_23
REMARK                            x       y       z     vdW  Elec       q    Type
REMARK                         _______ _______ _______ _____ _____    ______ ____
ROOT
ATOM      1  N   UNL     1       2.529   5.748  19.176  0.00  0.00    +0.000 NA
ATOM      2  C   UNL     1       1.841   6.058  20.442  0.00  0.00    +0.000 C 
ATOM      3  C   UNL     1       1.685   7.525  20.890  0.00  0.00    +0.000 C 
ATOM      4  N   UNL     1       1.422   8.479  19.815  0.00  0.00    +0.000 N 
ATOM      5  C   UNL     1       0.940   9.738  20.209  0.00  0.00    +0.000 C 
ATOM      6  O   UNL     1       0.566   9.948  21.369  0.00  0.00    +0.000 OA
ATOM      7  C   UNL     1       2.201   8.266  18.600  0.00  0.00    +0.000 C 
ATOM      8  C   UNL     1       2.261   6.784  18.151  0.00  0.00    +0.000 C 
ENDROOT
BRANCH   1   9
ATOM      9  C   UNL     1       3.977   5.571  19.291  0.00  0.00    +0.000 C 
BRANCH   9  15
ATOM     10  C   UNL     1       4.733   4.071  17.438  0.00  0.00    +0.000 A 
ATOM     11  C   UNL     1       5.420   3.803  16.260  0.00  0.00    +0.000 A 
ATOM     12  C   UNL     1       6.246   4.803  15.712  0.00  0.00    +0.000 A 
ATOM     13  C   UNL     1       6.386   6.043  16.331  0.00  0.00    +0.000 A 
ATOM     14  C   UNL     1       5.654   6.326  17.485  0.00  0.00    +0.000 A 
ATOM     15  C   UNL     1       4.793   5.359  18.020  0.00  0.00    +0.000 A 
BRANCH  10  17
ATOM     16  C   UNL     1       3.194   2.160  17.866  0.00  0.00    +0.000 C 
ATOM     17  O   UNL     1       4.049   3.212  18.233  0.00  0.00    +0.000 OA
ENDBRANCH  10  17
ENDBRANCH   9  15
ENDBRANCH   1   9
BRANCH   5  18
ATOM     18  C   UNL     1       0.860  10.872  19.170  0.00  0.00    +0.000 C 
BRANCH  18  19
ATOM     19  O   UNL     1      -0.327  11.637  19.356  0.00  0.00    +0.000 OA
BRANCH  19  20
ATOM     20  C   UNL     1      -1.439  11.292  18.630  0.00  0.00    +0.000 A 
ATOM     21  C   UNL     1      -1.220  10.312  17.656  0.00  0.00    +0.000 A 
ATOM     22  C   UNL     1      -2.275   9.819  16.883  0.00  0.00    +0.000 A 
ATOM     23  C   UNL     1      -3.562  10.301  17.077  0.00  0.00    +0.000 A 
ATOM     24  C   UNL     1      -3.801  11.295  18.032  0.00  0.00    +0.000 A 
ATOM     25  C   UNL     1      -5.195  11.811  18.239  0.00  0.00    +0.000 C 
ATOM     26  C   UNL     1      -2.733  11.796  18.812  0.00  0.00    +0.000 A 
ENDBRANCH  19  20
ENDBRANCH  18  19
ENDBRANCH   5  18
TORSDOF 6
ENDMDL
MODEL 6
REMARK VINA RESULT:      -7.2      1.555      8.441
REMARK  Name = 
REMARK  8 active torsions:
REMARK  status: ('A' for Active; 'I' for Inactive)
REMARK    1  A    between atoms: C_1  and  O_2
REMARK    2  A    between atoms: O_2  and  C_3
REMARK    3  A    between atoms: C_8  and  C_9
REMARK    4  A    between atoms: C_9  and  N_10
REMARK    5  A    between atoms: C_14  and  C_16
REMARK    6  A    between atoms: C_16  and  O_17
REMARK    7  A    between atoms: O_17  and  C_18
REMARK    8  A    between atoms: C_22  and  C_23
REMARK                            x       y       z     vdW  Elec       q    Type
REMARK                         _______ _______ _______ _____ _____    ______ ____
ROOT
ATOM      1  N   UNL     1       1.698   8.969  19.072  0.00  0.00    +0.000 NA
ATOM      2  C   UNL     1       1.572   8.447  20.444  0.00  0.00    +0.000 C 
ATOM      3  C   UNL     1       1.478   6.927  20.680  0.00  0.00    +0.000 C 
ATOM      4  N   UNL     1       2.309   6.108  19.800  0.00  0.00    +0.000 N 
ATOM      5  C   UNL     1       2.512   4.778  20.201  0.00  0.00    +0.000 C 
ATOM      6  O   UNL     1       2.184   4.389  21.328  0.00  0.00    +0.000 OA
ATOM      7  C   UNL     1       2.332   6.534  18.405  0.00  0.00    +0.000 C 
ATOM      8  C   UNL     1       2.507   8.063  18.223  0.00  0.00    +0.000 C 
ENDROOT
BRANCH   1   9
ATOM      9  C   UNL     1       0.427   9.230  18.395  0.00  0.00    +0.000 C 
BRANCH   9  15
ATOM     10  C   UNL     1      -1.620  10.645  18.157  0.00  0.00    +0.000 A 
ATOM     11  C   UNL     1      -2.511  11.623  18.585  0.00  0.00    +0.000 A 
ATOM     12  C   UNL     1      -2.199  12.367  19.740  0.00  0.00    +0.000 A 
ATOM     13  C   UNL     1      -1.021  12.141  20.448  0.00  0.00    +0.000 A 
ATOM     14  C   UNL     1      -0.157  11.123  20.044  0.00  0.00    +0.000 A 
ATOM     15  C   UNL     1      -0.471  10.344  18.924  0.00  0.00    +0.000 A 
BRANCH  10  17
ATOM     16  C   UNL     1      -2.689   9.689  16.120  0.00  0.00    +0.000 C 
ATOM     17  O   UNL     1      -1.619   9.955  16.990  0.00  0.00    +0.000 OA
ENDBRANCH  10  17
ENDBRANCH   9  15
ENDBRANCH   1   9
BRANCH   5  18
ATOM     18  C   UNL     1       3.174   3.789  19.223  0.00  0.00    +0.000 C 
BRANCH  18  19
ATOM     19  O   UNL     1       4.594   3.868  19.316  0.00  0.00    +0.000 OA
BRANCH  19  20
ATOM     20  C   UNL     1       5.272   4.505  18.308  0.00  0.00    +0.000 A 
ATOM     21  C   UNL     1       5.022   4.003  17.026  0.00  0.00    +0.000 A 
ATOM     22  C   UNL     1       5.597   4.593  15.898  0.00  0.00    +0.000 A 
ATOM     23  C   UNL     1       6.430   5.695  16.040  0.00  0.00    +0.000 A 
ATOM     24  C   UNL     1       6.711   6.201  17.314  0.00  0.00    +0.000 A 
ATOM     25  C   UNL     1       7.611   7.393  17.461  0.00  0.00    +0.000 C 
ATOM     26  C   UNL     1       6.131   5.601  18.455  0.00  0.00    +0.000 A 
ENDBRANCH  19  20
ENDBRANCH  18  19
ENDBRANCH   5  18
TORSDOF 6
ENDMDL
MODEL 7
REMARK VINA RESULT:      -7.2      0.419      1.350
REMARK  Name = 
REMARK  8 active torsions:
REMARK  status: ('A' for Active; 'I' for Inactive)
REMARK    1  A    between atoms: C_1  and  O_2
REMARK    2  A    between atoms: O_2  and  C_3
REMARK    3  A    between atoms: C_8  and  C_9
REMARK    4  A    between atoms: C_9  and  N_10
REMARK    5  A    between atoms: C_14  and  C_16
REMARK    6  A    between atoms: C_16  and  O_17
REMARK    7  A    between atoms: O_17  and  C_18
REMARK    8  A    between atoms: C_22  and  C_23
REMARK                            x       y       z     vdW  Elec       q    Type
REMARK                         _______ _______ _______ _____ _____    ______ ____
ROOT
ATOM      1  N   UNL     1       3.059   3.874  18.751  0.00  0.00    +0.000 NA
ATOM      2  C   UNL     1       2.502   4.130  20.091  0.00  0.00    +0.000 C 
ATOM      3  C   UNL     1       2.435   5.573  20.630  0.00  0.00    +0.000 C 
ATOM      4  N   UNL     1       2.104   6.593  19.638  0.00  0.00    +0.000 N 
ATOM      5  C   UNL     1       1.702   7.840  20.142  0.00  0.00    +0.000 C 
ATOM      6  O   UNL     1       1.442   7.995  21.341  0.00  0.00    +0.000 OA
ATOM      7  C   UNL     1       2.760   6.428  18.345  0.00  0.00    +0.000 C 
ATOM      8  C   UNL     1       2.732   4.973  17.813  0.00  0.00    +0.000 C 
ENDROOT
BRANCH   1   9
ATOM      9  C   UNL     1       4.505   3.651  18.720  0.00  0.00    +0.000 C 
BRANCH   9  15
ATOM     10  C   UNL     1       6.532   4.642  17.640  0.00  0.00    +0.000 A 
ATOM     11  C   UNL     1       7.316   4.975  16.541  0.00  0.00    +0.000 A 
ATOM     12  C   UNL     1       6.799   4.764  15.248  0.00  0.00    +0.000 A 
ATOM     13  C   UNL     1       5.524   4.235  15.058  0.00  0.00    +0.000 A 
ATOM     14  C   UNL     1       4.762   3.853  16.163  0.00  0.00    +0.000 A 
ATOM     15  C   UNL     1       5.277   4.015  17.455  0.00  0.00    +0.000 A 
BRANCH  10  17
ATOM     16  C   UNL     1       7.735   5.738  19.525  0.00  0.00    +0.000 C 
ATOM     17  O   UNL     1       6.741   4.931  18.948  0.00  0.00    +0.000 OA
ENDBRANCH  10  17
ENDBRANCH   9  15
ENDBRANCH   1   9
BRANCH   5  18
ATOM     18  C   UNL     1       1.562   9.033  19.178  0.00  0.00    +0.000 C 
BRANCH  18  19
ATOM     19  O   UNL     1       0.891  10.116  19.816  0.00  0.00    +0.000 OA
BRANCH  19  20
ATOM     20  C   UNL     1      -0.300  10.541  19.285  0.00  0.00    +0.000 A 
ATOM     21  C   UNL     1      -0.623   9.976  18.047  0.00  0.00    +0.000 A 
ATOM     22  C   UNL     1      -1.835  10.271  17.417  0.00  0.00    +0.000 A 
ATOM     23  C   UNL     1      -2.739  11.135  18.020  0.00  0.00    +0.000 A 
ATOM     24  C   UNL     1      -2.428  11.727  19.249  0.00  0.00    +0.000 A 
ATOM     25  C   UNL     1      -3.409  12.659  19.898  0.00  0.00    +0.000 C 
ATOM     26  C   UNL     1      -1.200  11.431  19.884  0.00  0.00    +0.000 A 
ENDBRANCH  19  20
ENDBRANCH  18  19
ENDBRANCH   5  18
TORSDOF 6
ENDMDL
MODEL 8
REMARK VINA RESULT:      -7.2      2.298      3.293
REMARK  Name = 
REMARK  8 active torsions:
REMARK  status: ('A' for Active; 'I' for Inactive)
REMARK    1  A    between atoms: C_1  and  O_2
REMARK    2  A    between atoms: O_2  and  C_3
REMARK    3  A    between atoms: C_8  and  C_9
REMARK    4  A    between atoms: C_9  and  N_10
REMARK    5  A    between atoms: C_14  and  C_16
REMARK    6  A    between atoms: C_16  and  O_17
REMARK    7  A    between atoms: O_17  and  C_18
REMARK    8  A    between atoms: C_22  and  C_23
REMARK                            x       y       z     vdW  Elec       q    Type
REMARK                         _______ _______ _______ _____ _____    ______ ____
ROOT
ATOM      1  N   UNL     1       2.751   6.820  18.046  0.00  0.00    +0.000 NA
ATOM      2  C   UNL     1       2.318   6.337  19.370  0.00  0.00    +0.000 C 
ATOM      3  C   UNL     1       2.034   7.348  20.499  0.00  0.00    +0.000 C 
ATOM      4  N   UNL     1       1.394   8.592  20.074  0.00  0.00    +0.000 N 
ATOM      5  C   UNL     1       0.817   9.370  21.091  0.00  0.00    +0.000 C 
ATOM      6  O   UNL     1       0.678   8.928  22.237  0.00  0.00    +0.000 OA
ATOM      7  C   UNL     1       1.911   9.156  18.832  0.00  0.00    +0.000 C 
ATOM      8  C   UNL     1       2.105   8.110  17.706  0.00  0.00    +0.000 C 
ENDROOT
BRANCH   1   9
ATOM      9  C   UNL     1       4.199   6.970  17.891  0.00  0.00    +0.000 C 
BRANCH   9  15
ATOM     10  C   UNL     1       6.292   6.225  16.744  0.00  0.00    +0.000 A 
ATOM     11  C   UNL     1       7.076   5.293  16.072  0.00  0.00    +0.000 A 
ATOM     12  C   UNL     1       6.501   4.063  15.701  0.00  0.00    +0.000 A 
ATOM     13  C   UNL     1       5.169   3.772  15.989  0.00  0.00    +0.000 A 
ATOM     14  C   UNL     1       4.402   4.688  16.709  0.00  0.00    +0.000 A 
ATOM     15  C   UNL     1       4.969   5.899  17.125  0.00  0.00    +0.000 A 
BRANCH  10  17
ATOM     16  C   UNL     1       7.732   8.074  17.588  0.00  0.00    +0.000 C 
ATOM     17  O   UNL     1       6.571   7.523  17.022  0.00  0.00    +0.000 OA
ENDBRANCH  10  17
ENDBRANCH   9  15
ENDBRANCH   1   9
BRANCH   5  18
ATOM     18  C   UNL     1       0.333  10.795  20.765  0.00  0.00    +0.000 C 
BRANCH  18  19
ATOM     19  O   UNL     1      -0.007  11.493  21.960  0.00  0.00    +0.000 OA
BRANCH  19  20
ATOM     20  C   UNL     1      -1.291  11.955  22.096  0.00  0.00    +0.000 A 
ATOM     21  C   UNL     1      -1.891  12.375  20.904  0.00  0.00    +0.000 A 
ATOM     22  C   UNL     1      -3.217  12.812  20.881  0.00  0.00    +0.000 A 
ATOM     23  C   UNL     1      -3.960  12.834  22.054  0.00  0.00    +0.000 A 
ATOM     24  C   UNL     1      -3.376  12.437  23.262  0.00  0.00    +0.000 A 
ATOM     25  C   UNL     1      -4.184  12.460  24.525  0.00  0.00    +0.000 C 
ATOM     26  C   UNL     1      -2.032  11.998  23.283  0.00  0.00    +0.000 A 
ENDBRANCH  19  20
ENDBRANCH  18  19
ENDBRANCH   5  18
TORSDOF 6
ENDMDL
MODEL 9
REMARK VINA RESULT:      -7.1      2.233      8.387
REMARK  Name = 
REMARK  8 active torsions:
REMARK  status: ('A' for Active; 'I' for Inactive)
REMARK    1  A    between atoms: C_1  and  O_2
REMARK    2  A    between atoms: O_2  and  C_3
REMARK    3  A    between atoms: C_8  and  C_9
REMARK    4  A    between atoms: C_9  and  N_10
REMARK    5  A    between atoms: C_14  and  C_16
REMARK    6  A    between atoms: C_16  and  O_17
REMARK    7  A    between atoms: O_17  and  C_18
REMARK    8  A    between atoms: C_22  and  C_23
REMARK                            x       y       z     vdW  Elec       q    Type
REMARK                         _______ _______ _______ _____ _____    ______ ____
ROOT
ATOM      1  N   UNL     1       1.986   8.106  20.030  0.00  0.00    +0.000 NA
ATOM      2  C   UNL     1       1.933   6.970  20.969  0.00  0.00    +0.000 C 
ATOM      3  C   UNL     1       1.642   5.552  20.439  0.00  0.00    +0.000 C 
ATOM      4  N   UNL     1       2.245   5.235  19.146  0.00  0.00    +0.000 N 
ATOM      5  C   UNL     1       2.292   3.874  18.802  0.00  0.00    +0.000 C 
ATOM      6  O   UNL     1       2.033   2.993  19.630  0.00  0.00    +0.000 OA
ATOM      7  C   UNL     1       2.180   6.307  18.159  0.00  0.00    +0.000 C 
ATOM      8  C   UNL     1       2.556   7.699  18.725  0.00  0.00    +0.000 C 
ENDROOT
BRANCH   1   9
ATOM      9  C   UNL     1       0.702   8.765  19.792  0.00  0.00    +0.000 C 
BRANCH   9  15
ATOM     10  C   UNL     1       0.170  11.064  20.621  0.00  0.00    +0.000 A 
ATOM     11  C   UNL     1      -0.360  11.960  21.542  0.00  0.00    +0.000 A 
ATOM     12  C   UNL     1      -0.850  11.466  22.766  0.00  0.00    +0.000 A 
ATOM     13  C   UNL     1      -0.806  10.106  23.066  0.00  0.00    +0.000 A 
ATOM     14  C   UNL     1      -0.320   9.205  22.118  0.00  0.00    +0.000 A 
ATOM     15  C   UNL     1       0.130   9.673  20.877  0.00  0.00    +0.000 A 
BRANCH  10  17
ATOM     16  C   UNL     1       1.119  12.567  18.876  0.00  0.00    +0.000 C 
ATOM     17  O   UNL     1       0.861  11.328  19.484  0.00  0.00    +0.000 OA
ENDBRANCH  10  17
ENDBRANCH   9  15
ENDBRANCH   1   9
BRANCH   5  18
ATOM     18  C   UNL     1       2.692   3.473  17.370  0.00  0.00    +0.000 C 
BRANCH  18  19
ATOM     19  O   UNL     1       4.040   3.012  17.337  0.00  0.00    +0.000 OA
BRANCH  19  20
ATOM     20  C   UNL     1       5.038   3.944  17.208  0.00  0.00    +0.000 A 
ATOM     21  C   UNL     1       5.151   4.508  15.933  0.00  0.00    +0.000 A 
ATOM     22  C   UNL     1       6.084   5.514  15.672  0.00  0.00    +0.000 A 
ATOM     23  C   UNL     1       6.916   5.969  16.686  0.00  0.00    +0.000 A 
ATOM     24  C   UNL     1       6.835   5.406  17.964  0.00  0.00    +0.000 A 
ATOM     25  C   UNL     1       7.735   5.903  19.057  0.00  0.00    +0.000 C 
ATOM     26  C   UNL     1       5.892   4.385  18.227  0.00  0.00    +0.000 A 
ENDBRANCH  19  20
ENDBRANCH  18  19
ENDBRANCH   5  18
TORSDOF 6
ENDMDL
