MODEL 1
REMARK VINA RESULT:      -5.3      0.000      0.000
REMARK  Name = 
REMARK  6 active torsions:
REMARK  status: ('A' for Active; 'I' for Inactive)
REMARK    1  A    between atoms: O_1  and  C_2
REMARK    2  A    between atoms: C_2  and  C_3
REMARK    3  A    between atoms: C_3  and  O_4
REMARK    4  A    between atoms: C_7  and  O_8
REMARK    5  A    between atoms: C_9  and  O_10
REMARK    6  A    between atoms: C_11  and  O_12
REMARK                            x       y       z     vdW  Elec       q    Type
REMARK                         _______ _______ _______ _____ _____    ______ ____
ROOT
ATOM      1  C   UNL     1       4.056   3.483  18.262  0.00  0.00    +0.000 C 
ATOM      2  S   UNL     1       2.779   4.754  17.937  0.00  0.00    +0.000 S 
ATOM      3  C   UNL     1       1.394   4.042  18.857  0.00  0.00    +0.000 C 
ATOM      4  C   UNL     1       1.731   3.667  20.296  0.00  0.00    +0.000 C 
ATOM      5  C   UNL     1       2.894   2.676  20.403  0.00  0.00    +0.000 C 
ATOM      6  C   UNL     1       4.207   3.174  19.771  0.00  0.00    +0.000 C 
ENDROOT
BRANCH   1   7
ATOM      7  O   UNL     1       3.658   2.272  17.604  0.00  0.00    +0.000 OA
ATOM      8  H   UNL     1       4.482   1.759  17.514  0.00  0.00    +0.000 HD
ENDBRANCH   1   7
BRANCH   4   9
ATOM      9  O   UNL     1       0.566   3.063  20.878  0.00  0.00    +0.000 OA
ATOM     10  H   UNL     1       0.755   2.102  20.912  0.00  0.00    +0.000 HD
ENDBRANCH   4   9
BRANCH   5  11
ATOM     11  O   UNL     1       3.062   2.384  21.810  0.00  0.00    +0.000 OA
ATOM     12  H   UNL     1       4.015   2.424  22.008  0.00  0.00    +0.000 HD
ENDBRANCH   5  11
BRANCH   6  13
ATOM     13  O   UNL     1       5.195   2.136  19.963  0.00  0.00    +0.000 OA
ATOM     14  H   UNL     1       5.032   1.770  20.853  0.00  0.00    +0.000 HD
ENDBRANCH   6  13
BRANCH   1  15
ATOM     15  C   UNL     1       5.397   3.946  17.644  0.00  0.00    +0.000 C 
BRANCH  15  16
ATOM     16  O   UNL     1       6.419   4.136  18.623  0.00  0.00    +0.000 OA
ATOM     17  H   UNL     1       6.654   5.080  18.609  0.00  0.00    +0.000 HD
ENDBRANCH  15  16
ENDBRANCH   1  15
TORSDOF 6
ENDMDL
MODEL 2
REMARK VINA RESULT:      -5.2      1.541      1.887
REMARK  Name = 
REMARK  6 active torsions:
REMARK  status: ('A' for Active; 'I' for Inactive)
REMARK    1  A    between atoms: O_1  and  C_2
REMARK    2  A    between atoms: C_2  and  C_3
REMARK    3  A    between atoms: C_3  and  O_4
REMARK    4  A    between atoms: C_7  and  O_8
REMARK    5  A    between atoms: C_9  and  O_10
REMARK    6  A    between atoms: C_11  and  O_12
REMARK                            x       y       z     vdW  Elec       q    Type
REMARK                         _______ _______ _______ _____ _____    ______ ____
ROOT
ATOM      1  C   UNL     1       4.194   3.520  18.473  0.00  0.00    +0.000 C 
ATOM      2  S   UNL     1       2.894   2.439  17.768  0.00  0.00    +0.000 S 
ATOM      3  C   UNL     1       1.929   2.104  19.260  0.00  0.00    +0.000 C 
ATOM      4  C   UNL     1       1.528   3.354  20.035  0.00  0.00    +0.000 C 
ATOM      5  C   UNL     1       2.725   4.210  20.460  0.00  0.00    +0.000 C 
ATOM      6  C   UNL     1       3.603   4.692  19.291  0.00  0.00    +0.000 C 
ENDROOT
BRANCH   1   7
ATOM      7  O   UNL     1       4.999   2.729  19.358  0.00  0.00    +0.000 OA
ATOM      8  H   UNL     1       5.151   3.304  20.131  0.00  0.00    +0.000 HD
ENDBRANCH   1   7
BRANCH   4   9
ATOM      9  O   UNL     1       0.828   2.935  21.215  0.00  0.00    +0.000 OA
ATOM     10  H   UNL     1       1.095   3.562  21.919  0.00  0.00    +0.000 HD
ENDBRANCH   4   9
BRANCH   5  11
ATOM     11  O   UNL     1       2.192   5.322  21.217  0.00  0.00    +0.000 OA
ATOM     12  H   UNL     1       2.597   6.137  20.868  0.00  0.00    +0.000 HD
ENDBRANCH   5  11
BRANCH   6  13
ATOM     13  O   UNL     1       4.672   5.484  19.857  0.00  0.00    +0.000 OA
ATOM     14  H   UNL     1       4.683   6.321  19.354  0.00  0.00    +0.000 HD
ENDBRANCH   6  13
BRANCH   1  15
ATOM     15  C   UNL     1       5.100   4.031  17.327  0.00  0.00    +0.000 C 
BRANCH  15  16
ATOM     16  O   UNL     1       6.471   4.131  17.711  0.00  0.00    +0.000 OA
ATOM     17  H   UNL     1       6.778   3.228  17.901  0.00  0.00    +0.000 HD
ENDBRANCH  15  16
ENDBRANCH   1  15
TORSDOF 6
ENDMDL
MODEL 3
REMARK VINA RESULT:      -5.2      1.217      3.898
REMARK  Name = 
REMARK  6 active torsions:
REMARK  status: ('A' for Active; 'I' for Inactive)
REMARK    1  A    between atoms: O_1  and  C_2
REMARK    2  A    between atoms: C_2  and  C_3
REMARK    3  A    between atoms: C_3  and  O_4
REMARK    4  A    between atoms: C_7  and  O_8
REMARK    5  A    between atoms: C_9  and  O_10
REMARK    6  A    between atoms: C_11  and  O_12
REMARK                            x       y       z     vdW  Elec       q    Type
REMARK                         _______ _______ _______ _____ _____    ______ ____
ROOT
ATOM      1  C   UNL     1       2.283   4.459  19.930  0.00  0.00    +0.000 C 
ATOM      2  S   UNL     1       2.443   5.211  18.269  0.00  0.00    +0.000 S 
ATOM      3  C   UNL     1       4.240   5.162  18.079  0.00  0.00    +0.000 C 
ATOM      4  C   UNL     1       4.856   3.792  18.346  0.00  0.00    +0.000 C 
ATOM      5  C   UNL     1       4.540   3.251  19.744  0.00  0.00    +0.000 C 
ATOM      6  C   UNL     1       3.035   3.111  20.040  0.00  0.00    +0.000 C 
ENDROOT
BRANCH   1   7
ATOM      7  O   UNL     1       2.858   5.361  20.886  0.00  0.00    +0.000 OA
ATOM      8  H   UNL     1       2.875   6.223  20.430  0.00  0.00    +0.000 HD
ENDBRANCH   1   7
BRANCH   4   9
ATOM      9  O   UNL     1       6.280   3.918  18.220  0.00  0.00    +0.000 OA
ATOM     10  H   UNL     1       6.630   3.896  19.135  0.00  0.00    +0.000 HD
ENDBRANCH   4   9
BRANCH   5  11
ATOM     11  O   UNL     1       5.223   1.983  19.862  0.00  0.00    +0.000 OA
ATOM     12  H   UNL     1       5.424   1.843  20.806  0.00  0.00    +0.000 HD
ENDBRANCH   5  11
BRANCH   6  13
ATOM     13  O   UNL     1       2.910   2.587  21.382  0.00  0.00    +0.000 OA
ATOM     14  H   UNL     1       2.199   1.919  21.345  0.00  0.00    +0.000 HD
ENDBRANCH   6  13
BRANCH   1  15
ATOM     15  C   UNL     1       0.781   4.296  20.267  0.00  0.00    +0.000 C 
BRANCH  15  16
ATOM     16  O   UNL     1       0.328   2.950  20.127  0.00  0.00    +0.000 OA
ATOM     17  H   UNL     1      -0.587   2.923  20.457  0.00  0.00    +0.000 HD
ENDBRANCH  15  16
ENDBRANCH   1  15
TORSDOF 6
ENDMDL
MODEL 4
REMARK VINA RESULT:      -5.1      2.167      3.045
REMARK  Name = 
REMARK  6 active torsions:
REMARK  status: ('A' for Active; 'I' for Inactive)
REMARK    1  A    between atoms: O_1  and  C_2
REMARK    2  A    between atoms: C_2  and  C_3
REMARK    3  A    between atoms: C_3  and  O_4
REMARK    4  A    between atoms: C_7  and  O_8
REMARK    5  A    between atoms: C_9  and  O_10
REMARK    6  A    between atoms: C_11  and  O_12
REMARK                            x       y       z     vdW  Elec       q    Type
REMARK                         _______ _______ _______ _____ _____    ______ ____
ROOT
ATOM      1  C   UNL     1       3.137   5.125  18.315  0.00  0.00    +0.000 C 
ATOM      2  S   UNL     1       1.647   4.166  17.855  0.00  0.00    +0.000 S 
ATOM      3  C   UNL     1       2.399   2.550  17.554  0.00  0.00    +0.000 C 
ATOM      4  C   UNL     1       3.287   2.057  18.692  0.00  0.00    +0.000 C 
ATOM      5  C   UNL     1       4.426   3.024  19.030  0.00  0.00    +0.000 C 
ATOM      6  C   UNL     1       3.957   4.435  19.431  0.00  0.00    +0.000 C 
ENDROOT
BRANCH   1   7
ATOM      7  O   UNL     1       3.975   5.231  17.156  0.00  0.00    +0.000 OA
ATOM      8  H   UNL     1       3.589   4.606  16.516  0.00  0.00    +0.000 HD
ENDBRANCH   1   7
BRANCH   4   9
ATOM      9  O   UNL     1       3.861   0.804  18.292  0.00  0.00    +0.000 OA
ATOM     10  H   UNL     1       3.203   0.121  18.537  0.00  0.00    +0.000 HD
ENDBRANCH   4   9
BRANCH   5  11
ATOM     11  O   UNL     1       5.199   2.403  20.082  0.00  0.00    +0.000 OA
ATOM     12  H   UNL     1       4.642   1.716  20.491  0.00  0.00    +0.000 HD
ENDBRANCH   5  11
BRANCH   6  13
ATOM     13  O   UNL     1       5.141   5.213  19.722  0.00  0.00    +0.000 OA
ATOM     14  H   UNL     1       4.897   6.145  19.566  0.00  0.00    +0.000 HD
ENDBRANCH   6  13
BRANCH   1  15
ATOM     15  C   UNL     1       2.709   6.553  18.730  0.00  0.00    +0.000 C 
BRANCH  15  16
ATOM     16  O   UNL     1       2.612   6.710  20.146  0.00  0.00    +0.000 OA
ATOM     17  H   UNL     1       1.786   7.194  20.321  0.00  0.00    +0.000 HD
ENDBRANCH  15  16
ENDBRANCH   1  15
TORSDOF 6
ENDMDL
MODEL 5
REMARK VINA RESULT:      -5.1      2.045      2.769
REMARK  Name = 
REMARK  6 active torsions:
REMARK  status: ('A' for Active; 'I' for Inactive)
REMARK    1  A    between atoms: O_1  and  C_2
REMARK    2  A    between atoms: C_2  and  C_3
REMARK    3  A    between atoms: C_3  and  O_4
REMARK    4  A    between atoms: C_7  and  O_8
REMARK    5  A    between atoms: C_9  and  O_10
REMARK    6  A    between atoms: C_11  and  O_12
REMARK                            x       y       z     vdW  Elec       q    Type
REMARK                         _______ _______ _______ _____ _____    ______ ____
ROOT
ATOM      1  C   UNL     1       5.320   5.794  17.440  0.00  0.00    +0.000 C 
ATOM      2  S   UNL     1       3.727   6.599  17.848  0.00  0.00    +0.000 S 
ATOM      3  C   UNL     1       2.711   5.135  18.154  0.00  0.00    +0.000 C 
ATOM      4  C   UNL     1       3.326   4.145  19.138  0.00  0.00    +0.000 C 
ATOM      5  C   UNL     1       4.709   3.647  18.706  0.00  0.00    +0.000 C 
ATOM      6  C   UNL     1       5.750   4.765  18.512  0.00  0.00    +0.000 C 
ENDROOT
BRANCH   1   7
ATOM      7  O   UNL     1       5.161   5.094  16.199  0.00  0.00    +0.000 OA
ATOM      8  H   UNL     1       4.344   5.460  15.813  0.00  0.00    +0.000 HD
ENDBRANCH   1   7
BRANCH   4   9
ATOM      9  O   UNL     1       2.447   3.015  19.234  0.00  0.00    +0.000 OA
ATOM     10  H   UNL     1       2.268   2.899  20.190  0.00  0.00    +0.000 HD
ENDBRANCH   4   9
BRANCH   5  11
ATOM     11  O   UNL     1       5.136   2.692  19.704  0.00  0.00    +0.000 OA
ATOM     12  H   UNL     1       5.520   3.193  20.447  0.00  0.00    +0.000 HD
ENDBRANCH   5  11
BRANCH   6  13
ATOM     13  O   UNL     1       6.988   4.132  18.117  0.00  0.00    +0.000 OA
ATOM     14  H   UNL     1       7.693   4.575  18.628  0.00  0.00    +0.000 HD
ENDBRANCH   6  13
BRANCH   1  15
ATOM     15  C   UNL     1       6.399   6.886  17.241  0.00  0.00    +0.000 C 
BRANCH  15  16
ATOM     16  O   UNL     1       7.490   6.441  16.434  0.00  0.00    +0.000 OA
ATOM     17  H   UNL     1       8.307   6.693  16.898  0.00  0.00    +0.000 HD
ENDBRANCH  15  16
ENDBRANCH   1  15
TORSDOF 6
ENDMDL
MODEL 6
REMARK VINA RESULT:      -5.0      1.643      3.841
REMARK  Name = 
REMARK  6 active torsions:
REMARK  status: ('A' for Active; 'I' for Inactive)
REMARK    1  A    between atoms: O_1  and  C_2
REMARK    2  A    between atoms: C_2  and  C_3
REMARK    3  A    between atoms: C_3  and  O_4
REMARK    4  A    between atoms: C_7  and  O_8
REMARK    5  A    between atoms: C_9  and  O_10
REMARK    6  A    between atoms: C_11  and  O_12
REMARK                            x       y       z     vdW  Elec       q    Type
REMARK                         _______ _______ _______ _____ _____    ______ ____
ROOT
ATOM      1  C   UNL     1       2.974   3.648  19.193  0.00  0.00    +0.000 C 
ATOM      2  S   UNL     1       2.197   4.784  17.985  0.00  0.00    +0.000 S 
ATOM      3  C   UNL     1       3.477   6.056  17.890  0.00  0.00    +0.000 C 
ATOM      4  C   UNL     1       4.876   5.512  17.616  0.00  0.00    +0.000 C 
ATOM      5  C   UNL     1       5.339   4.490  18.659  0.00  0.00    +0.000 C 
ATOM      6  C   UNL     1       4.418   3.263  18.791  0.00  0.00    +0.000 C 
ENDROOT
BRANCH   1   7
ATOM      7  O   UNL     1       3.035   4.317  20.460  0.00  0.00    +0.000 OA
ATOM      8  H   UNL     1       2.158   4.731  20.560  0.00  0.00    +0.000 HD
ENDBRANCH   1   7
BRANCH   4   9
ATOM      9  O   UNL     1       5.789   6.619  17.629  0.00  0.00    +0.000 OA
ATOM     10  H   UNL     1       5.234   7.420  17.725  0.00  0.00    +0.000 HD
ENDBRANCH   4   9
BRANCH   5  11
ATOM     11  O   UNL     1       6.685   4.107  18.294  0.00  0.00    +0.000 OA
ATOM     12  H   UNL     1       6.629   3.265  17.805  0.00  0.00    +0.000 HD
ENDBRANCH   5  11
BRANCH   6  13
ATOM     13  O   UNL     1       4.995   2.403  19.800  0.00  0.00    +0.000 OA
ATOM     14  H   UNL     1       5.209   1.563  19.349  0.00  0.00    +0.000 HD
ENDBRANCH   6  13
BRANCH   1  15
ATOM     15  C   UNL     1       2.081   2.395  19.353  0.00  0.00    +0.000 C 
BRANCH  15  16
ATOM     16  O   UNL     1       2.491   1.314  18.516  0.00  0.00    +0.000 OA
ATOM     17  H   UNL     1       1.827   1.235  17.809  0.00  0.00    +0.000 HD
ENDBRANCH  15  16
ENDBRANCH   1  15
TORSDOF 6
ENDMDL
MODEL 7
REMARK VINA RESULT:      -5.0      3.214      3.929
REMARK  Name = 
REMARK  6 active torsions:
REMARK  status: ('A' for Active; 'I' for Inactive)
REMARK    1  A    between atoms: O_1  and  C_2
REMARK    2  A    between atoms: C_2  and  C_3
REMARK    3  A    between atoms: C_3  and  O_4
REMARK    4  A    between atoms: C_7  and  O_8
REMARK    5  A    between atoms: C_9  and  O_10
REMARK    6  A    between atoms: C_11  and  O_12
REMARK                            x       y       z     vdW  Elec       q    Type
REMARK                         _______ _______ _______ _____ _____    ______ ____
ROOT
ATOM      1  C   UNL     1       6.206   4.515  16.195  0.00  0.00    +0.000 C 
ATOM      2  S   UNL     1       4.726   5.573  15.991  0.00  0.00    +0.000 S 
ATOM      3  C   UNL     1       4.025   5.447  17.652  0.00  0.00    +0.000 C 
ATOM      4  C   UNL     1       5.016   5.751  18.770  0.00  0.00    +0.000 C 
ATOM      5  C   UNL     1       6.255   4.850  18.738  0.00  0.00    +0.000 C 
ATOM      6  C   UNL     1       7.054   4.921  17.424  0.00  0.00    +0.000 C 
ENDROOT
BRANCH   1   7
ATOM      7  O   UNL     1       5.766   3.165  16.392  0.00  0.00    +0.000 OA
ATOM      8  H   UNL     1       5.034   3.050  15.758  0.00  0.00    +0.000 HD
ENDBRANCH   1   7
BRANCH   4   9
ATOM      9  O   UNL     1       4.343   5.552  20.022  0.00  0.00    +0.000 OA
ATOM     10  H   UNL     1       3.784   6.346  20.151  0.00  0.00    +0.000 HD
ENDBRANCH   4   9
BRANCH   5  11
ATOM     11  O   UNL     1       7.068   5.223  19.874  0.00  0.00    +0.000 OA
ATOM     12  H   UNL     1       7.939   5.501  19.535  0.00  0.00    +0.000 HD
ENDBRANCH   5  11
BRANCH   6  13
ATOM     13  O   UNL     1       8.182   4.027  17.560  0.00  0.00    +0.000 OA
ATOM     14  H   UNL     1       8.793   4.252  16.832  0.00  0.00    +0.000 HD
ENDBRANCH   6  13
BRANCH   1  15
ATOM     15  C   UNL     1       7.042   4.562  14.893  0.00  0.00    +0.000 C 
BRANCH  15  16
ATOM     16  O   UNL     1       7.891   5.708  14.824  0.00  0.00    +0.000 OA
ATOM     17  H   UNL     1       7.314   6.491  14.859  0.00  0.00    +0.000 HD
ENDBRANCH  15  16
ENDBRANCH   1  15
TORSDOF 6
ENDMDL
MODEL 8
REMARK VINA RESULT:      -4.9      2.368      3.562
REMARK  Name = 
REMARK  6 active torsions:
REMARK  status: ('A' for Active; 'I' for Inactive)
REMARK    1  A    between atoms: O_1  and  C_2
REMARK    2  A    between atoms: C_2  and  C_3
REMARK    3  A    between atoms: C_3  and  O_4
REMARK    4  A    between atoms: C_7  and  O_8
REMARK    5  A    between atoms: C_9  and  O_10
REMARK    6  A    between atoms: C_11  and  O_12
REMARK                            x       y       z     vdW  Elec       q    Type
REMARK                         _______ _______ _______ _____ _____    ______ ____
ROOT
ATOM      1  C   UNL     1       2.131   4.797  19.662  0.00  0.00    +0.000 C 
ATOM      2  S   UNL     1       1.070   3.317  19.849  0.00  0.00    +0.000 S 
ATOM      3  C   UNL     1       1.947   2.168  18.763  0.00  0.00    +0.000 C 
ATOM      4  C   UNL     1       3.442   2.062  19.048  0.00  0.00    +0.000 C 
ATOM      5  C   UNL     1       4.169   3.407  18.957  0.00  0.00    +0.000 C 
ATOM      6  C   UNL     1       3.625   4.485  19.913  0.00  0.00    +0.000 C 
ENDROOT
BRANCH   1   7
ATOM      7  O   UNL     1       2.002   5.270  18.314  0.00  0.00    +0.000 OA
ATOM      8  H   UNL     1       1.409   4.628  17.884  0.00  0.00    +0.000 HD
ENDBRANCH   1   7
BRANCH   4   9
ATOM      9  O   UNL     1       4.013   1.171  18.079  0.00  0.00    +0.000 OA
ATOM     10  H   UNL     1       4.311   1.740  17.339  0.00  0.00    +0.000 HD
ENDBRANCH   4   9
BRANCH   5  11
ATOM     11  O   UNL     1       5.569   3.139  19.203  0.00  0.00    +0.000 OA
ATOM     12  H   UNL     1       6.088   3.791  18.697  0.00  0.00    +0.000 HD
ENDBRANCH   5  11
BRANCH   6  13
ATOM     13  O   UNL     1       4.417   5.677  19.709  0.00  0.00    +0.000 OA
ATOM     14  H   UNL     1       3.911   6.234  19.087  0.00  0.00    +0.000 HD
ENDBRANCH   6  13
BRANCH   1  15
ATOM     15  C   UNL     1       1.619   5.907  20.611  0.00  0.00    +0.000 C 
BRANCH  15  16
ATOM     16  O   UNL     1       2.238   7.170  20.366  0.00  0.00    +0.000 OA
ATOM     17  H   UNL     1       3.150   6.989  20.081  0.00  0.00    +0.000 HD
ENDBRANCH  15  16
ENDBRANCH   1  15
TORSDOF 6
ENDMDL
MODEL 9
REMARK VINA RESULT:      -4.9      2.657      5.280
REMARK  Name = 
REMARK  6 active torsions:
REMARK  status: ('A' for Active; 'I' for Inactive)
REMARK    1  A    between atoms: O_1  and  C_2
REMARK    2  A    between atoms: C_2  and  C_3
REMARK    3  A    between atoms: C_3  and  O_4
REMARK    4  A    between atoms: C_7  and  O_8
REMARK    5  A    between atoms: C_9  and  O_10
REMARK    6  A    between atoms: C_11  and  O_12
REMARK                            x       y       z     vdW  Elec       q    Type
REMARK                         _______ _______ _______ _____ _____    ______ ____
ROOT
ATOM      1  C   UNL     1       4.888   4.086  17.583  0.00  0.00    +0.000 C 
ATOM      2  S   UNL     1       4.351   5.723  18.203  0.00  0.00    +0.000 S 
ATOM      3  C   UNL     1       5.901   6.639  18.040  0.00  0.00    +0.000 C 
ATOM      4  C   UNL     1       6.544   6.532  16.661  0.00  0.00    +0.000 C 
ATOM      5  C   UNL     1       6.833   5.087  16.241  0.00  0.00    +0.000 C 
ATOM      6  C   UNL     1       5.589   4.180  16.207  0.00  0.00    +0.000 C 
ENDROOT
BRANCH   1   7
ATOM      7  O   UNL     1       5.829   3.541  18.518  0.00  0.00    +0.000 OA
ATOM      8  H   UNL     1       5.589   3.946  19.372  0.00  0.00    +0.000 HD
ENDBRANCH   1   7
BRANCH   4   9
ATOM      9  O   UNL     1       7.786   7.250  16.698  0.00  0.00    +0.000 OA
ATOM     10  H   UNL     1       7.843   7.725  15.843  0.00  0.00    +0.000 HD
ENDBRANCH   4   9
BRANCH   5  11
ATOM     11  O   UNL     1       7.477   5.152  14.948  0.00  0.00    +0.000 OA
ATOM     12  H   UNL     1       8.436   5.239  15.101  0.00  0.00    +0.000 HD
ENDBRANCH   5  11
BRANCH   6  13
ATOM     13  O   UNL     1       6.028   2.868  15.789  0.00  0.00    +0.000 OA
ATOM     14  H   UNL     1       6.480   2.476  16.561  0.00  0.00    +0.000 HD
ENDBRANCH   6  13
BRANCH   1  15
ATOM     15  C   UNL     1       3.664   3.141  17.529  0.00  0.00    +0.000 C 
BRANCH  15  16
ATOM     16  O   UNL     1       4.009   1.777  17.769  0.00  0.00    +0.000 OA
ATOM     17  H   UNL     1       4.979   1.719  17.728  0.00  0.00    +0.000 HD
ENDBRANCH  15  16
ENDBRANCH   1  15
TORSDOF 6
ENDMDL
