MODEL 1
REMARK VINA RESULT:      -8.6      0.000      0.000
REMARK  Name = 
REMARK  9 active torsions:
REMARK  status: ('A' for Active; 'I' for Inactive)
REMARK    1  A    between atoms: C_1  and  O_2
REMARK    2  A    between atoms: O_2  and  C_3
REMARK    3  A    between atoms: C_5  and  C_6
REMARK    4  A    between atoms: C_6  and  C_7
REMARK    5  A    between atoms: N_8  and  N_9
REMARK    6  A    between atoms: C_10  and  C_12
REMARK    7  A    between atoms: C_12  and  S_13
REMARK    8  A    between atoms: S_13  and  C_14
REMARK    9  A    between atoms: C_25  and  O_26
REMARK                            x       y       z     vdW  Elec       q    Type
REMARK                         _______ _______ _______ _____ _____    ______ ____
ROOT
ATOM      1  N   UNL     1       8.687   8.540  18.915  0.00  0.00    +0.000 N 
ATOM      2  C   UNL     1       8.057   7.572  18.139  0.00  0.00    +0.000 C 
ATOM      3  O   UNL     1       7.738   7.723  16.956  0.00  0.00    +0.000 OA
ATOM      4  H   UNL     1       9.021   8.305  19.842  0.00  0.00    +0.000 HD
ENDROOT
BRANCH   1   7
ATOM      5  C   UNL     1       9.371  10.748  19.090  0.00  0.00    +0.000 C 
ATOM      6  C   UNL     1       9.373  10.681  20.604  0.00  0.00    +0.000 C 
ATOM      7  N   UNL     1       9.030   9.732  18.346  0.00  0.00    +0.000 NA
BRANCH   5  10
ATOM      8  C   UNL     1       9.469  14.394  17.801  0.00  0.00    +0.000 A 
ATOM      9  C   UNL     1       9.057  13.233  18.488  0.00  0.00    +0.000 A 
ATOM     10  C   UNL     1       9.766  12.029  18.384  0.00  0.00    +0.000 A 
ATOM     11  C   UNL     1      10.912  12.008  17.576  0.00  0.00    +0.000 A 
ATOM     12  C   UNL     1      11.333  13.150  16.890  0.00  0.00    +0.000 A 
ATOM     13  C   UNL     1      10.611  14.340  16.998  0.00  0.00    +0.000 A 
BRANCH   8  15
ATOM     14  C   UNL     1       9.035  16.416  19.018  0.00  0.00    +0.000 C 
ATOM     15  O   UNL     1       8.647  15.469  18.030  0.00  0.00    +0.000 OA
ENDBRANCH   8  15
BRANCH  13  16
ATOM     16  O   UNL     1      11.054  15.428  16.301  0.00  0.00    +0.000 OA
ATOM     17  H   UNL     1      11.482  15.131  15.482  0.00  0.00    +0.000 HD
ENDBRANCH  13  16
ENDBRANCH   5  10
ENDBRANCH   1   7
BRANCH   2  18
ATOM     18  C   UNL     1       7.731   6.298  18.900  0.00  0.00    +0.000 C 
BRANCH  18  19
ATOM     19  S   UNL     1       6.930   5.066  17.841  0.00  0.00    +0.000 S 
BRANCH  19  20
ATOM     20  C   UNL     1       5.460   4.764  18.687  0.00  0.00    +0.000 A 
ATOM     21  N   UNL     1       4.503   5.606  18.994  0.00  0.00    +0.000 NA
ATOM     22  C   UNL     1       3.554   4.824  19.625  0.00  0.00    +0.000 A 
ATOM     23  C   UNL     1       2.305   5.174  20.169  0.00  0.00    +0.000 A 
ATOM     24  C   UNL     1       1.524   4.175  20.771  0.00  0.00    +0.000 A 
ATOM     25  C   UNL     1       1.968   2.852  20.830  0.00  0.00    +0.000 A 
ATOM     26  C   UNL     1       3.205   2.480  20.287  0.00  0.00    +0.000 A 
ATOM     27  C   UNL     1       3.962   3.494  19.698  0.00  0.00    +0.000 A 
ATOM     28  N   UNL     1       5.185   3.490  19.085  0.00  0.00    +0.000 N 
ATOM     29  H   UNL     1       5.793   2.697  18.949  0.00  0.00    +0.000 HD
ENDBRANCH  19  20
ENDBRANCH  18  19
ENDBRANCH   2  18
TORSDOF 7
ENDMDL
MODEL 2
REMARK VINA RESULT:      -8.5      1.062      1.283
REMARK  Name = 
REMARK  9 active torsions:
REMARK  status: ('A' for Active; 'I' for Inactive)
REMARK    1  A    between atoms: C_1  and  O_2
REMARK    2  A    between atoms: O_2  and  C_3
REMARK    3  A    between atoms: C_5  and  C_6
REMARK    4  A    between atoms: C_6  and  C_7
REMARK    5  A    between atoms: N_8  and  N_9
REMARK    6  A    between atoms: C_10  and  C_12
REMARK    7  A    between atoms: C_12  and  S_13
REMARK    8  A    between atoms: S_13  and  C_14
REMARK    9  A    between atoms: C_25  and  O_26
REMARK                            x       y       z     vdW  Elec       q    Type
REMARK                         _______ _______ _______ _____ _____    ______ ____
ROOT
ATOM      1  N   UNL     1       8.658   8.527  18.932  0.00  0.00    +0.000 N 
ATOM      2  C   UNL     1       8.048   7.560  18.139  0.00  0.00    +0.000 C 
ATOM      3  O   UNL     1       7.762   7.711  16.948  0.00  0.00    +0.000 OA
ATOM      4  H   UNL     1       8.966   8.292  19.868  0.00  0.00    +0.000 HD
ENDROOT
BRANCH   1   7
ATOM      5  C   UNL     1       9.360  10.728  19.124  0.00  0.00    +0.000 C 
ATOM      6  C   UNL     1       9.339  10.655  20.638  0.00  0.00    +0.000 C 
ATOM      7  N   UNL     1       9.021   9.718  18.373  0.00  0.00    +0.000 NA
BRANCH   5  10
ATOM      8  C   UNL     1       9.552  14.396  17.911  0.00  0.00    +0.000 A 
ATOM      9  C   UNL     1       9.123  13.237  18.590  0.00  0.00    +0.000 A 
ATOM     10  C   UNL     1       9.776  12.007  18.429  0.00  0.00    +0.000 A 
ATOM     11  C   UNL     1      10.885  11.959  17.571  0.00  0.00    +0.000 A 
ATOM     12  C   UNL     1      11.322  13.099  16.892  0.00  0.00    +0.000 A 
ATOM     13  C   UNL     1      10.656  14.314  17.057  0.00  0.00    +0.000 A 
BRANCH   8  15
ATOM     14  C   UNL     1       7.393  15.441  17.919  0.00  0.00    +0.000 C 
ATOM     15  O   UNL     1       8.786  15.497  18.199  0.00  0.00    +0.000 OA
ENDBRANCH   8  15
BRANCH  13  16
ATOM     16  O   UNL     1      11.113  15.399  16.364  0.00  0.00    +0.000 OA
ATOM     17  H   UNL     1      11.010  15.238  15.412  0.00  0.00    +0.000 HD
ENDBRANCH  13  16
ENDBRANCH   5  10
ENDBRANCH   1   7
BRANCH   2  18
ATOM     18  C   UNL     1       7.698   6.287  18.890  0.00  0.00    +0.000 C 
BRANCH  18  19
ATOM     19  S   UNL     1       7.391   4.902  17.765  0.00  0.00    +0.000 S 
BRANCH  19  20
ATOM     20  C   UNL     1       5.708   4.615  17.997  0.00  0.00    +0.000 A 
ATOM     21  N   UNL     1       4.847   4.070  17.172  0.00  0.00    +0.000 NA
ATOM     22  C   UNL     1       3.662   4.048  17.884  0.00  0.00    +0.000 A 
ATOM     23  C   UNL     1       2.391   3.571  17.516  0.00  0.00    +0.000 A 
ATOM     24  C   UNL     1       1.336   3.677  18.436  0.00  0.00    +0.000 A 
ATOM     25  C   UNL     1       1.536   4.239  19.699  0.00  0.00    +0.000 A 
ATOM     26  C   UNL     1       2.796   4.712  20.088  0.00  0.00    +0.000 A 
ATOM     27  C   UNL     1       3.825   4.599  19.152  0.00  0.00    +0.000 A 
ATOM     28  N   UNL     1       5.148   4.948  19.194  0.00  0.00    +0.000 N 
ATOM     29  H   UNL     1       5.637   5.382  19.961  0.00  0.00    +0.000 HD
ENDBRANCH  19  20
ENDBRANCH  18  19
ENDBRANCH   2  18
TORSDOF 7
ENDMDL
MODEL 3
REMARK VINA RESULT:      -8.5      0.456      1.222
REMARK  Name = 
REMARK  9 active torsions:
REMARK  status: ('A' for Active; 'I' for Inactive)
REMARK    1  A    between atoms: C_1  and  O_2
REMARK    2  A    between atoms: O_2  and  C_3
REMARK    3  A    between atoms: C_5  and  C_6
REMARK    4  A    between atoms: C_6  and  C_7
REMARK    5  A    between atoms: N_8  and  N_9
REMARK    6  A    between atoms: C_10  and  C_12
REMARK    7  A    between atoms: C_12  and  S_13
REMARK    8  A    between atoms: S_13  and  C_14
REMARK    9  A    between atoms: C_25  and  O_26
REMARK                            x       y       z     vdW  Elec       q    Type
REMARK                         _______ _______ _______ _____ _____    ______ ____
ROOT
ATOM      1  N   UNL     1       8.692   8.484  18.913  0.00  0.00    +0.000 N 
ATOM      2  C   UNL     1       8.035   7.526  18.148  0.00  0.00    +0.000 C 
ATOM      3  O   UNL     1       7.695   7.683  16.972  0.00  0.00    +0.000 OA
ATOM      4  H   UNL     1       9.042   8.243  19.833  0.00  0.00    +0.000 HD
ENDROOT
BRANCH   1   7
ATOM      5  C   UNL     1       9.386  10.690  19.079  0.00  0.00    +0.000 C 
ATOM      6  C   UNL     1       9.389  10.628  20.593  0.00  0.00    +0.000 C 
ATOM      7  N   UNL     1       9.040   9.673  18.340  0.00  0.00    +0.000 NA
BRANCH   5  10
ATOM      8  C   UNL     1       9.456  14.310  17.717  0.00  0.00    +0.000 A 
ATOM      9  C   UNL     1       9.037  13.152  18.405  0.00  0.00    +0.000 A 
ATOM     10  C   UNL     1       9.784  11.966  18.368  0.00  0.00    +0.000 A 
ATOM     11  C   UNL     1      10.975  11.962  17.628  0.00  0.00    +0.000 A 
ATOM     12  C   UNL     1      11.403  13.102  16.941  0.00  0.00    +0.000 A 
ATOM     13  C   UNL     1      10.644  14.272  16.981  0.00  0.00    +0.000 A 
BRANCH   8  15
ATOM     14  C   UNL     1       7.582  15.265  18.871  0.00  0.00    +0.000 C 
ATOM     15  O   UNL     1       8.592  15.365  17.875  0.00  0.00    +0.000 OA
ENDBRANCH   8  15
BRANCH  13  16
ATOM     16  O   UNL     1      11.096  15.358  16.286  0.00  0.00    +0.000 OA
ATOM     17  H   UNL     1      12.037  15.494  16.482  0.00  0.00    +0.000 HD
ENDBRANCH  13  16
ENDBRANCH   5  10
ENDBRANCH   1   7
BRANCH   2  18
ATOM     18  C   UNL     1       7.708   6.254  18.912  0.00  0.00    +0.000 C 
BRANCH  18  19
ATOM     19  S   UNL     1       6.986   4.987  17.838  0.00  0.00    +0.000 S 
BRANCH  19  20
ATOM     20  C   UNL     1       5.510   4.626  18.649  0.00  0.00    +0.000 A 
ATOM     21  N   UNL     1       5.134   3.500  19.205  0.00  0.00    +0.000 NA
ATOM     22  C   UNL     1       3.891   3.785  19.741  0.00  0.00    +0.000 A 
ATOM     23  C   UNL     1       3.004   2.966  20.463  0.00  0.00    +0.000 A 
ATOM     24  C   UNL     1       1.783   3.506  20.894  0.00  0.00    +0.000 A 
ATOM     25  C   UNL     1       1.446   4.833  20.619  0.00  0.00    +0.000 A 
ATOM     26  C   UNL     1       2.318   5.668  19.908  0.00  0.00    +0.000 A 
ATOM     27  C   UNL     1       3.523   5.104  19.489  0.00  0.00    +0.000 A 
ATOM     28  N   UNL     1       4.584   5.616  18.792  0.00  0.00    +0.000 N 
ATOM     29  H   UNL     1       4.678   6.553  18.432  0.00  0.00    +0.000 HD
ENDBRANCH  19  20
ENDBRANCH  18  19
ENDBRANCH   2  18
TORSDOF 7
ENDMDL
MODEL 4
REMARK VINA RESULT:      -8.0      6.711     10.113
REMARK  Name = 
REMARK  9 active torsions:
REMARK  status: ('A' for Active; 'I' for Inactive)
REMARK    1  A    between atoms: C_1  and  O_2
REMARK    2  A    between atoms: O_2  and  C_3
REMARK    3  A    between atoms: C_5  and  C_6
REMARK    4  A    between atoms: C_6  and  C_7
REMARK    5  A    between atoms: N_8  and  N_9
REMARK    6  A    between atoms: C_10  and  C_12
REMARK    7  A    between atoms: C_12  and  S_13
REMARK    8  A    between atoms: S_13  and  C_14
REMARK    9  A    between atoms: C_25  and  O_26
REMARK                            x       y       z     vdW  Elec       q    Type
REMARK                         _______ _______ _______ _____ _____    ______ ____
ROOT
ATOM      1  N   UNL     1       1.074   8.890  20.408  0.00  0.00    +0.000 N 
ATOM      2  C   UNL     1       1.094   9.647  21.575  0.00  0.00    +0.000 C 
ATOM      3  O   UNL     1       1.656   9.307  22.620  0.00  0.00    +0.000 OA
ATOM      4  H   UNL     1       0.692   9.284  19.556  0.00  0.00    +0.000 HD
ENDROOT
BRANCH   1   7
ATOM      5  C   UNL     1       2.353   7.321  19.277  0.00  0.00    +0.000 C 
ATOM      6  C   UNL     1       2.309   8.134  17.998  0.00  0.00    +0.000 C 
ATOM      7  N   UNL     1       1.751   7.706  20.368  0.00  0.00    +0.000 NA
BRANCH   5  10
ATOM      8  C   UNL     1       4.941   4.510  18.677  0.00  0.00    +0.000 A 
ATOM      9  C   UNL     1       4.284   5.756  18.602  0.00  0.00    +0.000 A 
ATOM     10  C   UNL     1       3.107   6.009  19.320  0.00  0.00    +0.000 A 
ATOM     11  C   UNL     1       2.595   4.983  20.127  0.00  0.00    +0.000 A 
ATOM     12  C   UNL     1       3.234   3.743  20.211  0.00  0.00    +0.000 A 
ATOM     13  C   UNL     1       4.402   3.504  19.485  0.00  0.00    +0.000 A 
BRANCH   8  15
ATOM     14  C   UNL     1       7.205   5.214  18.316  0.00  0.00    +0.000 C 
ATOM     15  O   UNL     1       6.074   4.458  17.905  0.00  0.00    +0.000 OA
ENDBRANCH   8  15
BRANCH  13  16
ATOM     16  O   UNL     1       4.987   2.274  19.590  0.00  0.00    +0.000 OA
ATOM     17  H   UNL     1       5.692   2.197  18.926  0.00  0.00    +0.000 HD
ENDBRANCH  13  16
ENDBRANCH   5  10
ENDBRANCH   1   7
BRANCH   2  18
ATOM     18  C   UNL     1       0.299  10.938  21.478  0.00  0.00    +0.000 C 
BRANCH  18  19
ATOM     19  S   UNL     1       0.636  11.824  19.935  0.00  0.00    +0.000 S 
BRANCH  19  20
ATOM     20  C   UNL     1      -0.846  11.633  19.078  0.00  0.00    +0.000 A 
ATOM     21  N   UNL     1      -2.066  11.897  19.479  0.00  0.00    +0.000 NA
ATOM     22  C   UNL     1      -2.855  11.600  18.383  0.00  0.00    +0.000 A 
ATOM     23  C   UNL     1      -4.248  11.694  18.215  0.00  0.00    +0.000 A 
ATOM     24  C   UNL     1      -4.809  11.317  16.985  0.00  0.00    +0.000 A 
ATOM     25  C   UNL     1      -4.006  10.860  15.937  0.00  0.00    +0.000 A 
ATOM     26  C   UNL     1      -2.615  10.766  16.081  0.00  0.00    +0.000 A 
ATOM     27  C   UNL     1      -2.085  11.144  17.315  0.00  0.00    +0.000 A 
ATOM     28  N   UNL     1      -0.803  11.181  17.792  0.00  0.00    +0.000 N 
ATOM     29  H   UNL     1       0.036  10.917  17.299  0.00  0.00    +0.000 HD
ENDBRANCH  19  20
ENDBRANCH  18  19
ENDBRANCH   2  18
TORSDOF 7
ENDMDL
MODEL 5
REMARK VINA RESULT:      -8.0      5.720      8.279
REMARK  Name = 
REMARK  9 active torsions:
REMARK  status: ('A' for Active; 'I' for Inactive)
REMARK    1  A    between atoms: C_1  and  O_2
REMARK    2  A    between atoms: O_2  and  C_3
REMARK    3  A    between atoms: C_5  and  C_6
REMARK    4  A    between atoms: C_6  and  C_7
REMARK    5  A    between atoms: N_8  and  N_9
REMARK    6  A    between atoms: C_10  and  C_12
REMARK    7  A    between atoms: C_12  and  S_13
REMARK    8  A    between atoms: S_13  and  C_14
REMARK    9  A    between atoms: C_25  and  O_26
REMARK                            x       y       z     vdW  Elec       q    Type
REMARK                         _______ _______ _______ _____ _____    ______ ____
ROOT
ATOM      1  N   UNL     1       2.668   5.171  20.861  0.00  0.00    +0.000 N 
ATOM      2  C   UNL     1       1.986   4.050  20.396  0.00  0.00    +0.000 C 
ATOM      3  O   UNL     1       0.770   4.005  20.196  0.00  0.00    +0.000 OA
ATOM      4  H   UNL     1       3.681   5.169  20.891  0.00  0.00    +0.000 HD
ENDROOT
BRANCH   1   7
ATOM      5  C   UNL     1       1.982   7.278  20.182  0.00  0.00    +0.000 C 
ATOM      6  C   UNL     1       2.761   7.170  18.887  0.00  0.00    +0.000 C 
ATOM      7  N   UNL     1       1.980   6.329  21.077  0.00  0.00    +0.000 NA
BRANCH   5  10
ATOM      8  C   UNL     1      -0.088  10.528  19.839  0.00  0.00    +0.000 A 
ATOM      9  C   UNL     1       0.655   9.378  19.500  0.00  0.00    +0.000 A 
ATOM     10  C   UNL     1       1.172   8.522  20.482  0.00  0.00    +0.000 A 
ATOM     11  C   UNL     1       0.923   8.837  21.826  0.00  0.00    +0.000 A 
ATOM     12  C   UNL     1       0.189   9.973  22.177  0.00  0.00    +0.000 A 
ATOM     13  C   UNL     1      -0.313  10.819  21.188  0.00  0.00    +0.000 A 
BRANCH   8  15
ATOM     14  C   UNL     1      -1.565  10.699  17.957  0.00  0.00    +0.000 C 
ATOM     15  O   UNL     1      -0.507  11.235  18.740  0.00  0.00    +0.000 OA
ENDBRANCH   8  15
BRANCH  13  16
ATOM     16  O   UNL     1      -1.016  11.923  21.579  0.00  0.00    +0.000 OA
ATOM     17  H   UNL     1      -0.619  12.285  22.388  0.00  0.00    +0.000 HD
ENDBRANCH  13  16
ENDBRANCH   5  10
ENDBRANCH   1   7
BRANCH   2  18
ATOM     18  C   UNL     1       2.875   2.833  20.202  0.00  0.00    +0.000 C 
BRANCH  18  19
ATOM     19  S   UNL     1       3.313   2.588  18.461  0.00  0.00    +0.000 S 
BRANCH  19  20
ATOM     20  C   UNL     1       4.471   3.836  18.201  0.00  0.00    +0.000 A 
ATOM     21  N   UNL     1       4.486   4.761  17.272  0.00  0.00    +0.000 NA
ATOM     22  C   UNL     1       5.609   5.514  17.561  0.00  0.00    +0.000 A 
ATOM     23  C   UNL     1       6.134   6.646  16.913  0.00  0.00    +0.000 A 
ATOM     24  C   UNL     1       7.311   7.227  17.412  0.00  0.00    +0.000 A 
ATOM     25  C   UNL     1       7.953   6.701  18.535  0.00  0.00    +0.000 A 
ATOM     26  C   UNL     1       7.442   5.578  19.200  0.00  0.00    +0.000 A 
ATOM     27  C   UNL     1       6.274   5.019  18.680  0.00  0.00    +0.000 A 
ATOM     28  N   UNL     1       5.517   3.947  19.068  0.00  0.00    +0.000 N 
ATOM     29  H   UNL     1       5.690   3.332  19.848  0.00  0.00    +0.000 HD
ENDBRANCH  19  20
ENDBRANCH  18  19
ENDBRANCH   2  18
TORSDOF 7
ENDMDL
MODEL 6
REMARK VINA RESULT:      -7.9      7.290     10.391
REMARK  Name = 
REMARK  9 active torsions:
REMARK  status: ('A' for Active; 'I' for Inactive)
REMARK    1  A    between atoms: C_1  and  O_2
REMARK    2  A    between atoms: O_2  and  C_3
REMARK    3  A    between atoms: C_5  and  C_6
REMARK    4  A    between atoms: C_6  and  C_7
REMARK    5  A    between atoms: N_8  and  N_9
REMARK    6  A    between atoms: C_10  and  C_12
REMARK    7  A    between atoms: C_12  and  S_13
REMARK    8  A    between atoms: S_13  and  C_14
REMARK    9  A    between atoms: C_25  and  O_26
REMARK                            x       y       z     vdW  Elec       q    Type
REMARK                         _______ _______ _______ _____ _____    ______ ____
ROOT
ATOM      1  N   UNL     1       0.882   9.021  20.616  0.00  0.00    +0.000 N 
ATOM      2  C   UNL     1       0.964   9.776  21.782  0.00  0.00    +0.000 C 
ATOM      3  O   UNL     1       1.555   9.421  22.805  0.00  0.00    +0.000 OA
ATOM      4  H   UNL     1       0.479   9.426  19.779  0.00  0.00    +0.000 HD
ENDROOT
BRANCH   1   7
ATOM      5  C   UNL     1       2.153   7.461  19.465  0.00  0.00    +0.000 C 
ATOM      6  C   UNL     1       2.173   8.323  18.218  0.00  0.00    +0.000 C 
ATOM      7  N   UNL     1       1.528   7.820  20.552  0.00  0.00    +0.000 NA
BRANCH   5  10
ATOM      8  C   UNL     1       3.251   3.851  20.317  0.00  0.00    +0.000 A 
ATOM      9  C   UNL     1       2.545   5.071  20.344  0.00  0.00    +0.000 A 
ATOM     10  C   UNL     1       2.869   6.127  19.480  0.00  0.00    +0.000 A 
ATOM     11  C   UNL     1       3.922   5.935  18.574  0.00  0.00    +0.000 A 
ATOM     12  C   UNL     1       4.631   4.732  18.536  0.00  0.00    +0.000 A 
ATOM     13  C   UNL     1       4.301   3.693  19.407  0.00  0.00    +0.000 A 
BRANCH   8  15
ATOM     14  C   UNL     1       1.384   2.711  21.300  0.00  0.00    +0.000 C 
ATOM     15  O   UNL     1       2.785   2.945  21.236  0.00  0.00    +0.000 OA
ENDBRANCH   8  15
BRANCH  13  16
ATOM     16  O   UNL     1       5.029   2.539  19.341  0.00  0.00    +0.000 OA
ATOM     17  H   UNL     1       5.975   2.757  19.331  0.00  0.00    +0.000 HD
ENDBRANCH  13  16
ENDBRANCH   5  10
ENDBRANCH   1   7
BRANCH   2  18
ATOM     18  C   UNL     1       0.198  11.087  21.715  0.00  0.00    +0.000 C 
BRANCH  18  19
ATOM     19  S   UNL     1       0.640  12.052  20.247  0.00  0.00    +0.000 S 
BRANCH  19  20
ATOM     20  C   UNL     1      -0.584  11.588  19.128  0.00  0.00    +0.000 A 
ATOM     21  N   UNL     1      -0.504  10.744  18.128  0.00  0.00    +0.000 NA
ATOM     22  C   UNL     1      -1.783  10.721  17.601  0.00  0.00    +0.000 A 
ATOM     23  C   UNL     1      -2.305   9.992  16.517  0.00  0.00    +0.000 A 
ATOM     24  C   UNL     1      -3.656  10.159  16.177  0.00  0.00    +0.000 A 
ATOM     25  C   UNL     1      -4.478  11.028  16.899  0.00  0.00    +0.000 A 
ATOM     26  C   UNL     1      -3.980  11.758  17.986  0.00  0.00    +0.000 A 
ATOM     27  C   UNL     1      -2.632  11.575  18.299  0.00  0.00    +0.000 A 
ATOM     28  N   UNL     1      -1.834  12.111  19.273  0.00  0.00    +0.000 N 
ATOM     29  H   UNL     1      -2.103  12.782  19.977  0.00  0.00    +0.000 HD
ENDBRANCH  19  20
ENDBRANCH  18  19
ENDBRANCH   2  18
TORSDOF 7
ENDMDL
MODEL 7
REMARK VINA RESULT:      -7.9      6.050      7.177
REMARK  Name = 
REMARK  9 active torsions:
REMARK  status: ('A' for Active; 'I' for Inactive)
REMARK    1  A    between atoms: C_1  and  O_2
REMARK    2  A    between atoms: O_2  and  C_3
REMARK    3  A    between atoms: C_5  and  C_6
REMARK    4  A    between atoms: C_6  and  C_7
REMARK    5  A    between atoms: N_8  and  N_9
REMARK    6  A    between atoms: C_10  and  C_12
REMARK    7  A    between atoms: C_12  and  S_13
REMARK    8  A    between atoms: S_13  and  C_14
REMARK    9  A    between atoms: C_25  and  O_26
REMARK                            x       y       z     vdW  Elec       q    Type
REMARK                         _______ _______ _______ _____ _____    ______ ____
ROOT
ATOM      1  N   UNL     1       4.592   6.608  17.726  0.00  0.00    +0.000 N 
ATOM      2  C   UNL     1       5.218   6.490  16.489  0.00  0.00    +0.000 C 
ATOM      3  O   UNL     1       4.900   7.124  15.480  0.00  0.00    +0.000 OA
ATOM      4  H   UNL     1       4.982   6.142  18.537  0.00  0.00    +0.000 HD
ENDROOT
BRANCH   1   7
ATOM      5  C   UNL     1       2.750   7.417  18.879  0.00  0.00    +0.000 C 
ATOM      6  C   UNL     1       2.831   6.295  19.895  0.00  0.00    +0.000 C 
ATOM      7  N   UNL     1       3.582   7.513  17.879  0.00  0.00    +0.000 NA
BRANCH   5  10
ATOM      8  C   UNL     1       0.114   9.888  20.258  0.00  0.00    +0.000 A 
ATOM      9  C   UNL     1       1.121   8.902  20.211  0.00  0.00    +0.000 A 
ATOM     10  C   UNL     1       1.673   8.474  18.996  0.00  0.00    +0.000 A 
ATOM     11  C   UNL     1       1.198   9.063  17.814  0.00  0.00    +0.000 A 
ATOM     12  C   UNL     1       0.200  10.040  17.845  0.00  0.00    +0.000 A 
ATOM     13  C   UNL     1      -0.344  10.450  19.063  0.00  0.00    +0.000 A 
BRANCH   8  15
ATOM     14  C   UNL     1       0.142   9.320  22.588  0.00  0.00    +0.000 C 
ATOM     15  O   UNL     1      -0.296  10.171  21.537  0.00  0.00    +0.000 OA
ENDBRANCH   8  15
BRANCH  13  16
ATOM     16  O   UNL     1      -1.325  11.402  19.044  0.00  0.00    +0.000 OA
ATOM     17  H   UNL     1      -2.129  11.024  18.652  0.00  0.00    +0.000 HD
ENDBRANCH  13  16
ENDBRANCH   5  10
ENDBRANCH   1   7
BRANCH   2  18
ATOM     18  C   UNL     1       6.322   5.446  16.463  0.00  0.00    +0.000 C 
BRANCH  18  19
ATOM     19  S   UNL     1       5.702   3.820  15.962  0.00  0.00    +0.000 S 
BRANCH  19  20
ATOM     20  C   UNL     1       4.417   3.564  17.080  0.00  0.00    +0.000 A 
ATOM     21  N   UNL     1       3.125   3.678  16.886  0.00  0.00    +0.000 NA
ATOM     22  C   UNL     1       2.567   3.315  18.098  0.00  0.00    +0.000 A 
ATOM     23  C   UNL     1       1.218   3.238  18.489  0.00  0.00    +0.000 A 
ATOM     24  C   UNL     1       0.915   2.844  19.801  0.00  0.00    +0.000 A 
ATOM     25  C   UNL     1       1.927   2.526  20.709  0.00  0.00    +0.000 A 
ATOM     26  C   UNL     1       3.277   2.589  20.338  0.00  0.00    +0.000 A 
ATOM     27  C   UNL     1       3.549   2.988  19.029  0.00  0.00    +0.000 A 
ATOM     28  N   UNL     1       4.722   3.154  18.344  0.00  0.00    +0.000 N 
ATOM     29  H   UNL     1       5.656   3.011  18.696  0.00  0.00    +0.000 HD
ENDBRANCH  19  20
ENDBRANCH  18  19
ENDBRANCH   2  18
TORSDOF 7
ENDMDL
MODEL 8
REMARK VINA RESULT:      -7.8      5.413      8.163
REMARK  Name = 
REMARK  9 active torsions:
REMARK  status: ('A' for Active; 'I' for Inactive)
REMARK    1  A    between atoms: C_1  and  O_2
REMARK    2  A    between atoms: O_2  and  C_3
REMARK    3  A    between atoms: C_5  and  C_6
REMARK    4  A    between atoms: C_6  and  C_7
REMARK    5  A    between atoms: N_8  and  N_9
REMARK    6  A    between atoms: C_10  and  C_12
REMARK    7  A    between atoms: C_12  and  S_13
REMARK    8  A    between atoms: S_13  and  C_14
REMARK    9  A    between atoms: C_25  and  O_26
REMARK                            x       y       z     vdW  Elec       q    Type
REMARK                         _______ _______ _______ _____ _____    ______ ____
ROOT
ATOM      1  N   UNL     1       2.419   5.004  19.971  0.00  0.00    +0.000 N 
ATOM      2  C   UNL     1       2.436   3.809  20.684  0.00  0.00    +0.000 C 
ATOM      3  O   UNL     1       2.039   3.682  21.845  0.00  0.00    +0.000 OA
ATOM      4  H   UNL     1       2.653   5.008  18.985  0.00  0.00    +0.000 HD
ENDROOT
BRANCH   1   7
ATOM      5  C   UNL     1       1.898   7.263  19.922  0.00  0.00    +0.000 C 
ATOM      6  C   UNL     1       2.511   7.426  18.545  0.00  0.00    +0.000 C 
ATOM      7  N   UNL     1       1.892   6.121  20.552  0.00  0.00    +0.000 NA
BRANCH   5  10
ATOM      8  C   UNL     1       0.391  10.740  20.695  0.00  0.00    +0.000 A 
ATOM      9  C   UNL     1       0.972   9.666  19.991  0.00  0.00    +0.000 A 
ATOM     10  C   UNL     1       1.270   8.450  20.622  0.00  0.00    +0.000 A 
ATOM     11  C   UNL     1       0.967   8.325  21.985  0.00  0.00    +0.000 A 
ATOM     12  C   UNL     1       0.392   9.381  22.696  0.00  0.00    +0.000 A 
ATOM     13  C   UNL     1       0.108  10.588  22.055  0.00  0.00    +0.000 A 
BRANCH   8  15
ATOM     14  C   UNL     1       1.148  12.879  19.916  0.00  0.00    +0.000 C 
ATOM     15  O   UNL     1       0.176  11.841  19.905  0.00  0.00    +0.000 OA
ENDBRANCH   8  15
BRANCH  13  16
ATOM     16  O   UNL     1      -0.445  11.596  22.794  0.00  0.00    +0.000 OA
ATOM     17  H   UNL     1      -1.102  11.223  23.404  0.00  0.00    +0.000 HD
ENDBRANCH  13  16
ENDBRANCH   5  10
ENDBRANCH   1   7
BRANCH   2  18
ATOM     18  C   UNL     1       3.051   2.651  19.917  0.00  0.00    +0.000 C 
BRANCH  18  19
ATOM     19  S   UNL     1       3.338   3.068  18.178  0.00  0.00    +0.000 S 
BRANCH  19  20
ATOM     20  C   UNL     1       4.646   4.184  18.286  0.00  0.00    +0.000 A 
ATOM     21  N   UNL     1       5.633   4.210  19.149  0.00  0.00    +0.000 NA
ATOM     22  C   UNL     1       6.408   5.281  18.745  0.00  0.00    +0.000 A 
ATOM     23  C   UNL     1       7.603   5.792  19.284  0.00  0.00    +0.000 A 
ATOM     24  C   UNL     1       8.194   6.912  18.679  0.00  0.00    +0.000 A 
ATOM     25  C   UNL     1       7.617   7.513  17.558  0.00  0.00    +0.000 A 
ATOM     26  C   UNL     1       6.433   7.015  17.000  0.00  0.00    +0.000 A 
ATOM     27  C   UNL     1       5.865   5.904  17.624  0.00  0.00    +0.000 A 
ATOM     28  N   UNL     1       4.739   5.174  17.354  0.00  0.00    +0.000 N 
ATOM     29  H   UNL     1       4.079   5.330  16.608  0.00  0.00    +0.000 HD
ENDBRANCH  19  20
ENDBRANCH  18  19
ENDBRANCH   2  18
TORSDOF 7
ENDMDL
MODEL 9
REMARK VINA RESULT:      -7.8      6.222      8.010
REMARK  Name = 
REMARK  9 active torsions:
REMARK  status: ('A' for Active; 'I' for Inactive)
REMARK    1  A    between atoms: C_1  and  O_2
REMARK    2  A    between atoms: O_2  and  C_3
REMARK    3  A    between atoms: C_5  and  C_6
REMARK    4  A    between atoms: C_6  and  C_7
REMARK    5  A    between atoms: N_8  and  N_9
REMARK    6  A    between atoms: C_10  and  C_12
REMARK    7  A    between atoms: C_12  and  S_13
REMARK    8  A    between atoms: S_13  and  C_14
REMARK    9  A    between atoms: C_25  and  O_26
REMARK                            x       y       z     vdW  Elec       q    Type
REMARK                         _______ _______ _______ _____ _____    ______ ____
ROOT
ATOM      1  N   UNL     1       2.470   4.826  19.709  0.00  0.00    +0.000 N 
ATOM      2  C   UNL     1       1.696   3.708  20.006  0.00  0.00    +0.000 C 
ATOM      3  O   UNL     1       0.603   3.746  20.576  0.00  0.00    +0.000 OA
ATOM      4  H   UNL     1       3.301   4.728  19.137  0.00  0.00    +0.000 HD
ENDROOT
BRANCH   1   7
ATOM      5  C   UNL     1       2.286   7.094  19.266  0.00  0.00    +0.000 C 
ATOM      6  C   UNL     1       3.182   6.980  18.049  0.00  0.00    +0.000 C 
ATOM      7  N   UNL     1       1.995   6.067  20.016  0.00  0.00    +0.000 NA
BRANCH   5  10
ATOM      8  C   UNL     1       0.843  10.065  21.278  0.00  0.00    +0.000 A 
ATOM      9  C   UNL     1       1.395   8.804  20.974  0.00  0.00    +0.000 A 
ATOM     10  C   UNL     1       1.698   8.434  19.657  0.00  0.00    +0.000 A 
ATOM     11  C   UNL     1       1.442   9.362  18.637  0.00  0.00    +0.000 A 
ATOM     12  C   UNL     1       0.894  10.615  18.923  0.00  0.00    +0.000 A 
ATOM     13  C   UNL     1       0.591  10.966  20.239  0.00  0.00    +0.000 A 
BRANCH   8  15
ATOM     14  C   UNL     1      -0.709  10.080  23.108  0.00  0.00    +0.000 C 
ATOM     15  O   UNL     1       0.618  10.239  22.621  0.00  0.00    +0.000 OA
ENDBRANCH   8  15
BRANCH  13  16
ATOM     16  O   UNL     1       0.048  12.198  20.470  0.00  0.00    +0.000 OA
ATOM     17  H   UNL     1      -0.042  12.334  21.427  0.00  0.00    +0.000 HD
ENDBRANCH  13  16
ENDBRANCH   5  10
ENDBRANCH   1   7
BRANCH   2  18
ATOM     18  C   UNL     1       2.348   2.393  19.610  0.00  0.00    +0.000 C 
BRANCH  18  19
ATOM     19  S   UNL     1       4.077   2.310  20.142  0.00  0.00    +0.000 S 
BRANCH  19  20
ATOM     20  C   UNL     1       4.860   3.311  18.980  0.00  0.00    +0.000 A 
ATOM     21  N   UNL     1       5.742   4.261  19.176  0.00  0.00    +0.000 NA
ATOM     22  C   UNL     1       6.062   4.696  17.903  0.00  0.00    +0.000 A 
ATOM     23  C   UNL     1       6.960   5.694  17.483  0.00  0.00    +0.000 A 
ATOM     24  C   UNL     1       7.095   5.949  16.110  0.00  0.00    +0.000 A 
ATOM     25  C   UNL     1       6.359   5.226  15.168  0.00  0.00    +0.000 A 
ATOM     26  C   UNL     1       5.466   4.223  15.564  0.00  0.00    +0.000 A 
ATOM     27  C   UNL     1       5.348   3.993  16.935  0.00  0.00    +0.000 A 
ATOM     28  N   UNL     1       4.591   3.111  17.659  0.00  0.00    +0.000 N 
ATOM     29  H   UNL     1       3.939   2.433  17.297  0.00  0.00    +0.000 HD
ENDBRANCH  19  20
ENDBRANCH  18  19
ENDBRANCH   2  18
TORSDOF 7
ENDMDL
