MODEL 1
REMARK VINA RESULT:      -5.9      0.000      0.000
REMARK  Name = 
REMARK  10 active torsions:
REMARK  status: ('A' for Active; 'I' for Inactive)
REMARK    1  A    between atoms: P_2  and  N_3
REMARK    2  A    between atoms: N_3  and  C_4
REMARK    3  A    between atoms: N_3  and  C_7
REMARK    4  A    between atoms: C_4  and  C_5
REMARK    5  A    between atoms: C_7  and  C_8
REMARK    6  A    between atoms: C_11  and  S_12
REMARK    7  A    between atoms: S_12  and  C_13
REMARK    8  A    between atoms: C_13  and  C_14
REMARK    9  A    between atoms: C_14  and  S_15
REMARK   10  A    between atoms: S_15  and  O_18
REMARK                            x       y       z     vdW  Elec       q    Type
REMARK                         _______ _______ _______ _____ _____    ______ ____
ROOT
ATOM      1  O   UNL     1       5.587   5.455  19.825  0.00  0.00    +0.000 OA
ATOM      2  P   UNL     1       5.237   5.540  18.379  0.00  0.00    +0.000 P 
ATOM      3  N   UNL     1       4.451   4.173  18.054  0.00  0.00    +0.000 NA
ATOM      4  C   UNL     1       3.046   4.079  18.319  0.00  0.00    +0.000 C 
ATOM      5  C   UNL     1       2.343   5.253  17.640  0.00  0.00    +0.000 C 
ATOM      6  C   UNL     1       2.840   6.571  18.241  0.00  0.00    +0.000 C 
ATOM      7  O   UNL     1       4.230   6.741  18.037  0.00  0.00    +0.000 OA
ATOM      8  H   UNL     1       4.911   3.579  18.730  0.00  0.00    +0.000 HD
ENDROOT
BRANCH   2   9
ATOM      9  N   UNL     1       6.410   5.520  17.204  0.00  0.00    +0.000 NA
BRANCH   9  10
ATOM     10  C   UNL     1       5.952   5.603  15.797  0.00  0.00    +0.000 C 
BRANCH  10  11
ATOM     11  C   UNL     1       6.786   4.832  14.756  0.00  0.00    +0.000 C 
ATOM     12 CL   UNL     1       5.748   3.898  13.650  0.00  0.00    +0.000 Cl
ENDBRANCH  10  11
ENDBRANCH   9  10
BRANCH   9  13
ATOM     13  C   UNL     1       7.597   6.384  17.452  0.00  0.00    +0.000 C 
BRANCH  13  14
ATOM     14  C   UNL     1       7.377   7.887  17.314  0.00  0.00    +0.000 C 
ATOM     15 CL   UNL     1       8.483   8.815  18.358  0.00  0.00    +0.000 Cl
ENDBRANCH  13  14
ENDBRANCH   9  13
ENDBRANCH   2   9
BRANCH   4  16
ATOM     16  S   UNL     1       2.574   2.440  17.649  0.00  0.00    +0.000 S 
BRANCH  16  17
ATOM     17  C   UNL     1       1.846   1.719  19.178  0.00  0.00    +0.000 C 
BRANCH  17  18
ATOM     18  C   UNL     1       1.128   2.746  20.016  0.00  0.00    +0.000 C 
BRANCH  18  19
ATOM     19  S   UNL     1       2.157   3.104  21.436  0.00  0.00    +0.000 S 
ATOM     20  O   UNL     1       3.330   2.264  21.399  0.00  0.00    +0.000 OA
ATOM     21  O   UNL     1       2.227   4.537  21.618  0.00  0.00    +0.000 OA
BRANCH  19  22
ATOM     22  O   UNL     1       1.196   2.479  22.564  0.00  0.00    +0.000 OA
ATOM     23  H   UNL     1       1.753   1.944  23.168  0.00  0.00    +0.000 HD
ENDBRANCH  19  22
ENDBRANCH  18  19
ENDBRANCH  17  18
ENDBRANCH  16  17
ENDBRANCH   4  16
TORSDOF 10
ENDMDL
MODEL 2
REMARK VINA RESULT:      -5.8      0.616      2.884
REMARK  Name = 
REMARK  10 active torsions:
REMARK  status: ('A' for Active; 'I' for Inactive)
REMARK    1  A    between atoms: P_2  and  N_3
REMARK    2  A    between atoms: N_3  and  C_4
REMARK    3  A    between atoms: N_3  and  C_7
REMARK    4  A    between atoms: C_4  and  C_5
REMARK    5  A    between atoms: C_7  and  C_8
REMARK    6  A    between atoms: C_11  and  S_12
REMARK    7  A    between atoms: S_12  and  C_13
REMARK    8  A    between atoms: C_13  and  C_14
REMARK    9  A    between atoms: C_14  and  S_15
REMARK   10  A    between atoms: S_15  and  O_18
REMARK                            x       y       z     vdW  Elec       q    Type
REMARK                         _______ _______ _______ _____ _____    ______ ____
ROOT
ATOM      1  O   UNL     1       5.615   5.776  19.202  0.00  0.00    +0.000 OA
ATOM      2  P   UNL     1       4.924   5.932  17.891  0.00  0.00    +0.000 P 
ATOM      3  N   UNL     1       4.188   4.524  17.632  0.00  0.00    +0.000 NA
ATOM      4  C   UNL     1       2.898   4.278  18.207  0.00  0.00    +0.000 C 
ATOM      5  C   UNL     1       1.967   5.426  17.821  0.00  0.00    +0.000 C 
ATOM      6  C   UNL     1       2.494   6.739  18.409  0.00  0.00    +0.000 C 
ATOM      7  O   UNL     1       3.777   7.054  17.904  0.00  0.00    +0.000 OA
ATOM      8  H   UNL     1       4.840   3.929  18.126  0.00  0.00    +0.000 HD
ENDROOT
BRANCH   2   9
ATOM      9  N   UNL     1       5.779   6.108  16.479  0.00  0.00    +0.000 NA
BRANCH   9  10
ATOM     10  C   UNL     1       7.234   6.364  16.602  0.00  0.00    +0.000 C 
BRANCH  10  11
ATOM     11  C   UNL     1       7.644   7.715  17.220  0.00  0.00    +0.000 C 
ATOM     12 CL   UNL     1       8.437   7.495  18.800  0.00  0.00    +0.000 Cl
ENDBRANCH  10  11
ENDBRANCH   9  10
BRANCH   9  13
ATOM     13  C   UNL     1       5.481   5.118  15.408  0.00  0.00    +0.000 C 
BRANCH  13  14
ATOM     14  C   UNL     1       6.685   4.448  14.753  0.00  0.00    +0.000 C 
ATOM     15 CL   UNL     1       6.261   3.713  13.187  0.00  0.00    +0.000 Cl
ENDBRANCH  13  14
ENDBRANCH   9  13
ENDBRANCH   2   9
BRANCH   4  16
ATOM     16  S   UNL     1       2.404   2.654  17.517  0.00  0.00    +0.000 S 
BRANCH  16  17
ATOM     17  C   UNL     1       1.871   1.842  19.081  0.00  0.00    +0.000 C 
BRANCH  17  18
ATOM     18  C   UNL     1       1.005   2.738  19.930  0.00  0.00    +0.000 C 
BRANCH  18  19
ATOM     19  S   UNL     1       1.894   3.075  21.447  0.00  0.00    +0.000 S 
ATOM     20  O   UNL     1       2.170   4.489  21.534  0.00  0.00    +0.000 OA
ATOM     21  O   UNL     1       1.284   2.331  22.526  0.00  0.00    +0.000 OA
BRANCH  19  22
ATOM     22  O   UNL     1       3.283   2.373  21.045  0.00  0.00    +0.000 OA
ATOM     23  H   UNL     1       3.484   2.618  20.117  0.00  0.00    +0.000 HD
ENDBRANCH  19  22
ENDBRANCH  18  19
ENDBRANCH  17  18
ENDBRANCH  16  17
ENDBRANCH   4  16
TORSDOF 10
ENDMDL
MODEL 3
REMARK VINA RESULT:      -5.7      1.730      3.280
REMARK  Name = 
REMARK  10 active torsions:
REMARK  status: ('A' for Active; 'I' for Inactive)
REMARK    1  A    between atoms: P_2  and  N_3
REMARK    2  A    between atoms: N_3  and  C_4
REMARK    3  A    between atoms: N_3  and  C_7
REMARK    4  A    between atoms: C_4  and  C_5
REMARK    5  A    between atoms: C_7  and  C_8
REMARK    6  A    between atoms: C_11  and  S_12
REMARK    7  A    between atoms: S_12  and  C_13
REMARK    8  A    between atoms: C_13  and  C_14
REMARK    9  A    between atoms: C_14  and  S_15
REMARK   10  A    between atoms: S_15  and  O_18
REMARK                            x       y       z     vdW  Elec       q    Type
REMARK                         _______ _______ _______ _____ _____    ______ ____
ROOT
ATOM      1  O   UNL     1       5.536   5.835  19.194  0.00  0.00    +0.000 OA
ATOM      2  P   UNL     1       4.800   5.963  17.905  0.00  0.00    +0.000 P 
ATOM      3  N   UNL     1       3.794   4.706  17.867  0.00  0.00    +0.000 NA
ATOM      4  C   UNL     1       2.523   4.791  18.524  0.00  0.00    +0.000 C 
ATOM      5  C   UNL     1       1.802   6.044  18.030  0.00  0.00    +0.000 C 
ATOM      6  C   UNL     1       2.607   7.289  18.416  0.00  0.00    +0.000 C 
ATOM      7  O   UNL     1       3.890   7.281  17.819  0.00  0.00    +0.000 OA
ATOM      8  H   UNL     1       4.353   4.059  18.406  0.00  0.00    +0.000 HD
ENDROOT
BRANCH   2   9
ATOM      9  N   UNL     1       5.575   5.794  16.447  0.00  0.00    +0.000 NA
BRANCH   9  10
ATOM     10  C   UNL     1       7.030   6.074  16.423  0.00  0.00    +0.000 C 
BRANCH  10  11
ATOM     11  C   UNL     1       7.638   6.662  17.710  0.00  0.00    +0.000 C 
ATOM     12 CL   UNL     1       7.820   8.431  17.597  0.00  0.00    +0.000 Cl
ENDBRANCH  10  11
ENDBRANCH   9  10
BRANCH   9  13
ATOM     13  C   UNL     1       5.232   4.576  15.663  0.00  0.00    +0.000 C 
BRANCH  13  14
ATOM     14  C   UNL     1       6.367   3.950  14.859  0.00  0.00    +0.000 C 
ATOM     15 CL   UNL     1       5.890   3.641  13.170  0.00  0.00    +0.000 Cl
ENDBRANCH  13  14
ENDBRANCH   9  13
ENDBRANCH   2   9
BRANCH   4  16
ATOM     16  S   UNL     1       1.684   3.224  18.077  0.00  0.00    +0.000 S 
BRANCH  16  17
ATOM     17  C   UNL     1       1.893   2.336  19.675  0.00  0.00    +0.000 C 
BRANCH  17  18
ATOM     18  C   UNL     1       3.055   2.861  20.481  0.00  0.00    +0.000 C 
BRANCH  18  19
ATOM     19  S   UNL     1       4.484   1.856  20.095  0.00  0.00    +0.000 S 
ATOM     20  O   UNL     1       5.124   1.447  21.322  0.00  0.00    +0.000 OA
ATOM     21  O   UNL     1       4.135   0.923  19.047  0.00  0.00    +0.000 OA
BRANCH  19  22
ATOM     22  O   UNL     1       5.407   3.018  19.477  0.00  0.00    +0.000 OA
ATOM     23  H   UNL     1       4.845   3.563  18.885  0.00  0.00    +0.000 HD
ENDBRANCH  19  22
ENDBRANCH  18  19
ENDBRANCH  17  18
ENDBRANCH  16  17
ENDBRANCH   4  16
TORSDOF 10
ENDMDL
MODEL 4
REMARK VINA RESULT:      -5.7      4.215      6.565
REMARK  Name = 
REMARK  10 active torsions:
REMARK  status: ('A' for Active; 'I' for Inactive)
REMARK    1  A    between atoms: P_2  and  N_3
REMARK    2  A    between atoms: N_3  and  C_4
REMARK    3  A    between atoms: N_3  and  C_7
REMARK    4  A    between atoms: C_4  and  C_5
REMARK    5  A    between atoms: C_7  and  C_8
REMARK    6  A    between atoms: C_11  and  S_12
REMARK    7  A    between atoms: S_12  and  C_13
REMARK    8  A    between atoms: C_13  and  C_14
REMARK    9  A    between atoms: C_14  and  S_15
REMARK   10  A    between atoms: S_15  and  O_18
REMARK                            x       y       z     vdW  Elec       q    Type
REMARK                         _______ _______ _______ _____ _____    ______ ____
ROOT
ATOM      1  O   UNL     1       1.992   4.958  21.039  0.00  0.00    +0.000 OA
ATOM      2  P   UNL     1       2.354   5.858  19.908  0.00  0.00    +0.000 P 
ATOM      3  N   UNL     1       3.960   5.795  19.816  0.00  0.00    +0.000 NA
ATOM      4  C   UNL     1       4.591   4.735  19.087  0.00  0.00    +0.000 C 
ATOM      5  C   UNL     1       3.992   4.686  17.683  0.00  0.00    +0.000 C 
ATOM      6  C   UNL     1       2.498   4.362  17.770  0.00  0.00    +0.000 C 
ATOM      7  O   UNL     1       1.794   5.356  18.490  0.00  0.00    +0.000 OA
ATOM      8  H   UNL     1       4.152   5.625  20.794  0.00  0.00    +0.000 HD
ENDROOT
BRANCH   2   9
ATOM      9  N   UNL     1       2.104   7.496  19.992  0.00  0.00    +0.000 NA
BRANCH   9  10
ATOM     10  C   UNL     1       2.111   8.244  18.712  0.00  0.00    +0.000 C 
BRANCH  10  11
ATOM     11  C   UNL     1       1.160   9.454  18.618  0.00  0.00    +0.000 C 
ATOM     12 CL   UNL     1       2.019  10.918  18.077  0.00  0.00    +0.000 Cl
ENDBRANCH  10  11
ENDBRANCH   9  10
BRANCH   9  13
ATOM     13  C   UNL     1       1.002   7.943  20.888  0.00  0.00    +0.000 C 
BRANCH  13  14
ATOM     14  C   UNL     1       1.400   8.856  22.043  0.00  0.00    +0.000 C 
ATOM     15 CL   UNL     1      -0.020   9.625  22.797  0.00  0.00    +0.000 Cl
ENDBRANCH  13  14
ENDBRANCH   9  13
ENDBRANCH   2   9
BRANCH   4  16
ATOM     16  S   UNL     1       6.372   5.167  19.123  0.00  0.00    +0.000 S 
BRANCH  16  17
ATOM     17  C   UNL     1       6.558   5.708  17.374  0.00  0.00    +0.000 C 
BRANCH  17  18
ATOM     18  C   UNL     1       7.219   4.661  16.512  0.00  0.00    +0.000 C 
BRANCH  18  19
ATOM     19  S   UNL     1       6.775   4.996  14.811  0.00  0.00    +0.000 S 
ATOM     20  O   UNL     1       5.549   5.757  14.780  0.00  0.00    +0.000 OA
ATOM     21  O   UNL     1       7.960   5.393  14.084  0.00  0.00    +0.000 OA
BRANCH  19  22
ATOM     22  O   UNL     1       6.379   3.496  14.391  0.00  0.00    +0.000 OA
ATOM     23  H   UNL     1       6.815   2.884  15.021  0.00  0.00    +0.000 HD
ENDBRANCH  19  22
ENDBRANCH  18  19
ENDBRANCH  17  18
ENDBRANCH  16  17
ENDBRANCH   4  16
TORSDOF 10
ENDMDL
MODEL 5
REMARK VINA RESULT:      -5.7      3.705      5.862
REMARK  Name = 
REMARK  10 active torsions:
REMARK  status: ('A' for Active; 'I' for Inactive)
REMARK    1  A    between atoms: P_2  and  N_3
REMARK    2  A    between atoms: N_3  and  C_4
REMARK    3  A    between atoms: N_3  and  C_7
REMARK    4  A    between atoms: C_4  and  C_5
REMARK    5  A    between atoms: C_7  and  C_8
REMARK    6  A    between atoms: C_11  and  S_12
REMARK    7  A    between atoms: S_12  and  C_13
REMARK    8  A    between atoms: C_13  and  C_14
REMARK    9  A    between atoms: C_14  and  S_15
REMARK   10  A    between atoms: S_15  and  O_18
REMARK                            x       y       z     vdW  Elec       q    Type
REMARK                         _______ _______ _______ _____ _____    ______ ____
ROOT
ATOM      1  O   UNL     1       2.482   3.831  21.993  0.00  0.00    +0.000 OA
ATOM      2  P   UNL     1       2.109   4.525  20.728  0.00  0.00    +0.000 P 
ATOM      3  N   UNL     1       3.173   4.009  19.635  0.00  0.00    +0.000 NA
ATOM      4  C   UNL     1       2.943   2.773  18.946  0.00  0.00    +0.000 C 
ATOM      5  C   UNL     1       1.547   2.812  18.329  0.00  0.00    +0.000 C 
ATOM      6  C   UNL     1       0.495   2.926  19.437  0.00  0.00    +0.000 C 
ATOM      7  O   UNL     1       0.657   4.119  20.182  0.00  0.00    +0.000 OA
ATOM      8  H   UNL     1       3.953   3.849  20.259  0.00  0.00    +0.000 HD
ENDROOT
BRANCH   2   9
ATOM      9  N   UNL     1       2.262   6.170  20.568  0.00  0.00    +0.000 NA
BRANCH   9  10
ATOM     10  C   UNL     1       3.042   6.662  19.408  0.00  0.00    +0.000 C 
BRANCH  10  11
ATOM     11  C   UNL     1       2.241   7.004  18.137  0.00  0.00    +0.000 C 
ATOM     12 CL   UNL     1       2.244   8.757  17.815  0.00  0.00    +0.000 Cl
ENDBRANCH  10  11
ENDBRANCH   9  10
BRANCH   9  13
ATOM     13  C   UNL     1       1.020   6.964  20.777  0.00  0.00    +0.000 C 
BRANCH  13  14
ATOM     14  C   UNL     1       1.196   8.330  21.433  0.00  0.00    +0.000 C 
ATOM     15 CL   UNL     1      -0.322   8.914  22.161  0.00  0.00    +0.000 Cl
ENDBRANCH  13  14
ENDBRANCH   9  13
ENDBRANCH   2   9
BRANCH   4  16
ATOM     16  S   UNL     1       4.300   2.689  17.716  0.00  0.00    +0.000 S 
BRANCH  16  17
ATOM     17  C   UNL     1       5.177   4.242  18.169  0.00  0.00    +0.000 C 
BRANCH  17  18
ATOM     18  C   UNL     1       5.368   5.163  16.990  0.00  0.00    +0.000 C 
BRANCH  18  19
ATOM     19  S   UNL     1       7.119   5.223  16.624  0.00  0.00    +0.000 S 
ATOM     20  O   UNL     1       7.380   4.469  15.421  0.00  0.00    +0.000 OA
ATOM     21  O   UNL     1       7.595   6.574  16.818  0.00  0.00    +0.000 OA
BRANCH  19  22
ATOM     22  O   UNL     1       7.627   4.307  17.844  0.00  0.00    +0.000 OA
ATOM     23  H   UNL     1       6.869   4.168  18.450  0.00  0.00    +0.000 HD
ENDBRANCH  19  22
ENDBRANCH  18  19
ENDBRANCH  17  18
ENDBRANCH  16  17
ENDBRANCH   4  16
TORSDOF 10
ENDMDL
MODEL 6
REMARK VINA RESULT:      -5.6      3.363      5.324
REMARK  Name = 
REMARK  10 active torsions:
REMARK  status: ('A' for Active; 'I' for Inactive)
REMARK    1  A    between atoms: P_2  and  N_3
REMARK    2  A    between atoms: N_3  and  C_4
REMARK    3  A    between atoms: N_3  and  C_7
REMARK    4  A    between atoms: C_4  and  C_5
REMARK    5  A    between atoms: C_7  and  C_8
REMARK    6  A    between atoms: C_11  and  S_12
REMARK    7  A    between atoms: S_12  and  C_13
REMARK    8  A    between atoms: C_13  and  C_14
REMARK    9  A    between atoms: C_14  and  S_15
REMARK   10  A    between atoms: S_15  and  O_18
REMARK                            x       y       z     vdW  Elec       q    Type
REMARK                         _______ _______ _______ _____ _____    ______ ____
ROOT
ATOM      1  O   UNL     1       1.641   3.884  17.253  0.00  0.00    +0.000 OA
ATOM      2  P   UNL     1       2.699   3.938  18.301  0.00  0.00    +0.000 P 
ATOM      3  N   UNL     1       2.314   5.201  19.223  0.00  0.00    +0.000 NA
ATOM      4  C   UNL     1       1.364   5.044  20.285  0.00  0.00    +0.000 C 
ATOM      5  C   UNL     1       1.807   3.878  21.166  0.00  0.00    +0.000 C 
ATOM      6  C   UNL     1       1.804   2.583  20.348  0.00  0.00    +0.000 C 
ATOM      7  O   UNL     1       2.709   2.654  19.263  0.00  0.00    +0.000 OA
ATOM      8  H   UNL     1       1.863   5.763  18.515  0.00  0.00    +0.000 HD
ENDROOT
BRANCH   2   9
ATOM      9  N   UNL     1       4.275   4.291  17.920  0.00  0.00    +0.000 NA
BRANCH   9  10
ATOM     10  C   UNL     1       5.280   4.125  18.997  0.00  0.00    +0.000 C 
BRANCH  10  11
ATOM     11  C   UNL     1       6.239   5.308  19.231  0.00  0.00    +0.000 C 
ATOM     12 CL   UNL     1       7.721   5.150  18.255  0.00  0.00    +0.000 Cl
ENDBRANCH  10  11
ENDBRANCH   9  10
BRANCH   9  13
ATOM     13  C   UNL     1       4.767   3.761  16.618  0.00  0.00    +0.000 C 
BRANCH  13  14
ATOM     14  C   UNL     1       5.312   4.791  15.634  0.00  0.00    +0.000 C 
ATOM     15 CL   UNL     1       4.889   6.453  16.114  0.00  0.00    +0.000 Cl
ENDBRANCH  13  14
ENDBRANCH   9  13
ENDBRANCH   2   9
BRANCH   4  16
ATOM     16  S   UNL     1       1.376   6.667  21.137  0.00  0.00    +0.000 S 
BRANCH  16  17
ATOM     17  C   UNL     1       1.965   7.707  19.738  0.00  0.00    +0.000 C 
BRANCH  17  18
ATOM     18  C   UNL     1       1.380   9.097  19.764  0.00  0.00    +0.000 C 
BRANCH  18  19
ATOM     19  S   UNL     1       1.197   9.644  18.070  0.00  0.00    +0.000 S 
ATOM     20  O   UNL     1       2.123   8.919  17.233  0.00  0.00    +0.000 OA
ATOM     21  O   UNL     1      -0.210   9.758  17.761  0.00  0.00    +0.000 OA
BRANCH  19  22
ATOM     22  O   UNL     1       1.817  11.116  18.249  0.00  0.00    +0.000 OA
ATOM     23  H   UNL     1       1.090  11.715  18.523  0.00  0.00    +0.000 HD
ENDBRANCH  19  22
ENDBRANCH  18  19
ENDBRANCH  17  18
ENDBRANCH  16  17
ENDBRANCH   4  16
TORSDOF 10
ENDMDL
MODEL 7
REMARK VINA RESULT:      -5.5      3.526      5.679
REMARK  Name = 
REMARK  10 active torsions:
REMARK  status: ('A' for Active; 'I' for Inactive)
REMARK    1  A    between atoms: P_2  and  N_3
REMARK    2  A    between atoms: N_3  and  C_4
REMARK    3  A    between atoms: N_3  and  C_7
REMARK    4  A    between atoms: C_4  and  C_5
REMARK    5  A    between atoms: C_7  and  C_8
REMARK    6  A    between atoms: C_11  and  S_12
REMARK    7  A    between atoms: S_12  and  C_13
REMARK    8  A    between atoms: C_13  and  C_14
REMARK    9  A    between atoms: C_14  and  S_15
REMARK   10  A    between atoms: S_15  and  O_18
REMARK                            x       y       z     vdW  Elec       q    Type
REMARK                         _______ _______ _______ _____ _____    ______ ____
ROOT
ATOM      1  O   UNL     1       2.926   4.352  21.348  0.00  0.00    +0.000 OA
ATOM      2  P   UNL     1       2.319   4.963  20.132  0.00  0.00    +0.000 P 
ATOM      3  N   UNL     1       3.399   4.732  18.961  0.00  0.00    +0.000 NA
ATOM      4  C   UNL     1       3.420   3.491  18.245  0.00  0.00    +0.000 C 
ATOM      5  C   UNL     1       2.016   3.211  17.714  0.00  0.00    +0.000 C 
ATOM      6  C   UNL     1       1.042   3.054  18.886  0.00  0.00    +0.000 C 
ATOM      7  O   UNL     1       0.969   4.236  19.660  0.00  0.00    +0.000 OA
ATOM      8  H   UNL     1       4.234   4.749  19.531  0.00  0.00    +0.000 HD
ENDROOT
BRANCH   2   9
ATOM      9  N   UNL     1       2.072   6.600  20.019  0.00  0.00    +0.000 NA
BRANCH   9  10
ATOM     10  C   UNL     1       1.791   7.146  18.669  0.00  0.00    +0.000 C 
BRANCH  10  11
ATOM     11  C   UNL     1       2.774   8.208  18.140  0.00  0.00    +0.000 C 
ATOM     12 CL   UNL     1       1.936   9.729  17.738  0.00  0.00    +0.000 Cl
ENDBRANCH  10  11
ENDBRANCH   9  10
BRANCH   9  13
ATOM     13  C   UNL     1       1.184   7.199  21.053  0.00  0.00    +0.000 C 
BRANCH  13  14
ATOM     14  C   UNL     1       1.217   8.720  21.171  0.00  0.00    +0.000 C 
ATOM     15 CL   UNL     1       0.569   9.275  22.735  0.00  0.00    +0.000 Cl
ENDBRANCH  13  14
ENDBRANCH   9  13
ENDBRANCH   2   9
BRANCH   4  16
ATOM     16  S   UNL     1       4.674   3.752  16.934  0.00  0.00    +0.000 S 
BRANCH  16  17
ATOM     17  C   UNL     1       4.988   5.545  17.209  0.00  0.00    +0.000 C 
BRANCH  17  18
ATOM     18  C   UNL     1       6.444   5.907  17.054  0.00  0.00    +0.000 C 
BRANCH  18  19
ATOM     19  S   UNL     1       7.251   5.598  18.621  0.00  0.00    +0.000 S 
ATOM     20  O   UNL     1       8.254   6.610  18.849  0.00  0.00    +0.000 OA
ATOM     21  O   UNL     1       6.251   5.254  19.607  0.00  0.00    +0.000 OA
BRANCH  19  22
ATOM     22  O   UNL     1       8.048   4.268  18.197  0.00  0.00    +0.000 OA
ATOM     23  H   UNL     1       7.962   4.165  17.226  0.00  0.00    +0.000 HD
ENDBRANCH  19  22
ENDBRANCH  18  19
ENDBRANCH  17  18
ENDBRANCH  16  17
ENDBRANCH   4  16
TORSDOF 10
ENDMDL
MODEL 8
REMARK VINA RESULT:      -5.5      3.781      6.348
REMARK  Name = 
REMARK  10 active torsions:
REMARK  status: ('A' for Active; 'I' for Inactive)
REMARK    1  A    between atoms: P_2  and  N_3
REMARK    2  A    between atoms: N_3  and  C_4
REMARK    3  A    between atoms: N_3  and  C_7
REMARK    4  A    between atoms: C_4  and  C_5
REMARK    5  A    between atoms: C_7  and  C_8
REMARK    6  A    between atoms: C_11  and  S_12
REMARK    7  A    between atoms: S_12  and  C_13
REMARK    8  A    between atoms: C_13  and  C_14
REMARK    9  A    between atoms: C_14  and  S_15
REMARK   10  A    between atoms: S_15  and  O_18
REMARK                            x       y       z     vdW  Elec       q    Type
REMARK                         _______ _______ _______ _____ _____    ______ ____
ROOT
ATOM      1  O   UNL     1       2.322   4.204  21.629  0.00  0.00    +0.000 OA
ATOM      2  P   UNL     1       1.976   4.789  20.303  0.00  0.00    +0.000 P 
ATOM      3  N   UNL     1       3.318   4.663  19.423  0.00  0.00    +0.000 NA
ATOM      4  C   UNL     1       3.604   3.439  18.733  0.00  0.00    +0.000 C 
ATOM      5  C   UNL     1       2.392   3.064  17.882  0.00  0.00    +0.000 C 
ATOM      6  C   UNL     1       1.183   2.813  18.789  0.00  0.00    +0.000 C 
ATOM      7  O   UNL     1       0.837   3.972  19.523  0.00  0.00    +0.000 OA
ATOM      8  H   UNL     1       3.989   4.732  20.175  0.00  0.00    +0.000 HD
ENDROOT
BRANCH   2   9
ATOM      9  N   UNL     1       1.636   6.405  20.134  0.00  0.00    +0.000 NA
BRANCH   9  10
ATOM     10  C   UNL     1       1.128   7.114  21.332  0.00  0.00    +0.000 C 
BRANCH  10  11
ATOM     11  C   UNL     1       1.221   8.652  21.312  0.00  0.00    +0.000 C 
ATOM     12 CL   UNL     1       0.261   9.381  22.623  0.00  0.00    +0.000 Cl
ENDBRANCH  10  11
ENDBRANCH   9  10
BRANCH   9  13
ATOM     13  C   UNL     1       2.650   7.212  19.402  0.00  0.00    +0.000 C 
BRANCH  13  14
ATOM     14  C   UNL     1       2.302   7.592  17.966  0.00  0.00    +0.000 C 
ATOM     15 CL   UNL     1       1.935   9.329  17.812  0.00  0.00    +0.000 Cl
ENDBRANCH  13  14
ENDBRANCH   9  13
ENDBRANCH   2   9
BRANCH   4  16
ATOM     16  S   UNL     1       5.110   3.819  17.759  0.00  0.00    +0.000 S 
BRANCH  16  17
ATOM     17  C   UNL     1       5.697   5.276  18.717  0.00  0.00    +0.000 C 
BRANCH  17  18
ATOM     18  C   UNL     1       7.099   5.686  18.344  0.00  0.00    +0.000 C 
BRANCH  18  19
ATOM     19  S   UNL     1       6.984   6.845  16.984  0.00  0.00    +0.000 S 
ATOM     20  O   UNL     1       5.596   7.026  16.629  0.00  0.00    +0.000 OA
ATOM     21  O   UNL     1       7.877   7.954  17.233  0.00  0.00    +0.000 OA
BRANCH  19  22
ATOM     22  O   UNL     1       7.617   5.905  15.844  0.00  0.00    +0.000 OA
ATOM     23  H   UNL     1       6.880   5.430  15.405  0.00  0.00    +0.000 HD
ENDBRANCH  19  22
ENDBRANCH  18  19
ENDBRANCH  17  18
ENDBRANCH  16  17
ENDBRANCH   4  16
TORSDOF 10
ENDMDL
MODEL 9
REMARK VINA RESULT:      -5.5      3.440      5.650
REMARK  Name = 
REMARK  10 active torsions:
REMARK  status: ('A' for Active; 'I' for Inactive)
REMARK    1  A    between atoms: P_2  and  N_3
REMARK    2  A    between atoms: N_3  and  C_4
REMARK    3  A    between atoms: N_3  and  C_7
REMARK    4  A    between atoms: C_4  and  C_5
REMARK    5  A    between atoms: C_7  and  C_8
REMARK    6  A    between atoms: C_11  and  S_12
REMARK    7  A    between atoms: S_12  and  C_13
REMARK    8  A    between atoms: C_13  and  C_14
REMARK    9  A    between atoms: C_14  and  S_15
REMARK   10  A    between atoms: S_15  and  O_18
REMARK                            x       y       z     vdW  Elec       q    Type
REMARK                         _______ _______ _______ _____ _____    ______ ____
ROOT
ATOM      1  O   UNL     1       1.916   3.318  22.110  0.00  0.00    +0.000 OA
ATOM      2  P   UNL     1       1.903   4.058  20.816  0.00  0.00    +0.000 P 
ATOM      3  N   UNL     1       3.106   3.422  19.955  0.00  0.00    +0.000 NA
ATOM      4  C   UNL     1       2.884   2.226  19.196  0.00  0.00    +0.000 C 
ATOM      5  C   UNL     1       1.665   2.436  18.302  0.00  0.00    +0.000 C 
ATOM      6  C   UNL     1       0.423   2.672  19.168  0.00  0.00    +0.000 C 
ATOM      7  O   UNL     1       0.562   3.832  19.966  0.00  0.00    +0.000 OA
ATOM      8  H   UNL     1       3.712   3.167  20.723  0.00  0.00    +0.000 HD
ENDROOT
BRANCH   2   9
ATOM      9  N   UNL     1       2.278   5.673  20.741  0.00  0.00    +0.000 NA
BRANCH   9  10
ATOM     10  C   UNL     1       3.200   6.100  19.662  0.00  0.00    +0.000 C 
BRANCH  10  11
ATOM     11  C   UNL     1       2.551   6.518  18.328  0.00  0.00    +0.000 C 
ATOM     12 CL   UNL     1       3.654   7.519  17.351  0.00  0.00    +0.000 Cl
ENDBRANCH  10  11
ENDBRANCH   9  10
BRANCH   9  13
ATOM     13  C   UNL     1       1.136   6.616  20.897  0.00  0.00    +0.000 C 
BRANCH  13  14
ATOM     14  C   UNL     1       1.491   8.046  21.289  0.00  0.00    +0.000 C 
ATOM     15 CL   UNL     1       0.870   9.228  20.109  0.00  0.00    +0.000 Cl
ENDBRANCH  13  14
ENDBRANCH   9  13
ENDBRANCH   2   9
BRANCH   4  16
ATOM     16  S   UNL     1       4.451   1.985  18.276  0.00  0.00    +0.000 S 
BRANCH  16  17
ATOM     17  C   UNL     1       4.450   3.556  17.317  0.00  0.00    +0.000 C 
BRANCH  17  18
ATOM     18  C   UNL     1       5.589   4.467  17.699  0.00  0.00    +0.000 C 
BRANCH  18  19
ATOM     19  S   UNL     1       6.670   4.612  16.281  0.00  0.00    +0.000 S 
ATOM     20  O   UNL     1       6.327   3.597  15.313  0.00  0.00    +0.000 OA
ATOM     21  O   UNL     1       6.806   6.009  15.933  0.00  0.00    +0.000 OA
BRANCH  19  22
ATOM     22  O   UNL     1       8.025   4.114  16.988  0.00  0.00    +0.000 OA
ATOM     23  H   UNL     1       8.361   3.344  16.482  0.00  0.00    +0.000 HD
ENDBRANCH  19  22
ENDBRANCH  18  19
ENDBRANCH  17  18
ENDBRANCH  16  17
ENDBRANCH   4  16
TORSDOF 10
ENDMDL
