MODEL 1
REMARK VINA RESULT:      -6.5      0.000      0.000
REMARK  Name = 
REMARK  5 active torsions:
REMARK  status: ('A' for Active; 'I' for Inactive)
REMARK    1  A    between atoms: C_2  and  C_3
REMARK    2  A    between atoms: C_3  and  N_4
REMARK    3  A    between atoms: N_4  and  C_5
REMARK    4  A    between atoms: N_4  and  C_6
REMARK    5  A    between atoms: C_13  and  O_14
REMARK                            x       y       z     vdW  Elec       q    Type
REMARK                         _______ _______ _______ _____ _____    ______ ____
ROOT
ATOM      1  C   UNL     1       4.751   5.296  18.389  0.00  0.00    +0.000 C 
ATOM      2  C   UNL     1       3.909   6.559  18.052  0.00  0.00    +0.000 C 
ATOM      3  C   UNL     1       2.449   6.141  17.860  0.00  0.00    +0.000 C 
ATOM      4  C   UNL     1       2.431   4.707  18.281  0.00  0.00    +0.000 A 
ATOM      5  C   UNL     1       1.353   3.837  18.245  0.00  0.00    +0.000 A 
ATOM      6  C   UNL     1       1.566   2.488  18.558  0.00  0.00    +0.000 A 
ATOM      7  C   UNL     1       2.838   2.032  18.936  0.00  0.00    +0.000 A 
ATOM      8  C   UNL     1       3.904   2.923  18.991  0.00  0.00    +0.000 A 
ATOM      9  C   UNL     1       3.699   4.250  18.640  0.00  0.00    +0.000 A 
ENDROOT
BRANCH   1  10
ATOM     10  N   UNL     1       5.685   4.879  17.329  0.00  0.00    +0.000 NA
ATOM     11  C   UNL     1       7.062   4.861  17.813  0.00  0.00    +0.000 C 
BRANCH  10  12
ATOM     12  C   UNL     1       5.489   5.605  16.070  0.00  0.00    +0.000 C 
BRANCH  12  14
ATOM     13  C   UNL     1       6.121   3.906  13.904  0.00  0.00    +0.000 C 
ATOM     14  C   UNL     1       5.830   4.690  14.904  0.00  0.00    +0.000 C 
ENDBRANCH  12  14
ENDBRANCH  10  12
ENDBRANCH   1  10
BRANCH   8  15
ATOM     15  O   UNL     1       5.155   2.505  19.328  0.00  0.00    +0.000 OA
ATOM     16  H   UNL     1       5.776   3.237  19.196  0.00  0.00    +0.000 HD
ENDBRANCH   8  15
TORSDOF 4
ENDMDL
MODEL 2
REMARK VINA RESULT:      -6.3      1.522      1.988
REMARK  Name = 
REMARK  5 active torsions:
REMARK  status: ('A' for Active; 'I' for Inactive)
REMARK    1  A    between atoms: C_2  and  C_3
REMARK    2  A    between atoms: C_3  and  N_4
REMARK    3  A    between atoms: N_4  and  C_5
REMARK    4  A    between atoms: N_4  and  C_6
REMARK    5  A    between atoms: C_13  and  O_14
REMARK                            x       y       z     vdW  Elec       q    Type
REMARK                         _______ _______ _______ _____ _____    ______ ____
ROOT
ATOM      1  C   UNL     1       4.574   5.374  19.206  0.00  0.00    +0.000 C 
ATOM      2  C   UNL     1       3.630   6.539  18.795  0.00  0.00    +0.000 C 
ATOM      3  C   UNL     1       2.415   5.955  18.068  0.00  0.00    +0.000 C 
ATOM      4  C   UNL     1       2.569   4.479  18.246  0.00  0.00    +0.000 A 
ATOM      5  C   UNL     1       1.757   3.484  17.728  0.00  0.00    +0.000 A 
ATOM      6  C   UNL     1       2.140   2.147  17.895  0.00  0.00    +0.000 A 
ATOM      7  C   UNL     1       3.306   1.819  18.604  0.00  0.00    +0.000 A 
ATOM      8  C   UNL     1       4.096   2.829  19.141  0.00  0.00    +0.000 A 
ATOM      9  C   UNL     1       3.736   4.154  18.937  0.00  0.00    +0.000 A 
ENDROOT
BRANCH   1  10
ATOM     10  N   UNL     1       5.848   5.327  18.470  0.00  0.00    +0.000 NA
ATOM     11  C   UNL     1       6.986   5.500  19.367  0.00  0.00    +0.000 C 
BRANCH  10  12
ATOM     12  C   UNL     1       5.864   6.196  17.288  0.00  0.00    +0.000 C 
BRANCH  12  14
ATOM     13  C   UNL     1       7.862   8.166  17.604  0.00  0.00    +0.000 C 
ATOM     14  C   UNL     1       6.940   7.257  17.458  0.00  0.00    +0.000 C 
ENDBRANCH  12  14
ENDBRANCH  10  12
ENDBRANCH   1  10
BRANCH   8  15
ATOM     15  O   UNL     1       5.247   2.543  19.810  0.00  0.00    +0.000 OA
ATOM     16  H   UNL     1       5.669   1.776  19.393  0.00  0.00    +0.000 HD
ENDBRANCH   8  15
TORSDOF 4
ENDMDL
MODEL 3
REMARK VINA RESULT:      -5.9      1.807      4.689
REMARK  Name = 
REMARK  5 active torsions:
REMARK  status: ('A' for Active; 'I' for Inactive)
REMARK    1  A    between atoms: C_2  and  C_3
REMARK    2  A    between atoms: C_3  and  N_4
REMARK    3  A    between atoms: N_4  and  C_5
REMARK    4  A    between atoms: N_4  and  C_6
REMARK    5  A    between atoms: C_13  and  O_14
REMARK                            x       y       z     vdW  Elec       q    Type
REMARK                         _______ _______ _______ _____ _____    ______ ____
ROOT
ATOM      1  C   UNL     1       3.491   4.021  17.282  0.00  0.00    +0.000 C 
ATOM      2  C   UNL     1       2.603   5.162  17.854  0.00  0.00    +0.000 C 
ATOM      3  C   UNL     1       3.468   6.410  18.051  0.00  0.00    +0.000 C 
ATOM      4  C   UNL     1       4.769   6.045  17.411  0.00  0.00    +0.000 A 
ATOM      5  C   UNL     1       5.922   6.811  17.363  0.00  0.00    +0.000 A 
ATOM      6  C   UNL     1       7.087   6.241  16.832  0.00  0.00    +0.000 A 
ATOM      7  C   UNL     1       7.078   4.933  16.324  0.00  0.00    +0.000 A 
ATOM      8  C   UNL     1       5.905   4.187  16.356  0.00  0.00    +0.000 A 
ATOM      9  C   UNL     1       4.764   4.738  16.922  0.00  0.00    +0.000 A 
ENDROOT
BRANCH   1  10
ATOM     10  N   UNL     1       3.742   2.911  18.214  0.00  0.00    +0.000 NA
ATOM     11  C   UNL     1       2.664   1.928  18.172  0.00  0.00    +0.000 C 
BRANCH  10  12
ATOM     12  C   UNL     1       4.106   3.360  19.562  0.00  0.00    +0.000 C 
BRANCH  12  14
ATOM     13  C   UNL     1       2.015   2.733  21.354  0.00  0.00    +0.000 C 
ATOM     14  C   UNL     1       2.980   3.022  20.527  0.00  0.00    +0.000 C 
ENDBRANCH  12  14
ENDBRANCH  10  12
ENDBRANCH   1  10
BRANCH   8  15
ATOM     15  O   UNL     1       5.873   2.905  15.896  0.00  0.00    +0.000 OA
ATOM     16  H   UNL     1       6.074   2.909  14.948  0.00  0.00    +0.000 HD
ENDBRANCH   8  15
TORSDOF 4
ENDMDL
MODEL 4
REMARK VINA RESULT:      -5.9      1.003      1.023
REMARK  Name = 
REMARK  5 active torsions:
REMARK  status: ('A' for Active; 'I' for Inactive)
REMARK    1  A    between atoms: C_2  and  C_3
REMARK    2  A    between atoms: C_3  and  N_4
REMARK    3  A    between atoms: N_4  and  C_5
REMARK    4  A    between atoms: N_4  and  C_6
REMARK    5  A    between atoms: C_13  and  O_14
REMARK                            x       y       z     vdW  Elec       q    Type
REMARK                         _______ _______ _______ _____ _____    ______ ____
ROOT
ATOM      1  C   UNL     1       4.914   4.337  19.021  0.00  0.00    +0.000 C 
ATOM      2  C   UNL     1       4.502   5.809  19.306  0.00  0.00    +0.000 C 
ATOM      3  C   UNL     1       2.974   5.903  19.304  0.00  0.00    +0.000 C 
ATOM      4  C   UNL     1       2.531   4.478  19.224  0.00  0.00    +0.000 A 
ATOM      5  C   UNL     1       1.230   4.009  19.136  0.00  0.00    +0.000 A 
ATOM      6  C   UNL     1       1.020   2.639  18.935  0.00  0.00    +0.000 A 
ATOM      7  C   UNL     1       2.104   1.751  18.861  0.00  0.00    +0.000 A 
ATOM      8  C   UNL     1       3.403   2.234  18.977  0.00  0.00    +0.000 A 
ATOM      9  C   UNL     1       3.609   3.597  19.133  0.00  0.00    +0.000 A 
ENDROOT
BRANCH   1  10
ATOM     10  N   UNL     1       5.548   4.119  17.711  0.00  0.00    +0.000 NA
ATOM     11  C   UNL     1       6.922   4.611  17.697  0.00  0.00    +0.000 C 
BRANCH  10  12
ATOM     12  C   UNL     1       4.723   4.578  16.587  0.00  0.00    +0.000 C 
BRANCH  12  14
ATOM     13  C   UNL     1       6.077   4.065  14.163  0.00  0.00    +0.000 C 
ATOM     14  C   UNL     1       5.452   4.302  15.282  0.00  0.00    +0.000 C 
ENDBRANCH  12  14
ENDBRANCH  10  12
ENDBRANCH   1  10
BRANCH   8  15
ATOM     15  O   UNL     1       4.476   1.401  18.882  0.00  0.00    +0.000 OA
ATOM     16  H   UNL     1       5.284   1.934  18.847  0.00  0.00    +0.000 HD
ENDBRANCH   8  15
TORSDOF 4
ENDMDL
MODEL 5
REMARK VINA RESULT:      -5.8      2.189      3.246
REMARK  Name = 
REMARK  5 active torsions:
REMARK  status: ('A' for Active; 'I' for Inactive)
REMARK    1  A    between atoms: C_2  and  C_3
REMARK    2  A    between atoms: C_3  and  N_4
REMARK    3  A    between atoms: N_4  and  C_5
REMARK    4  A    between atoms: N_4  and  C_6
REMARK    5  A    between atoms: C_13  and  O_14
REMARK                            x       y       z     vdW  Elec       q    Type
REMARK                         _______ _______ _______ _____ _____    ______ ____
ROOT
ATOM      1  C   UNL     1       3.079   5.034  17.821  0.00  0.00    +0.000 C 
ATOM      2  C   UNL     1       3.047   3.822  16.848  0.00  0.00    +0.000 C 
ATOM      3  C   UNL     1       2.728   2.556  17.648  0.00  0.00    +0.000 C 
ATOM      4  C   UNL     1       2.384   3.071  19.008  0.00  0.00    +0.000 A 
ATOM      5  C   UNL     1       2.071   2.324  20.132  0.00  0.00    +0.000 A 
ATOM      6  C   UNL     1       1.906   2.986  21.355  0.00  0.00    +0.000 A 
ATOM      7  C   UNL     1       2.020   4.382  21.436  0.00  0.00    +0.000 A 
ATOM      8  C   UNL     1       2.309   5.120  20.293  0.00  0.00    +0.000 A 
ATOM      9  C   UNL     1       2.514   4.458  19.091  0.00  0.00    +0.000 A 
ENDROOT
BRANCH   1  10
ATOM     10  N   UNL     1       4.414   5.613  18.039  0.00  0.00    +0.000 NA
ATOM     11  C   UNL     1       4.720   6.633  17.040  0.00  0.00    +0.000 C 
BRANCH  10  12
ATOM     12  C   UNL     1       5.460   4.600  18.217  0.00  0.00    +0.000 C 
BRANCH  12  14
ATOM     13  C   UNL     1       7.823   5.845  19.136  0.00  0.00    +0.000 C 
ATOM     14  C   UNL     1       6.732   5.270  18.712  0.00  0.00    +0.000 C 
ENDBRANCH  12  14
ENDBRANCH  10  12
ENDBRANCH   1  10
BRANCH   8  15
ATOM     15  O   UNL     1       2.452   6.473  20.346  0.00  0.00    +0.000 OA
ATOM     16  H   UNL     1       1.832   6.828  21.001  0.00  0.00    +0.000 HD
ENDBRANCH   8  15
TORSDOF 4
ENDMDL
MODEL 6
REMARK VINA RESULT:      -5.8      2.062      2.742
REMARK  Name = 
REMARK  5 active torsions:
REMARK  status: ('A' for Active; 'I' for Inactive)
REMARK    1  A    between atoms: C_2  and  C_3
REMARK    2  A    between atoms: C_3  and  N_4
REMARK    3  A    between atoms: N_4  and  C_5
REMARK    4  A    between atoms: N_4  and  C_6
REMARK    5  A    between atoms: C_13  and  O_14
REMARK                            x       y       z     vdW  Elec       q    Type
REMARK                         _______ _______ _______ _____ _____    ______ ____
ROOT
ATOM      1  C   UNL     1       3.094   4.748  17.689  0.00  0.00    +0.000 C 
ATOM      2  C   UNL     1       2.863   3.475  16.827  0.00  0.00    +0.000 C 
ATOM      3  C   UNL     1       2.402   2.337  17.742  0.00  0.00    +0.000 C 
ATOM      4  C   UNL     1       2.181   3.007  19.059  0.00  0.00    +0.000 A 
ATOM      5  C   UNL     1       1.809   2.407  20.251  0.00  0.00    +0.000 A 
ATOM      6  C   UNL     1       1.780   3.186  21.416  0.00  0.00    +0.000 A 
ATOM      7  C   UNL     1       2.086   4.554  21.371  0.00  0.00    +0.000 A 
ATOM      8  C   UNL     1       2.432   5.146  20.161  0.00  0.00    +0.000 A 
ATOM      9  C   UNL     1       2.502   4.364  19.017  0.00  0.00    +0.000 A 
ENDROOT
BRANCH   1  10
ATOM     10  N   UNL     1       4.503   5.151  17.823  0.00  0.00    +0.000 NA
ATOM     11  C   UNL     1       4.767   6.402  17.117  0.00  0.00    +0.000 C 
BRANCH  10  12
ATOM     12  C   UNL     1       5.445   4.069  17.519  0.00  0.00    +0.000 C 
BRANCH  12  14
ATOM     13  C   UNL     1       6.881   4.708  15.172  0.00  0.00    +0.000 C 
ATOM     14  C   UNL     1       6.218   4.413  16.256  0.00  0.00    +0.000 C 
ENDBRANCH  12  14
ENDBRANCH  10  12
ENDBRANCH   1  10
BRANCH   8  15
ATOM     15  O   UNL     1       2.761   6.466  20.091  0.00  0.00    +0.000 OA
ATOM     16  H   UNL     1       2.607   6.779  19.187  0.00  0.00    +0.000 HD
ENDBRANCH   8  15
TORSDOF 4
ENDMDL
MODEL 7
REMARK VINA RESULT:      -5.6      1.817      4.562
REMARK  Name = 
REMARK  5 active torsions:
REMARK  status: ('A' for Active; 'I' for Inactive)
REMARK    1  A    between atoms: C_2  and  C_3
REMARK    2  A    between atoms: C_3  and  N_4
REMARK    3  A    between atoms: N_4  and  C_5
REMARK    4  A    between atoms: N_4  and  C_6
REMARK    5  A    between atoms: C_13  and  O_14
REMARK                            x       y       z     vdW  Elec       q    Type
REMARK                         _______ _______ _______ _____ _____    ______ ____
ROOT
ATOM      1  C   UNL     1       4.675   3.848  18.330  0.00  0.00    +0.000 C 
ATOM      2  C   UNL     1       4.128   3.430  16.936  0.00  0.00    +0.000 C 
ATOM      3  C   UNL     1       4.778   4.312  15.866  0.00  0.00    +0.000 C 
ATOM      4  C   UNL     1       5.821   5.073  16.618  0.00  0.00    +0.000 A 
ATOM      5  C   UNL     1       6.662   6.056  16.122  0.00  0.00    +0.000 A 
ATOM      6  C   UNL     1       7.487   6.751  17.016  0.00  0.00    +0.000 A 
ATOM      7  C   UNL     1       7.490   6.433  18.382  0.00  0.00    +0.000 A 
ATOM      8  C   UNL     1       6.660   5.426  18.861  0.00  0.00    +0.000 A 
ATOM      9  C   UNL     1       5.812   4.769  17.980  0.00  0.00    +0.000 A 
ENDROOT
BRANCH   1  10
ATOM     10  N   UNL     1       3.692   4.512  19.201  0.00  0.00    +0.000 NA
ATOM     11  C   UNL     1       3.339   3.670  20.340  0.00  0.00    +0.000 C 
BRANCH  10  12
ATOM     12  C   UNL     1       2.546   5.059  18.467  0.00  0.00    +0.000 C 
BRANCH  12  14
ATOM     13  C   UNL     1       2.994   7.795  17.936  0.00  0.00    +0.000 C 
ATOM     14  C   UNL     1       2.787   6.532  18.181  0.00  0.00    +0.000 C 
ENDBRANCH  12  14
ENDBRANCH  10  12
ENDBRANCH   1  10
BRANCH   8  15
ATOM     15  O   UNL     1       6.621   5.114  20.186  0.00  0.00    +0.000 OA
ATOM     16  H   UNL     1       5.700   4.959  20.443  0.00  0.00    +0.000 HD
ENDBRANCH   8  15
TORSDOF 4
ENDMDL
MODEL 8
REMARK VINA RESULT:      -5.6      2.113      5.172
REMARK  Name = 
REMARK  5 active torsions:
REMARK  status: ('A' for Active; 'I' for Inactive)
REMARK    1  A    between atoms: C_2  and  C_3
REMARK    2  A    between atoms: C_3  and  N_4
REMARK    3  A    between atoms: N_4  and  C_5
REMARK    4  A    between atoms: N_4  and  C_6
REMARK    5  A    between atoms: C_13  and  O_14
REMARK                            x       y       z     vdW  Elec       q    Type
REMARK                         _______ _______ _______ _____ _____    ______ ____
ROOT
ATOM      1  C   UNL     1       5.785   4.286  18.254  0.00  0.00    +0.000 C 
ATOM      2  C   UNL     1       5.065   4.255  16.876  0.00  0.00    +0.000 C 
ATOM      3  C   UNL     1       5.405   5.539  16.114  0.00  0.00    +0.000 C 
ATOM      4  C   UNL     1       6.457   6.185  16.956  0.00  0.00    +0.000 A 
ATOM      5  C   UNL     1       7.069   7.409  16.739  0.00  0.00    +0.000 A 
ATOM      6  C   UNL     1       7.940   7.909  17.716  0.00  0.00    +0.000 A 
ATOM      7  C   UNL     1       8.218   7.169  18.875  0.00  0.00    +0.000 A 
ATOM      8  C   UNL     1       7.616   5.930  19.065  0.00  0.00    +0.000 A 
ATOM      9  C   UNL     1       6.720   5.457  18.117  0.00  0.00    +0.000 A 
ENDROOT
BRANCH   1  10
ATOM     10  N   UNL     1       4.890   4.443  19.412  0.00  0.00    +0.000 NA
ATOM     11  C   UNL     1       4.294   3.168  19.799  0.00  0.00    +0.000 C 
BRANCH  10  12
ATOM     12  C   UNL     1       3.932   5.542  19.255  0.00  0.00    +0.000 C 
BRANCH  12  14
ATOM     13  C   UNL     1       1.562   4.924  20.661  0.00  0.00    +0.000 C 
ATOM     14  C   UNL     1       2.656   5.210  20.012  0.00  0.00    +0.000 C 
ENDBRANCH  12  14
ENDBRANCH  10  12
ENDBRANCH   1  10
BRANCH   8  15
ATOM     15  O   UNL     1       7.844   5.201  20.193  0.00  0.00    +0.000 OA
ATOM     16  H   UNL     1       7.584   4.282  20.029  0.00  0.00    +0.000 HD
ENDBRANCH   8  15
TORSDOF 4
ENDMDL
MODEL 9
REMARK VINA RESULT:      -5.6      2.101      4.576
REMARK  Name = 
REMARK  5 active torsions:
REMARK  status: ('A' for Active; 'I' for Inactive)
REMARK    1  A    between atoms: C_2  and  C_3
REMARK    2  A    between atoms: C_3  and  N_4
REMARK    3  A    between atoms: N_4  and  C_5
REMARK    4  A    between atoms: N_4  and  C_6
REMARK    5  A    between atoms: C_13  and  O_14
REMARK                            x       y       z     vdW  Elec       q    Type
REMARK                         _______ _______ _______ _____ _____    ______ ____
ROOT
ATOM      1  C   UNL     1       2.341   2.857  19.311  0.00  0.00    +0.000 C 
ATOM      2  C   UNL     1       1.165   3.166  18.342  0.00  0.00    +0.000 C 
ATOM      3  C   UNL     1       1.658   4.132  17.261  0.00  0.00    +0.000 C 
ATOM      4  C   UNL     1       3.132   4.204  17.494  0.00  0.00    +0.000 A 
ATOM      5  C   UNL     1       4.050   4.991  16.816  0.00  0.00    +0.000 A 
ATOM      6  C   UNL     1       5.375   5.021  17.269  0.00  0.00    +0.000 A 
ATOM      7  C   UNL     1       5.776   4.243  18.365  0.00  0.00    +0.000 A 
ATOM      8  C   UNL     1       4.848   3.439  19.019  0.00  0.00    +0.000 A 
ATOM      9  C   UNL     1       3.527   3.444  18.595  0.00  0.00    +0.000 A 
ENDROOT
BRANCH   1  10
ATOM     10  N   UNL     1       2.191   3.425  20.661  0.00  0.00    +0.000 NA
ATOM     11  C   UNL     1       2.111   2.376  21.672  0.00  0.00    +0.000 C 
BRANCH  10  12
ATOM     12  C   UNL     1       1.133   4.438  20.747  0.00  0.00    +0.000 C 
BRANCH  12  14
ATOM     13  C   UNL     1       2.228   6.983  20.201  0.00  0.00    +0.000 C 
ATOM     14  C   UNL     1       1.723   5.808  20.453  0.00  0.00    +0.000 C 
ENDBRANCH  12  14
ENDBRANCH  10  12
ENDBRANCH   1  10
BRANCH   8  15
ATOM     15  O   UNL     1       5.202   2.694  20.102  0.00  0.00    +0.000 OA
ATOM     16  H   UNL     1       5.044   1.758  19.903  0.00  0.00    +0.000 HD
ENDBRANCH   8  15
TORSDOF 4
ENDMDL
