MODEL 1
REMARK VINA RESULT:      -6.2      0.000      0.000
REMARK  Name = 
REMARK  10 active torsions:
REMARK  status: ('A' for Active; 'I' for Inactive)
REMARK    1  A    between atoms: C_1  and  C_2
REMARK    2  A    between atoms: C_2  and  N_3
REMARK    3  A    between atoms: N_3  and  C_4
REMARK    4  A    between atoms: C_4  and  C_5
REMARK    5  A    between atoms: C_6  and  C_8
REMARK    6  A    between atoms: C_10  and  C_11
REMARK    7  A    between atoms: C_11  and  O_13
REMARK    8  A    between atoms: C_15  and  N_16
REMARK    9  A    between atoms: C_17  and  N_18
REMARK   10  A    between atoms: C_19  and  C_20
REMARK                            x       y       z     vdW  Elec       q    Type
REMARK                         _______ _______ _______ _____ _____    ______ ____
ROOT
ATOM      1  C   UNL     1       2.981   5.897  18.440  0.00  0.00    +0.000 C 
ATOM      2  O   UNL     1       2.548   7.150  18.993  0.00  0.00    +0.000 OA
ATOM      3  C   UNL     1       1.795   7.156  20.138  0.00  0.00    +0.000 C 
ATOM      4  C   UNL     1       1.259   6.070  20.702  0.00  0.00    +0.000 C 
ATOM      5  C   UNL     1       1.411   4.700  20.168  0.00  0.00    +0.000 C 
ATOM      6  C   UNL     1       2.257   4.588  18.871  0.00  0.00    +0.000 C 
ENDROOT
BRANCH   6   7
ATOM      7  N   UNL     1       3.158   3.410  18.970  0.00  0.00    +0.000 N 
ATOM      8  C   UNL     1       3.017   2.258  18.243  0.00  0.00    +0.000 C 
ATOM      9  C   UNL     1       4.023   1.189  18.587  0.00  0.00    +0.000 C 
ATOM     10  O   UNL     1       2.148   2.099  17.394  0.00  0.00    +0.000 OA
ATOM     11  H   UNL     1       3.965   3.507  19.576  0.00  0.00    +0.000 HD
ENDBRANCH   6   7
BRANCH   1  13
ATOM     12  N   UNL     1       5.371   5.872  17.620  0.00  0.00    +0.000 N 
ATOM     13  C   UNL     1       4.489   5.756  18.699  0.00  0.00    +0.000 C 
ATOM     14  O   UNL     1       4.885   5.425  19.821  0.00  0.00    +0.000 OA
BRANCH  12  16
ATOM     15  C   UNL     1       7.715   6.533  18.200  0.00  0.00    +0.000 C 
ATOM     16  C   UNL     1       6.751   5.423  17.821  0.00  0.00    +0.000 C 
ENDBRANCH  12  16
BRANCH  12  17
ATOM     17  C   UNL     1       5.021   6.391  16.289  0.00  0.00    +0.000 C 
ATOM     18  C   UNL     1       5.497   5.492  15.157  0.00  0.00    +0.000 C 
ENDBRANCH  12  17
ENDBRANCH   1  13
BRANCH   5  19
ATOM     19  N   UNL     1       1.895   3.853  21.270  0.00  0.00    +0.000 NA
ATOM     20  H   UNL     1       2.692   4.304  21.719  0.00  0.00    +0.000 HD
ATOM     21  H   UNL     1       2.241   2.982  20.868  0.00  0.00    +0.000 HD
ENDBRANCH   5  19
BRANCH   3  22
ATOM     22  C   UNL     1       1.543   8.475  20.805  0.00  0.00    +0.000 C 
ATOM     23  O   UNL     1       1.088   9.469  20.265  0.00  0.00    +0.000 OA
BRANCH  22  24
ATOM     24  O   UNL     1       1.896   8.429  22.110  0.00  0.00    +0.000 OA
ATOM     25  H   UNL     1       2.872   8.438  22.198  0.00  0.00    +0.000 HD
ENDBRANCH  22  24
ENDBRANCH   3  22
TORSDOF 7
ENDMDL
MODEL 2
REMARK VINA RESULT:      -6.1      2.105      4.899
REMARK  Name = 
REMARK  10 active torsions:
REMARK  status: ('A' for Active; 'I' for Inactive)
REMARK    1  A    between atoms: C_1  and  C_2
REMARK    2  A    between atoms: C_2  and  N_3
REMARK    3  A    between atoms: N_3  and  C_4
REMARK    4  A    between atoms: C_4  and  C_5
REMARK    5  A    between atoms: C_6  and  C_8
REMARK    6  A    between atoms: C_10  and  C_11
REMARK    7  A    between atoms: C_11  and  O_13
REMARK    8  A    between atoms: C_15  and  N_16
REMARK    9  A    between atoms: C_17  and  N_18
REMARK   10  A    between atoms: C_19  and  C_20
REMARK                            x       y       z     vdW  Elec       q    Type
REMARK                         _______ _______ _______ _____ _____    ______ ____
ROOT
ATOM      1  C   UNL     1       5.036   4.945  19.047  0.00  0.00    +0.000 C 
ATOM      2  O   UNL     1       5.433   3.617  19.424  0.00  0.00    +0.000 OA
ATOM      3  C   UNL     1       4.494   2.748  19.915  0.00  0.00    +0.000 C 
ATOM      4  C   UNL     1       3.247   3.086  20.253  0.00  0.00    +0.000 C 
ATOM      5  C   UNL     1       2.701   4.455  20.139  0.00  0.00    +0.000 C 
ATOM      6  C   UNL     1       3.691   5.515  19.584  0.00  0.00    +0.000 C 
ENDROOT
BRANCH   6   7
ATOM      7  N   UNL     1       2.983   6.392  18.616  0.00  0.00    +0.000 N 
ATOM      8  C   UNL     1       2.276   7.515  18.954  0.00  0.00    +0.000 C 
ATOM      9  C   UNL     1       1.593   8.184  17.788  0.00  0.00    +0.000 C 
ATOM     10  O   UNL     1       2.193   7.940  20.100  0.00  0.00    +0.000 OA
ATOM     11  H   UNL     1       3.094   6.165  17.634  0.00  0.00    +0.000 HD
ENDBRANCH   6   7
BRANCH   1  13
ATOM     12  N   UNL     1       6.104   5.703  16.885  0.00  0.00    +0.000 N 
ATOM     13  C   UNL     1       5.051   5.030  17.512  0.00  0.00    +0.000 C 
ATOM     14  O   UNL     1       4.081   4.613  16.872  0.00  0.00    +0.000 OA
BRANCH  12  16
ATOM     15  C   UNL     1       6.529   5.032  14.512  0.00  0.00    +0.000 C 
ATOM     16  C   UNL     1       5.941   6.050  15.472  0.00  0.00    +0.000 C 
ENDBRANCH  12  16
BRANCH  12  17
ATOM     17  C   UNL     1       7.358   6.111  17.537  0.00  0.00    +0.000 C 
ATOM     18  C   UNL     1       7.579   7.616  17.510  0.00  0.00    +0.000 C 
ENDBRANCH  12  17
ENDBRANCH   1  13
BRANCH   5  19
ATOM     19  N   UNL     1       1.443   4.362  19.382  0.00  0.00    +0.000 NA
ATOM     20  H   UNL     1       0.943   3.517  19.659  0.00  0.00    +0.000 HD
ATOM     21  H   UNL     1       1.677   4.251  18.395  0.00  0.00    +0.000 HD
ENDBRANCH   5  19
BRANCH   3  22
ATOM     22  C   UNL     1       4.892   1.313  20.095  0.00  0.00    +0.000 C 
ATOM     23  O   UNL     1       5.480   0.855  21.059  0.00  0.00    +0.000 OA
BRANCH  22  24
ATOM     24  O   UNL     1       4.515   0.572  19.029  0.00  0.00    +0.000 OA
ATOM     25  H   UNL     1       5.282   0.079  18.669  0.00  0.00    +0.000 HD
ENDBRANCH  22  24
ENDBRANCH   3  22
TORSDOF 7
ENDMDL
MODEL 3
REMARK VINA RESULT:      -5.8      2.703      3.752
REMARK  Name = 
REMARK  10 active torsions:
REMARK  status: ('A' for Active; 'I' for Inactive)
REMARK    1  A    between atoms: C_1  and  C_2
REMARK    2  A    between atoms: C_2  and  N_3
REMARK    3  A    between atoms: N_3  and  C_4
REMARK    4  A    between atoms: C_4  and  C_5
REMARK    5  A    between atoms: C_6  and  C_8
REMARK    6  A    between atoms: C_10  and  C_11
REMARK    7  A    between atoms: C_11  and  O_13
REMARK    8  A    between atoms: C_15  and  N_16
REMARK    9  A    between atoms: C_17  and  N_18
REMARK   10  A    between atoms: C_19  and  C_20
REMARK                            x       y       z     vdW  Elec       q    Type
REMARK                         _______ _______ _______ _____ _____    ______ ____
ROOT
ATOM      1  C   UNL     1       3.595   4.618  18.308  0.00  0.00    +0.000 C 
ATOM      2  O   UNL     1       2.817   4.462  19.505  0.00  0.00    +0.000 OA
ATOM      3  C   UNL     1       2.475   3.203  19.925  0.00  0.00    +0.000 C 
ATOM      4  C   UNL     1       2.649   2.089  19.210  0.00  0.00    +0.000 C 
ATOM      5  C   UNL     1       3.244   2.057  17.857  0.00  0.00    +0.000 C 
ATOM      6  C   UNL     1       3.671   3.440  17.294  0.00  0.00    +0.000 C 
ENDROOT
BRANCH   6   7
ATOM      7  N   UNL     1       4.991   3.312  16.622  0.00  0.00    +0.000 N 
ATOM      8  C   UNL     1       5.350   3.974  15.478  0.00  0.00    +0.000 C 
ATOM      9  C   UNL     1       6.721   3.610  14.964  0.00  0.00    +0.000 C 
ATOM     10  O   UNL     1       4.625   4.783  14.911  0.00  0.00    +0.000 OA
ATOM     11  H   UNL     1       5.685   2.740  17.091  0.00  0.00    +0.000 HD
ENDBRANCH   6   7
BRANCH   1  13
ATOM     12  N   UNL     1       5.605   6.134  18.078  0.00  0.00    +0.000 N 
ATOM     13  C   UNL     1       5.018   5.036  18.714  0.00  0.00    +0.000 C 
ATOM     14  O   UNL     1       5.658   4.328  19.499  0.00  0.00    +0.000 OA
BRANCH  12  16
ATOM     15  C   UNL     1       7.585   7.592  17.609  0.00  0.00    +0.000 C 
ATOM     16  C   UNL     1       7.049   6.319  18.239  0.00  0.00    +0.000 C 
ENDBRANCH  12  16
BRANCH  12  17
ATOM     17  C   UNL     1       4.892   7.111  17.241  0.00  0.00    +0.000 C 
ATOM     18  C   UNL     1       3.598   7.602  17.874  0.00  0.00    +0.000 C 
ENDBRANCH  12  17
ENDBRANCH   1  13
BRANCH   5  19
ATOM     19  N   UNL     1       4.328   1.062  17.879  0.00  0.00    +0.000 NA
ATOM     20  H   UNL     1       4.692   0.979  18.828  0.00  0.00    +0.000 HD
ATOM     21  H   UNL     1       5.092   1.417  17.304  0.00  0.00    +0.000 HD
ENDBRANCH   5  19
BRANCH   3  22
ATOM     22  C   UNL     1       1.853   3.061  21.282  0.00  0.00    +0.000 C 
ATOM     23  O   UNL     1       2.443   3.139  22.346  0.00  0.00    +0.000 OA
BRANCH  22  24
ATOM     24  O   UNL     1       0.525   2.825  21.180  0.00  0.00    +0.000 OA
ATOM     25  H   UNL     1       0.365   1.889  20.937  0.00  0.00    +0.000 HD
ENDBRANCH  22  24
ENDBRANCH   3  22
TORSDOF 7
ENDMDL
MODEL 4
REMARK VINA RESULT:      -5.7      2.347      5.937
REMARK  Name = 
REMARK  10 active torsions:
REMARK  status: ('A' for Active; 'I' for Inactive)
REMARK    1  A    between atoms: C_1  and  C_2
REMARK    2  A    between atoms: C_2  and  N_3
REMARK    3  A    between atoms: N_3  and  C_4
REMARK    4  A    between atoms: C_4  and  C_5
REMARK    5  A    between atoms: C_6  and  C_8
REMARK    6  A    between atoms: C_10  and  C_11
REMARK    7  A    between atoms: C_11  and  O_13
REMARK    8  A    between atoms: C_15  and  N_16
REMARK    9  A    between atoms: C_17  and  N_18
REMARK   10  A    between atoms: C_19  and  C_20
REMARK                            x       y       z     vdW  Elec       q    Type
REMARK                         _______ _______ _______ _____ _____    ______ ____
ROOT
ATOM      1  C   UNL     1       3.526   4.315  17.454  0.00  0.00    +0.000 C 
ATOM      2  O   UNL     1       4.573   3.877  16.574  0.00  0.00    +0.000 OA
ATOM      3  C   UNL     1       5.479   4.789  16.100  0.00  0.00    +0.000 C 
ATOM      4  C   UNL     1       5.369   6.113  16.238  0.00  0.00    +0.000 C 
ATOM      5  C   UNL     1       4.250   6.782  16.933  0.00  0.00    +0.000 C 
ATOM      6  C   UNL     1       3.171   5.829  17.514  0.00  0.00    +0.000 C 
ENDROOT
BRANCH   6   7
ATOM      7  N   UNL     1       2.775   6.297  18.868  0.00  0.00    +0.000 N 
ATOM      8  C   UNL     1       2.098   7.461  19.123  0.00  0.00    +0.000 C 
ATOM      9  C   UNL     1       1.884   7.736  20.590  0.00  0.00    +0.000 C 
ATOM     10  O   UNL     1       1.707   8.220  18.244  0.00  0.00    +0.000 OA
ATOM     11  H   UNL     1       2.971   5.670  19.640  0.00  0.00    +0.000 HD
ENDBRANCH   6   7
BRANCH   1  13
ATOM     12  N   UNL     1       3.033   2.824  19.435  0.00  0.00    +0.000 N 
ATOM     13  C   UNL     1       3.849   3.809  18.869  0.00  0.00    +0.000 C 
ATOM     14  O   UNL     1       4.740   4.360  19.523  0.00  0.00    +0.000 OA
BRANCH  12  16
ATOM     15  C   UNL     1       2.187   3.401  21.719  0.00  0.00    +0.000 C 
ATOM     16  C   UNL     1       3.153   2.589  20.876  0.00  0.00    +0.000 C 
ENDBRANCH  12  16
BRANCH  12  17
ATOM     17  C   UNL     1       2.045   2.017  18.703  0.00  0.00    +0.000 C 
ATOM     18  C   UNL     1       0.639   2.596  18.768  0.00  0.00    +0.000 C 
ENDBRANCH  12  17
ENDBRANCH   1  13
BRANCH   5  19
ATOM     19  N   UNL     1       4.835   7.695  17.928  0.00  0.00    +0.000 NA
ATOM     20  H   UNL     1       5.812   7.445  18.083  0.00  0.00    +0.000 HD
ATOM     21  H   UNL     1       4.352   7.546  18.814  0.00  0.00    +0.000 HD
ENDBRANCH   5  19
BRANCH   3  22
ATOM     22  C   UNL     1       6.678   4.270  15.363  0.00  0.00    +0.000 C 
ATOM     23  O   UNL     1       7.837   4.573  15.588  0.00  0.00    +0.000 OA
BRANCH  22  24
ATOM     24  O   UNL     1       6.308   3.407  14.390  0.00  0.00    +0.000 OA
ATOM     25  H   UNL     1       6.403   2.483  14.701  0.00  0.00    +0.000 HD
ENDBRANCH  22  24
ENDBRANCH   3  22
TORSDOF 7
ENDMDL
MODEL 5
REMARK VINA RESULT:      -5.6      2.789      3.713
REMARK  Name = 
REMARK  10 active torsions:
REMARK  status: ('A' for Active; 'I' for Inactive)
REMARK    1  A    between atoms: C_1  and  C_2
REMARK    2  A    between atoms: C_2  and  N_3
REMARK    3  A    between atoms: N_3  and  C_4
REMARK    4  A    between atoms: C_4  and  C_5
REMARK    5  A    between atoms: C_6  and  C_8
REMARK    6  A    between atoms: C_10  and  C_11
REMARK    7  A    between atoms: C_11  and  O_13
REMARK    8  A    between atoms: C_15  and  N_16
REMARK    9  A    between atoms: C_17  and  N_18
REMARK   10  A    between atoms: C_19  and  C_20
REMARK                            x       y       z     vdW  Elec       q    Type
REMARK                         _______ _______ _______ _____ _____    ______ ____
ROOT
ATOM      1  C   UNL     1       3.993   5.129  18.494  0.00  0.00    +0.000 C 
ATOM      2  O   UNL     1       3.168   4.925  19.652  0.00  0.00    +0.000 OA
ATOM      3  C   UNL     1       2.380   3.806  19.728  0.00  0.00    +0.000 C 
ATOM      4  C   UNL     1       2.166   2.957  18.721  0.00  0.00    +0.000 C 
ATOM      5  C   UNL     1       2.757   3.104  17.374  0.00  0.00    +0.000 C 
ATOM      6  C   UNL     1       3.675   4.343  17.189  0.00  0.00    +0.000 C 
ENDROOT
BRANCH   6   7
ATOM      7  N   UNL     1       4.882   3.952  16.416  0.00  0.00    +0.000 N 
ATOM      8  C   UNL     1       5.439   4.697  15.411  0.00  0.00    +0.000 C 
ATOM      9  C   UNL     1       6.618   4.038  14.740  0.00  0.00    +0.000 C 
ATOM     10  O   UNL     1       5.016   5.796  15.073  0.00  0.00    +0.000 OA
ATOM     11  H   UNL     1       5.352   3.103  16.710  0.00  0.00    +0.000 HD
ENDBRANCH   6   7
BRANCH   1  13
ATOM     12  N   UNL     1       6.431   5.796  18.497  0.00  0.00    +0.000 N 
ATOM     13  C   UNL     1       5.454   4.879  18.899  0.00  0.00    +0.000 C 
ATOM     14  O   UNL     1       5.757   3.822  19.461  0.00  0.00    +0.000 OA
BRANCH  12  16
ATOM     15  C   UNL     1       8.413   5.537  20.003  0.00  0.00    +0.000 C 
ATOM     16  C   UNL     1       7.833   5.387  18.608  0.00  0.00    +0.000 C 
ENDBRANCH  12  16
BRANCH  12  17
ATOM     17  C   UNL     1       6.163   7.136  17.951  0.00  0.00    +0.000 C 
ATOM     18  C   UNL     1       7.410   7.813  17.402  0.00  0.00    +0.000 C 
ENDBRANCH  12  17
ENDBRANCH   1  13
BRANCH   5  19
ATOM     19  N   UNL     1       3.408   1.826  17.041  0.00  0.00    +0.000 NA
ATOM     20  H   UNL     1       3.208   1.144  17.771  0.00  0.00    +0.000 HD
ATOM     21  H   UNL     1       4.417   1.976  17.050  0.00  0.00    +0.000 HD
ENDBRANCH   5  19
BRANCH   3  22
ATOM     22  C   UNL     1       1.700   3.514  21.033  0.00  0.00    +0.000 C 
ATOM     23  O   UNL     1       2.211   3.604  22.136  0.00  0.00    +0.000 OA
BRANCH  22  24
ATOM     24  O   UNL     1       0.422   3.123  20.832  0.00  0.00    +0.000 OA
ATOM     25  H   UNL     1      -0.197   3.827  21.117  0.00  0.00    +0.000 HD
ENDBRANCH  22  24
ENDBRANCH   3  22
TORSDOF 7
ENDMDL
MODEL 6
REMARK VINA RESULT:      -5.5      2.061      5.131
REMARK  Name = 
REMARK  10 active torsions:
REMARK  status: ('A' for Active; 'I' for Inactive)
REMARK    1  A    between atoms: C_1  and  C_2
REMARK    2  A    between atoms: C_2  and  N_3
REMARK    3  A    between atoms: N_3  and  C_4
REMARK    4  A    between atoms: C_4  and  C_5
REMARK    5  A    between atoms: C_6  and  C_8
REMARK    6  A    between atoms: C_10  and  C_11
REMARK    7  A    between atoms: C_11  and  O_13
REMARK    8  A    between atoms: C_15  and  N_16
REMARK    9  A    between atoms: C_17  and  N_18
REMARK   10  A    between atoms: C_19  and  C_20
REMARK                            x       y       z     vdW  Elec       q    Type
REMARK                         _______ _______ _______ _____ _____    ______ ____
ROOT
ATOM      1  C   UNL     1       5.279   4.832  19.217  0.00  0.00    +0.000 C 
ATOM      2  O   UNL     1       6.293   5.850  19.201  0.00  0.00    +0.000 OA
ATOM      3  C   UNL     1       6.933   6.142  18.024  0.00  0.00    +0.000 C 
ATOM      4  C   UNL     1       6.828   5.425  16.903  0.00  0.00    +0.000 C 
ATOM      5  C   UNL     1       5.994   4.212  16.771  0.00  0.00    +0.000 C 
ATOM      6  C   UNL     1       5.220   3.802  18.053  0.00  0.00    +0.000 C 
ENDROOT
BRANCH   6   7
ATOM      7  N   UNL     1       3.840   3.391  17.686  0.00  0.00    +0.000 N 
ATOM      8  C   UNL     1       3.258   2.205  18.048  0.00  0.00    +0.000 C 
ATOM      9  C   UNL     1       1.874   2.004  17.484  0.00  0.00    +0.000 C 
ATOM     10  O   UNL     1       3.809   1.372  18.757  0.00  0.00    +0.000 OA
ATOM     11  H   UNL     1       3.281   4.074  17.187  0.00  0.00    +0.000 HD
ENDBRANCH   6   7
BRANCH   1  13
ATOM     12  N   UNL     1       2.961   4.961  20.217  0.00  0.00    +0.000 N 
ATOM     13  C   UNL     1       3.913   5.522  19.360  0.00  0.00    +0.000 C 
ATOM     14  O   UNL     1       3.637   6.480  18.630  0.00  0.00    +0.000 OA
BRANCH  12  16
ATOM     15  C   UNL     1       1.290   6.703  20.880  0.00  0.00    +0.000 C 
ATOM     16  C   UNL     1       1.580   5.434  20.099  0.00  0.00    +0.000 C 
ENDBRANCH  12  16
BRANCH  12  17
ATOM     17  C   UNL     1       3.231   3.917  21.218  0.00  0.00    +0.000 C 
ATOM     18  C   UNL     1       2.012   3.059  21.523  0.00  0.00    +0.000 C 
ENDBRANCH  12  17
ENDBRANCH   1  13
BRANCH   5  19
ATOM     19  N   UNL     1       5.135   4.398  15.591  0.00  0.00    +0.000 NA
ATOM     20  H   UNL     1       4.193   4.646  15.893  0.00  0.00    +0.000 HD
ATOM     21  H   UNL     1       5.060   3.501  15.111  0.00  0.00    +0.000 HD
ENDBRANCH   5  19
BRANCH   3  22
ATOM     22  C   UNL     1       7.826   7.347  17.992  0.00  0.00    +0.000 C 
ATOM     23  O   UNL     1       7.842   8.196  17.117  0.00  0.00    +0.000 OA
BRANCH  22  24
ATOM     24  O   UNL     1       8.635   7.376  19.075  0.00  0.00    +0.000 OA
ATOM     25  H   UNL     1       9.375   6.744  18.962  0.00  0.00    +0.000 HD
ENDBRANCH  22  24
ENDBRANCH   3  22
TORSDOF 7
ENDMDL
MODEL 7
REMARK VINA RESULT:      -5.5      1.344      1.647
REMARK  Name = 
REMARK  10 active torsions:
REMARK  status: ('A' for Active; 'I' for Inactive)
REMARK    1  A    between atoms: C_1  and  C_2
REMARK    2  A    between atoms: C_2  and  N_3
REMARK    3  A    between atoms: N_3  and  C_4
REMARK    4  A    between atoms: C_4  and  C_5
REMARK    5  A    between atoms: C_6  and  C_8
REMARK    6  A    between atoms: C_10  and  C_11
REMARK    7  A    between atoms: C_11  and  O_13
REMARK    8  A    between atoms: C_15  and  N_16
REMARK    9  A    between atoms: C_17  and  N_18
REMARK   10  A    between atoms: C_19  and  C_20
REMARK                            x       y       z     vdW  Elec       q    Type
REMARK                         _______ _______ _______ _____ _____    ______ ____
ROOT
ATOM      1  C   UNL     1       3.707   5.393  17.994  0.00  0.00    +0.000 C 
ATOM      2  O   UNL     1       3.170   6.710  17.797  0.00  0.00    +0.000 OA
ATOM      3  C   UNL     1       2.271   7.212  18.701  0.00  0.00    +0.000 C 
ATOM      4  C   UNL     1       1.695   6.503  19.675  0.00  0.00    +0.000 C 
ATOM      5  C   UNL     1       1.954   5.069  19.919  0.00  0.00    +0.000 C 
ATOM      6  C   UNL     1       2.968   4.408  18.947  0.00  0.00    +0.000 C 
ENDROOT
BRANCH   6   7
ATOM      7  N   UNL     1       3.881   3.520  19.714  0.00  0.00    +0.000 N 
ATOM      8  C   UNL     1       3.998   2.169  19.520  0.00  0.00    +0.000 C 
ATOM      9  C   UNL     1       4.942   1.492  20.480  0.00  0.00    +0.000 C 
ATOM     10  O   UNL     1       3.387   1.557  18.652  0.00  0.00    +0.000 OA
ATOM     11  H   UNL     1       4.498   3.971  20.380  0.00  0.00    +0.000 HD
ENDBRANCH   6   7
BRANCH   1  13
ATOM     12  N   UNL     1       6.180   5.451  17.477  0.00  0.00    +0.000 N 
ATOM     13  C   UNL     1       5.171   5.536  18.441  0.00  0.00    +0.000 C 
ATOM     14  O   UNL     1       5.435   5.599  19.645  0.00  0.00    +0.000 OA
BRANCH  12  16
ATOM     15  C   UNL     1       8.145   6.491  18.627  0.00  0.00    +0.000 C 
ATOM     16  C   UNL     1       7.555   5.268  17.948  0.00  0.00    +0.000 C 
ENDBRANCH  12  16
BRANCH  12  17
ATOM     17  C   UNL     1       5.971   5.511  16.021  0.00  0.00    +0.000 C 
ATOM     18  C   UNL     1       6.922   4.610  15.248  0.00  0.00    +0.000 C 
ENDBRANCH  12  17
ENDBRANCH   1  13
BRANCH   5  19
ATOM     19  N   UNL     1       2.310   4.924  21.340  0.00  0.00    +0.000 NA
ATOM     20  H   UNL     1       1.910   5.698  21.870  0.00  0.00    +0.000 HD
ATOM     21  H   UNL     1       3.324   5.009  21.420  0.00  0.00    +0.000 HD
ENDBRANCH   5  19
BRANCH   3  22
ATOM     22  C   UNL     1       1.896   8.660  18.588  0.00  0.00    +0.000 C 
ATOM     23  O   UNL     1       1.334   9.318  19.447  0.00  0.00    +0.000 OA
BRANCH  22  24
ATOM     24  O   UNL     1       2.260   9.158  17.385  0.00  0.00    +0.000 OA
ATOM     25  H   UNL     1       1.470   9.452  16.885  0.00  0.00    +0.000 HD
ENDBRANCH  22  24
ENDBRANCH   3  22
TORSDOF 7
ENDMDL
MODEL 8
REMARK VINA RESULT:      -5.4      2.000      4.962
REMARK  Name = 
REMARK  10 active torsions:
REMARK  status: ('A' for Active; 'I' for Inactive)
REMARK    1  A    between atoms: C_1  and  C_2
REMARK    2  A    between atoms: C_2  and  N_3
REMARK    3  A    between atoms: N_3  and  C_4
REMARK    4  A    between atoms: C_4  and  C_5
REMARK    5  A    between atoms: C_6  and  C_8
REMARK    6  A    between atoms: C_10  and  C_11
REMARK    7  A    between atoms: C_11  and  O_13
REMARK    8  A    between atoms: C_15  and  N_16
REMARK    9  A    between atoms: C_17  and  N_18
REMARK   10  A    between atoms: C_19  and  C_20
REMARK                            x       y       z     vdW  Elec       q    Type
REMARK                         _______ _______ _______ _____ _____    ______ ____
ROOT
ATOM      1  C   UNL     1       4.631   5.111  19.470  0.00  0.00    +0.000 C 
ATOM      2  O   UNL     1       4.994   3.733  19.653  0.00  0.00    +0.000 OA
ATOM      3  C   UNL     1       4.065   2.756  19.408  0.00  0.00    +0.000 C 
ATOM      4  C   UNL     1       2.768   2.977  19.185  0.00  0.00    +0.000 C 
ATOM      5  C   UNL     1       2.149   4.319  19.164  0.00  0.00    +0.000 C 
ATOM      6  C   UNL     1       3.124   5.499  19.424  0.00  0.00    +0.000 C 
ENDROOT
BRANCH   6   7
ATOM      7  N   UNL     1       2.819   6.608  18.484  0.00  0.00    +0.000 N 
ATOM      8  C   UNL     1       2.223   7.789  18.839  0.00  0.00    +0.000 C 
ATOM      9  C   UNL     1       1.961   8.716  17.679  0.00  0.00    +0.000 C 
ATOM     10  O   UNL     1       1.916   8.070  19.991  0.00  0.00    +0.000 OA
ATOM     11  H   UNL     1       3.140   6.493  17.529  0.00  0.00    +0.000 HD
ENDBRANCH   6   7
BRANCH   1  13
ATOM     12  N   UNL     1       6.606   6.185  18.314  0.00  0.00    +0.000 N 
ATOM     13  C   UNL     1       5.330   5.625  18.200  0.00  0.00    +0.000 C 
ATOM     14  O   UNL     1       4.710   5.646  17.132  0.00  0.00    +0.000 OA
BRANCH  12  16
ATOM     15  C   UNL     1       7.788   8.255  17.552  0.00  0.00    +0.000 C 
ATOM     16  C   UNL     1       7.116   6.948  17.173  0.00  0.00    +0.000 C 
ENDBRANCH  12  16
BRANCH  12  17
ATOM     17  C   UNL     1       7.474   6.086  19.497  0.00  0.00    +0.000 C 
ATOM     18  C   UNL     1       8.543   5.012  19.361  0.00  0.00    +0.000 C 
ENDBRANCH  12  17
ENDBRANCH   1  13
BRANCH   5  19
ATOM     19  N   UNL     1       1.398   4.435  17.903  0.00  0.00    +0.000 NA
ATOM     20  H   UNL     1       1.140   3.504  17.576  0.00  0.00    +0.000 HD
ATOM     21  H   UNL     1       2.024   4.828  17.200  0.00  0.00    +0.000 HD
ENDBRANCH   5  19
BRANCH   3  22
ATOM     22  C   UNL     1       4.533   1.330  19.399  0.00  0.00    +0.000 C 
ATOM     23  O   UNL     1       5.281   0.823  20.217  0.00  0.00    +0.000 OA
BRANCH  22  24
ATOM     24  O   UNL     1       4.016   0.662  18.344  0.00  0.00    +0.000 OA
ATOM     25  H   UNL     1       4.444  -0.215  18.255  0.00  0.00    +0.000 HD
ENDBRANCH  22  24
ENDBRANCH   3  22
TORSDOF 7
ENDMDL
MODEL 9
REMARK VINA RESULT:      -5.4      2.556      5.777
REMARK  Name = 
REMARK  10 active torsions:
REMARK  status: ('A' for Active; 'I' for Inactive)
REMARK    1  A    between atoms: C_1  and  C_2
REMARK    2  A    between atoms: C_2  and  N_3
REMARK    3  A    between atoms: N_3  and  C_4
REMARK    4  A    between atoms: C_4  and  C_5
REMARK    5  A    between atoms: C_6  and  C_8
REMARK    6  A    between atoms: C_10  and  C_11
REMARK    7  A    between atoms: C_11  and  O_13
REMARK    8  A    between atoms: C_15  and  N_16
REMARK    9  A    between atoms: C_17  and  N_18
REMARK   10  A    between atoms: C_19  and  C_20
REMARK                            x       y       z     vdW  Elec       q    Type
REMARK                         _______ _______ _______ _____ _____    ______ ____
ROOT
ATOM      1  C   UNL     1       4.077   4.077  17.136  0.00  0.00    +0.000 C 
ATOM      2  O   UNL     1       5.013   3.863  16.068  0.00  0.00    +0.000 OA
ATOM      3  C   UNL     1       5.698   4.931  15.550  0.00  0.00    +0.000 C 
ATOM      4  C   UNL     1       5.437   6.210  15.830  0.00  0.00    +0.000 C 
ATOM      5  C   UNL     1       4.368   6.655  16.749  0.00  0.00    +0.000 C 
ATOM      6  C   UNL     1       3.537   5.513  17.395  0.00  0.00    +0.000 C 
ENDROOT
BRANCH   6   7
ATOM      7  N   UNL     1       3.311   5.819  18.831  0.00  0.00    +0.000 N 
ATOM      8  C   UNL     1       2.165   5.524  19.520  0.00  0.00    +0.000 C 
ATOM      9  C   UNL     1       2.167   6.006  20.949  0.00  0.00    +0.000 C 
ATOM     10  O   UNL     1       1.215   4.930  19.024  0.00  0.00    +0.000 OA
ATOM     11  H   UNL     1       4.095   6.215  19.339  0.00  0.00    +0.000 HD
ENDBRANCH   6   7
BRANCH   1  13
ATOM     12  N   UNL     1       4.025   2.499  19.110  0.00  0.00    +0.000 N 
ATOM     13  C   UNL     1       4.694   3.521  18.430  0.00  0.00    +0.000 C 
ATOM     14  O   UNL     1       5.694   4.065  18.908  0.00  0.00    +0.000 OA
BRANCH  12  16
ATOM     15  C   UNL     1       5.187   0.893  20.639  0.00  0.00    +0.000 C 
ATOM     16  C   UNL     1       4.446   2.208  20.483  0.00  0.00    +0.000 C 
ENDBRANCH  12  16
BRANCH  12  17
ATOM     17  C   UNL     1       2.916   1.700  18.564  0.00  0.00    +0.000 C 
ATOM     18  C   UNL     1       1.632   1.841  19.368  0.00  0.00    +0.000 C 
ENDBRANCH  12  17
ENDBRANCH   1  13
BRANCH   5  19
ATOM     19  N   UNL     1       4.983   7.569  17.725  0.00  0.00    +0.000 NA
ATOM     20  H   UNL     1       5.076   7.093  18.622  0.00  0.00    +0.000 HD
ATOM     21  H   UNL     1       4.342   8.349  17.873  0.00  0.00    +0.000 HD
ENDBRANCH   5  19
BRANCH   3  22
ATOM     22  C   UNL     1       6.817   4.649  14.592  0.00  0.00    +0.000 C 
ATOM     23  O   UNL     1       7.821   5.327  14.453  0.00  0.00    +0.000 OA
BRANCH  22  24
ATOM     24  O   UNL     1       6.569   3.527  13.879  0.00  0.00    +0.000 OA
ATOM     25  H   UNL     1       7.410   3.107  13.605  0.00  0.00    +0.000 HD
ENDBRANCH  22  24
ENDBRANCH   3  22
TORSDOF 7
ENDMDL
