MODEL 1
REMARK VINA RESULT:      -7.9      0.000      0.000
REMARK  Name = 
REMARK  3 active torsions:
REMARK  status: ('A' for Active; 'I' for Inactive)
REMARK    1  A    between atoms: C_6  and  C_7
REMARK    2  A    between atoms: C_9  and  C_10
REMARK    3  A    between atoms: C_10  and  C_11
REMARK                            x       y       z     vdW  Elec       q    Type
REMARK                         _______ _______ _______ _____ _____    ______ ____
ROOT
ATOM      1  C   UNL     1       2.430   6.782  19.566  0.00  0.00    +0.000 A 
ATOM      2  N   UNL     1       3.187   6.087  18.749  0.00  0.00    +0.000 NA
ATOM      3  C   UNL     1       3.028   4.808  19.225  0.00  0.00    +0.000 A 
ATOM      4  N   UNL     1       2.215   4.708  20.288  0.00  0.00    +0.000 NA
ATOM      5  O   UNL     1       1.812   6.025  20.515  0.00  0.00    +0.000 OA
ENDROOT
BRANCH   1  11
ATOM      6  O   UNL     1       1.154  11.144  20.723  0.00  0.00    +0.000 OA
ATOM      7  S   UNL     1       0.430  10.166  19.940  0.00  0.00    +0.000 S 
ATOM      8  O   UNL     1      -1.012  10.175  19.827  0.00  0.00    +0.000 OA
ATOM      9  C   UNL     1       1.149  10.113  18.308  0.00  0.00    +0.000 C 
ATOM     10  C   UNL     1       1.750   8.720  18.156  0.00  0.00    +0.000 C 
ATOM     11  C   UNL     1       2.143   8.234  19.557  0.00  0.00    +0.000 C 
ATOM     12  C   UNL     1       0.954   8.551  20.459  0.00  0.00    +0.000 C 
ENDBRANCH   1  11
BRANCH   3  13
ATOM     13  C   UNL     1       3.666   3.590  18.539  0.00  0.00    +0.000 C 
ATOM     14  C   UNL     1       4.104   2.470  19.548  0.00  0.00    +0.000 C 
ATOM     15  C   UNL     1       3.563   1.444  18.531  0.00  0.00    +0.000 C 
ATOM     16  C   UNL     1       2.618   2.548  18.009  0.00  0.00    +0.000 C 
BRANCH  13  17
ATOM     17  C   UNL     1       4.796   4.083  17.478  0.00  0.00    +0.000 A 
ATOM     18  C   UNL     1       6.114   4.393  17.884  0.00  0.00    +0.000 A 
ATOM     19  C   UNL     1       7.119   4.710  16.965  0.00  0.00    +0.000 A 
ATOM     20  C   UNL     1       6.821   4.746  15.612  0.00  0.00    +0.000 A 
ATOM     21  F   UNL     1       7.788   5.016  14.727  0.00  0.00    +0.000 F 
ATOM     22  C   UNL     1       5.531   4.503  15.167  0.00  0.00    +0.000 A 
ATOM     23  C   UNL     1       4.533   4.188  16.093  0.00  0.00    +0.000 A 
ENDBRANCH  13  17
ENDBRANCH   3  13
TORSDOF 3
ENDMDL
MODEL 2
REMARK VINA RESULT:      -7.9      5.235      6.493
REMARK  Name = 
REMARK  3 active torsions:
REMARK  status: ('A' for Active; 'I' for Inactive)
REMARK    1  A    between atoms: C_6  and  C_7
REMARK    2  A    between atoms: C_9  and  C_10
REMARK    3  A    between atoms: C_10  and  C_11
REMARK                            x       y       z     vdW  Elec       q    Type
REMARK                         _______ _______ _______ _____ _____    ______ ____
ROOT
ATOM      1  C   UNL     1       8.198   8.452  17.977  0.00  0.00    +0.000 A 
ATOM      2  N   UNL     1       7.248   8.066  17.158  0.00  0.00    +0.000 NA
ATOM      3  C   UNL     1       6.974   6.797  17.608  0.00  0.00    +0.000 A 
ATOM      4  N   UNL     1       7.718   6.408  18.655  0.00  0.00    +0.000 NA
ATOM      5  O   UNL     1       8.532   7.512  18.905  0.00  0.00    +0.000 OA
ENDROOT
BRANCH   1  11
ATOM      6  O   UNL     1      11.003  12.023  19.149  0.00  0.00    +0.000 OA
ATOM      7  S   UNL     1       9.600  11.836  19.450  0.00  0.00    +0.000 S 
ATOM      8  O   UNL     1       8.963  12.451  20.594  0.00  0.00    +0.000 OA
ATOM      9  C   UNL     1       8.658  12.207  17.981  0.00  0.00    +0.000 C 
ATOM     10  C   UNL     1       7.996  10.900  17.561  0.00  0.00    +0.000 C 
ATOM     11  C   UNL     1       8.897   9.754  18.041  0.00  0.00    +0.000 C 
ATOM     12  C   UNL     1       9.272  10.092  19.480  0.00  0.00    +0.000 C 
ENDBRANCH   1  11
BRANCH   3  13
ATOM     13  C   UNL     1       5.851   5.936  17.009  0.00  0.00    +0.000 C 
ATOM     14  C   UNL     1       5.591   6.229  15.488  0.00  0.00    +0.000 C 
ATOM     15  C   UNL     1       5.434   4.706  15.297  0.00  0.00    +0.000 C 
ATOM     16  C   UNL     1       6.332   4.517  16.539  0.00  0.00    +0.000 C 
BRANCH  13  17
ATOM     17  C   UNL     1       4.548   5.972  17.981  0.00  0.00    +0.000 A 
ATOM     18  C   UNL     1       4.366   5.029  19.017  0.00  0.00    +0.000 A 
ATOM     19  C   UNL     1       3.306   5.119  19.925  0.00  0.00    +0.000 A 
ATOM     20  C   UNL     1       2.388   6.149  19.803  0.00  0.00    +0.000 A 
ATOM     21  F   UNL     1       1.391   6.258  20.691  0.00  0.00    +0.000 F 
ATOM     22  C   UNL     1       2.491   7.068  18.772  0.00  0.00    +0.000 A 
ATOM     23  C   UNL     1       3.552   6.970  17.868  0.00  0.00    +0.000 A 
ENDBRANCH  13  17
ENDBRANCH   3  13
TORSDOF 3
ENDMDL
MODEL 3
REMARK VINA RESULT:      -7.9      5.246      6.532
REMARK  Name = 
REMARK  3 active torsions:
REMARK  status: ('A' for Active; 'I' for Inactive)
REMARK    1  A    between atoms: C_6  and  C_7
REMARK    2  A    between atoms: C_9  and  C_10
REMARK    3  A    between atoms: C_10  and  C_11
REMARK                            x       y       z     vdW  Elec       q    Type
REMARK                         _______ _______ _______ _____ _____    ______ ____
ROOT
ATOM      1  C   UNL     1       8.202   8.477  17.971  0.00  0.00    +0.000 A 
ATOM      2  N   UNL     1       7.222   8.089  17.189  0.00  0.00    +0.000 NA
ATOM      3  C   UNL     1       6.980   6.813  17.639  0.00  0.00    +0.000 A 
ATOM      4  N   UNL     1       7.773   6.422  18.649  0.00  0.00    +0.000 NA
ATOM      5  O   UNL     1       8.586   7.533  18.874  0.00  0.00    +0.000 OA
ENDROOT
BRANCH   1  11
ATOM      6  O   UNL     1      10.989  12.082  19.080  0.00  0.00    +0.000 OA
ATOM      7  S   UNL     1       9.592  11.884  19.402  0.00  0.00    +0.000 S 
ATOM      8  O   UNL     1       8.966  12.501  20.550  0.00  0.00    +0.000 OA
ATOM      9  C   UNL     1       8.627  12.237  17.944  0.00  0.00    +0.000 C 
ATOM     10  C   UNL     1       7.972  10.921  17.542  0.00  0.00    +0.000 C 
ATOM     11  C   UNL     1       8.889   9.787  18.017  0.00  0.00    +0.000 C 
ATOM     12  C   UNL     1       9.281  10.137  19.448  0.00  0.00    +0.000 C 
ENDBRANCH   1  11
BRANCH   3  13
ATOM     13  C   UNL     1       5.842   5.946  17.081  0.00  0.00    +0.000 C 
ATOM     14  C   UNL     1       5.489   6.274  15.587  0.00  0.00    +0.000 C 
ATOM     15  C   UNL     1       5.350   4.754  15.361  0.00  0.00    +0.000 C 
ATOM     16  C   UNL     1       6.322   4.550  16.544  0.00  0.00    +0.000 C 
BRANCH  13  17
ATOM     17  C   UNL     1       4.596   5.928  18.126  0.00  0.00    +0.000 A 
ATOM     18  C   UNL     1       3.535   6.857  18.036  0.00  0.00    +0.000 A 
ATOM     19  C   UNL     1       2.409   6.781  18.860  0.00  0.00    +0.000 A 
ATOM     20  C   UNL     1       2.328   5.780  19.815  0.00  0.00    +0.000 A 
ATOM     21  F   UNL     1       1.236   5.683  20.584  0.00  0.00    +0.000 F 
ATOM     22  C   UNL     1       3.367   4.878  19.981  0.00  0.00    +0.000 A 
ATOM     23  C   UNL     1       4.489   4.962  19.153  0.00  0.00    +0.000 A 
ENDBRANCH  13  17
ENDBRANCH   3  13
TORSDOF 3
ENDMDL
MODEL 4
REMARK VINA RESULT:      -7.7      2.019      2.535
REMARK  Name = 
REMARK  3 active torsions:
REMARK  status: ('A' for Active; 'I' for Inactive)
REMARK    1  A    between atoms: C_6  and  C_7
REMARK    2  A    between atoms: C_9  and  C_10
REMARK    3  A    between atoms: C_10  and  C_11
REMARK                            x       y       z     vdW  Elec       q    Type
REMARK                         _______ _______ _______ _____ _____    ______ ____
ROOT
ATOM      1  C   UNL     1       1.623   8.919  19.067  0.00  0.00    +0.000 A 
ATOM      2  N   UNL     1       1.555   7.671  19.467  0.00  0.00    +0.000 NA
ATOM      3  C   UNL     1       2.357   7.030  18.554  0.00  0.00    +0.000 A 
ATOM      4  N   UNL     1       2.897   7.837  17.627  0.00  0.00    +0.000 NA
ATOM      5  O   UNL     1       2.410   9.099  17.971  0.00  0.00    +0.000 OA
ENDROOT
BRANCH   1  11
ATOM      6  O   UNL     1       0.439  12.448  21.919  0.00  0.00    +0.000 OA
ATOM      7  S   UNL     1      -0.261  11.206  21.677  0.00  0.00    +0.000 S 
ATOM      8  O   UNL     1      -1.154  10.615  22.650  0.00  0.00    +0.000 OA
ATOM      9  C   UNL     1      -1.100  11.332  20.108  0.00  0.00    +0.000 C 
ATOM     10  C   UNL     1      -0.447  10.300  19.195  0.00  0.00    +0.000 C 
ATOM     11  C   UNL     1       1.002  10.121  19.667  0.00  0.00    +0.000 C 
ATOM     12  C   UNL     1       0.935   9.989  21.185  0.00  0.00    +0.000 C 
ENDBRANCH   1  11
BRANCH   3  13
ATOM     13  C   UNL     1       2.670   5.528  18.644  0.00  0.00    +0.000 C 
ATOM     14  C   UNL     1       2.153   4.867  19.971  0.00  0.00    +0.000 C 
ATOM     15  C   UNL     1       1.721   3.658  19.115  0.00  0.00    +0.000 C 
ATOM     16  C   UNL     1       1.615   4.623  17.913  0.00  0.00    +0.000 C 
BRANCH  13  17
ATOM     17  C   UNL     1       4.231   5.265  18.270  0.00  0.00    +0.000 A 
ATOM     18  C   UNL     1       5.270   5.509  19.197  0.00  0.00    +0.000 A 
ATOM     19  C   UNL     1       6.601   5.183  18.923  0.00  0.00    +0.000 A 
ATOM     20  C   UNL     1       6.929   4.621  17.699  0.00  0.00    +0.000 A 
ATOM     21  F   UNL     1       8.198   4.277  17.446  0.00  0.00    +0.000 F 
ATOM     22  C   UNL     1       5.955   4.413  16.735  0.00  0.00    +0.000 A 
ATOM     23  C   UNL     1       4.627   4.743  17.017  0.00  0.00    +0.000 A 
ENDBRANCH  13  17
ENDBRANCH   3  13
TORSDOF 3
ENDMDL
MODEL 5
REMARK VINA RESULT:      -7.7      0.305      1.047
REMARK  Name = 
REMARK  3 active torsions:
REMARK  status: ('A' for Active; 'I' for Inactive)
REMARK    1  A    between atoms: C_6  and  C_7
REMARK    2  A    between atoms: C_9  and  C_10
REMARK    3  A    between atoms: C_10  and  C_11
REMARK                            x       y       z     vdW  Elec       q    Type
REMARK                         _______ _______ _______ _____ _____    ______ ____
ROOT
ATOM      1  C   UNL     1       2.398   6.704  19.773  0.00  0.00    +0.000 A 
ATOM      2  N   UNL     1       3.177   6.018  18.970  0.00  0.00    +0.000 NA
ATOM      3  C   UNL     1       2.948   4.726  19.377  0.00  0.00    +0.000 A 
ATOM      4  N   UNL     1       2.072   4.610  20.388  0.00  0.00    +0.000 NA
ATOM      5  O   UNL     1       1.701   5.929  20.650  0.00  0.00    +0.000 OA
ENDROOT
BRANCH   1  11
ATOM      6  O   UNL     1       1.262  11.064  21.073  0.00  0.00    +0.000 OA
ATOM      7  S   UNL     1       0.512  10.140  20.251  0.00  0.00    +0.000 S 
ATOM      8  O   UNL     1      -0.928  10.202  20.128  0.00  0.00    +0.000 OA
ATOM      9  C   UNL     1       1.242  10.118  18.623  0.00  0.00    +0.000 C 
ATOM     10  C   UNL     1       1.796   8.713  18.427  0.00  0.00    +0.000 C 
ATOM     11  C   UNL     1       2.160   8.164  19.813  0.00  0.00    +0.000 C 
ATOM     12  C   UNL     1       0.976   8.490  20.716  0.00  0.00    +0.000 C 
ENDBRANCH   1  11
BRANCH   3  13
ATOM     13  C   UNL     1       3.584   3.517  18.675  0.00  0.00    +0.000 C 
ATOM     14  C   UNL     1       3.969   2.359  19.663  0.00  0.00    +0.000 C 
ATOM     15  C   UNL     1       3.441   1.374  18.600  0.00  0.00    +0.000 C 
ATOM     16  C   UNL     1       2.533   2.511  18.083  0.00  0.00    +0.000 C 
BRANCH  13  17
ATOM     17  C   UNL     1       4.755   4.018  17.663  0.00  0.00    +0.000 A 
ATOM     18  C   UNL     1       4.533   4.148  16.273  0.00  0.00    +0.000 A 
ATOM     19  C   UNL     1       5.497   4.681  15.414  0.00  0.00    +0.000 A 
ATOM     20  C   UNL     1       6.722   5.080  15.925  0.00  0.00    +0.000 A 
ATOM     21  F   UNL     1       7.637   5.622  15.111  0.00  0.00    +0.000 F 
ATOM     22  C   UNL     1       7.010   4.922  17.272  0.00  0.00    +0.000 A 
ATOM     23  C   UNL     1       6.040   4.387  18.123  0.00  0.00    +0.000 A 
ENDBRANCH  13  17
ENDBRANCH   3  13
TORSDOF 3
ENDMDL
MODEL 6
REMARK VINA RESULT:      -7.6      1.887      2.344
REMARK  Name = 
REMARK  3 active torsions:
REMARK  status: ('A' for Active; 'I' for Inactive)
REMARK    1  A    between atoms: C_6  and  C_7
REMARK    2  A    between atoms: C_9  and  C_10
REMARK    3  A    between atoms: C_10  and  C_11
REMARK                            x       y       z     vdW  Elec       q    Type
REMARK                         _______ _______ _______ _____ _____    ______ ____
ROOT
ATOM      1  C   UNL     1       1.519   8.191  20.186  0.00  0.00    +0.000 A 
ATOM      2  N   UNL     1       2.165   7.593  19.213  0.00  0.00    +0.000 NA
ATOM      3  C   UNL     1       2.216   6.292  19.654  0.00  0.00    +0.000 A 
ATOM      4  N   UNL     1       1.634   6.089  20.846  0.00  0.00    +0.000 NA
ATOM      5  O   UNL     1       1.165   7.354  21.201  0.00  0.00    +0.000 OA
ENDROOT
BRANCH   1  11
ATOM      6  O   UNL     1       0.704  12.560  21.683  0.00  0.00    +0.000 OA
ATOM      7  S   UNL     1      -0.218  11.448  21.586  0.00  0.00    +0.000 S 
ATOM      8  O   UNL     1      -1.398  11.344  22.416  0.00  0.00    +0.000 OA
ATOM      9  C   UNL     1      -0.681  11.253  19.875  0.00  0.00    +0.000 C 
ATOM     10  C   UNL     1      -0.136   9.898  19.441  0.00  0.00    +0.000 C 
ATOM     11  C   UNL     1       1.107   9.608  20.294  0.00  0.00    +0.000 C 
ATOM     12  C   UNL     1       0.717   9.946  21.729  0.00  0.00    +0.000 C 
ENDBRANCH   1  11
BRANCH   3  13
ATOM     13  C   UNL     1       2.818   5.159  18.809  0.00  0.00    +0.000 C 
ATOM     14  C   UNL     1       2.714   3.752  19.497  0.00  0.00    +0.000 C 
ATOM     15  C   UNL     1       2.354   3.181  18.110  0.00  0.00    +0.000 C 
ATOM     16  C   UNL     1       1.827   4.583  17.735  0.00  0.00    +0.000 C 
BRANCH  13  17
ATOM     17  C   UNL     1       4.292   5.591  18.275  0.00  0.00    +0.000 A 
ATOM     18  C   UNL     1       4.473   6.241  17.033  0.00  0.00    +0.000 A 
ATOM     19  C   UNL     1       5.721   6.713  16.617  0.00  0.00    +0.000 A 
ATOM     20  C   UNL     1       6.828   6.526  17.430  0.00  0.00    +0.000 A 
ATOM     21  F   UNL     1       8.019   7.007  17.051  0.00  0.00    +0.000 F 
ATOM     22  C   UNL     1       6.713   5.847  18.632  0.00  0.00    +0.000 A 
ATOM     23  C   UNL     1       5.462   5.377  19.040  0.00  0.00    +0.000 A 
ENDBRANCH  13  17
ENDBRANCH   3  13
TORSDOF 3
ENDMDL
MODEL 7
REMARK VINA RESULT:      -7.6      4.367      8.163
REMARK  Name = 
REMARK  3 active torsions:
REMARK  status: ('A' for Active; 'I' for Inactive)
REMARK    1  A    between atoms: C_6  and  C_7
REMARK    2  A    between atoms: C_9  and  C_10
REMARK    3  A    between atoms: C_10  and  C_11
REMARK                            x       y       z     vdW  Elec       q    Type
REMARK                         _______ _______ _______ _____ _____    ______ ____
ROOT
ATOM      1  C   UNL     1       2.587   7.745  18.228  0.00  0.00    +0.000 A 
ATOM      2  N   UNL     1       1.783   8.046  19.220  0.00  0.00    +0.000 NA
ATOM      3  C   UNL     1       1.328   9.291  18.858  0.00  0.00    +0.000 A 
ATOM      4  N   UNL     1       1.828   9.747  17.698  0.00  0.00    +0.000 NA
ATOM      5  O   UNL     1       2.665   8.715  17.275  0.00  0.00    +0.000 OA
ENDROOT
BRANCH   1  11
ATOM      6  O   UNL     1       4.583   3.523  18.660  0.00  0.00    +0.000 OA
ATOM      7  S   UNL     1       5.175   4.829  18.854  0.00  0.00    +0.000 S 
ATOM      8  O   UNL     1       6.318   5.043  19.715  0.00  0.00    +0.000 OA
ATOM      9  C   UNL     1       5.503   5.539  17.251  0.00  0.00    +0.000 C 
ATOM     10  C   UNL     1       4.603   6.764  17.139  0.00  0.00    +0.000 C 
ATOM     11  C   UNL     1       3.363   6.505  18.004  0.00  0.00    +0.000 C 
ATOM     12  C   UNL     1       3.883   5.952  19.327  0.00  0.00    +0.000 C 
ENDBRANCH   1  11
BRANCH   3  13
ATOM     13  C   UNL     1       0.275  10.053  19.676  0.00  0.00    +0.000 C 
ATOM     14  C   UNL     1      -0.065   9.362  21.044  0.00  0.00    +0.000 C 
ATOM     15  C   UNL     1      -0.079  10.772  21.671  0.00  0.00    +0.000 C 
ATOM     16  C   UNL     1       0.876  11.218  20.542  0.00  0.00    +0.000 C 
BRANCH  13  17
ATOM     17  C   UNL     1      -0.991  10.434  18.730  0.00  0.00    +0.000 A 
ATOM     18  C   UNL     1      -1.277   9.718  17.545  0.00  0.00    +0.000 A 
ATOM     19  C   UNL     1      -2.424   9.967  16.785  0.00  0.00    +0.000 A 
ATOM     20  C   UNL     1      -3.305  10.960  17.184  0.00  0.00    +0.000 A 
ATOM     21  F   UNL     1      -4.421  11.179  16.478  0.00  0.00    +0.000 F 
ATOM     22  C   UNL     1      -3.042  11.727  18.308  0.00  0.00    +0.000 A 
ATOM     23  C   UNL     1      -1.893  11.471  19.061  0.00  0.00    +0.000 A 
ENDBRANCH  13  17
ENDBRANCH   3  13
TORSDOF 3
ENDMDL
MODEL 8
REMARK VINA RESULT:      -7.5      4.167      7.865
REMARK  Name = 
REMARK  3 active torsions:
REMARK  status: ('A' for Active; 'I' for Inactive)
REMARK    1  A    between atoms: C_6  and  C_7
REMARK    2  A    between atoms: C_9  and  C_10
REMARK    3  A    between atoms: C_10  and  C_11
REMARK                            x       y       z     vdW  Elec       q    Type
REMARK                         _______ _______ _______ _____ _____    ______ ____
ROOT
ATOM      1  C   UNL     1       2.120   6.046  20.109  0.00  0.00    +0.000 A 
ATOM      2  N   UNL     1       1.429   6.675  21.030  0.00  0.00    +0.000 NA
ATOM      3  C   UNL     1       1.406   7.961  20.547  0.00  0.00    +0.000 A 
ATOM      4  N   UNL     1       2.054   8.128  19.383  0.00  0.00    +0.000 NA
ATOM      5  O   UNL     1       2.528   6.850  19.088  0.00  0.00    +0.000 OA
ENDROOT
BRANCH   1  11
ATOM      6  O   UNL     1       4.040   1.915  18.994  0.00  0.00    +0.000 OA
ATOM      7  S   UNL     1       2.783   2.478  18.553  0.00  0.00    +0.000 S 
ATOM      8  O   UNL     1       2.161   2.104  17.301  0.00  0.00    +0.000 OA
ATOM      9  C   UNL     1       1.597   2.306  19.874  0.00  0.00    +0.000 C 
ATOM     10  C   UNL     1       1.245   3.722  20.314  0.00  0.00    +0.000 C 
ATOM     11  C   UNL     1       2.464   4.609  20.026  0.00  0.00    +0.000 C 
ATOM     12  C   UNL     1       2.920   4.247  18.617  0.00  0.00    +0.000 C 
ENDBRANCH   1  11
BRANCH   3  13
ATOM     13  C   UNL     1       0.631   9.089  21.246  0.00  0.00    +0.000 C 
ATOM     14  C   UNL     1      -0.587   8.573  22.090  0.00  0.00    +0.000 C 
ATOM     15  C   UNL     1      -0.185   9.603  23.166  0.00  0.00    +0.000 C 
ATOM     16  C   UNL     1       1.257   9.523  22.619  0.00  0.00    +0.000 C 
BRANCH  13  17
ATOM     17  C   UNL     1       0.317  10.282  20.186  0.00  0.00    +0.000 A 
ATOM     18  C   UNL     1      -0.765  10.207  19.280  0.00  0.00    +0.000 A 
ATOM     19  C   UNL     1      -1.108  11.273  18.443  0.00  0.00    +0.000 A 
ATOM     20  C   UNL     1      -0.358  12.439  18.479  0.00  0.00    +0.000 A 
ATOM     21  F   UNL     1      -0.704  13.474  17.703  0.00  0.00    +0.000 F 
ATOM     22  C   UNL     1       0.745  12.542  19.310  0.00  0.00    +0.000 A 
ATOM     23  C   UNL     1       1.081  11.471  20.143  0.00  0.00    +0.000 A 
ENDBRANCH  13  17
ENDBRANCH   3  13
TORSDOF 3
ENDMDL
MODEL 9
REMARK VINA RESULT:      -7.5      1.959      2.625
REMARK  Name = 
REMARK  3 active torsions:
REMARK  status: ('A' for Active; 'I' for Inactive)
REMARK    1  A    between atoms: C_6  and  C_7
REMARK    2  A    between atoms: C_9  and  C_10
REMARK    3  A    between atoms: C_10  and  C_11
REMARK                            x       y       z     vdW  Elec       q    Type
REMARK                         _______ _______ _______ _____ _____    ______ ____
ROOT
ATOM      1  C   UNL     1       1.699   8.875  19.182  0.00  0.00    +0.000 A 
ATOM      2  N   UNL     1       1.680   7.705  19.776  0.00  0.00    +0.000 NA
ATOM      3  C   UNL     1       2.363   6.915  18.883  0.00  0.00    +0.000 A 
ATOM      4  N   UNL     1       2.785   7.559  17.784  0.00  0.00    +0.000 NA
ATOM      5  O   UNL     1       2.346   8.868  17.984  0.00  0.00    +0.000 OA
ENDROOT
BRANCH   1  11
ATOM      6  O   UNL     1       0.632  12.662  21.735  0.00  0.00    +0.000 OA
ATOM      7  S   UNL     1      -0.174  11.489  21.474  0.00  0.00    +0.000 S 
ATOM      8  O   UNL     1      -1.220  11.051  22.371  0.00  0.00    +0.000 OA
ATOM      9  C   UNL     1      -0.830  11.616  19.820  0.00  0.00    +0.000 C 
ATOM     10  C   UNL     1      -0.207  10.473  19.029  0.00  0.00    +0.000 C 
ATOM     11  C   UNL     1       1.158  10.167  19.659  0.00  0.00    +0.000 C 
ATOM     12  C   UNL     1       0.923  10.127  21.166  0.00  0.00    +0.000 C 
ENDBRANCH   1  11
BRANCH   3  13
ATOM     13  C   UNL     1       2.684   5.440  19.166  0.00  0.00    +0.000 C 
ATOM     14  C   UNL     1       2.445   5.031  20.663  0.00  0.00    +0.000 C 
ATOM     15  C   UNL     1       1.845   3.713  20.132  0.00  0.00    +0.000 C 
ATOM     16  C   UNL     1       1.500   4.465  18.828  0.00  0.00    +0.000 C 
BRANCH  13  17
ATOM     17  C   UNL     1       4.135   5.059  18.540  0.00  0.00    +0.000 A 
ATOM     18  C   UNL     1       4.262   4.458  17.267  0.00  0.00    +0.000 A 
ATOM     19  C   UNL     1       5.508   4.229  16.675  0.00  0.00    +0.000 A 
ATOM     20  C   UNL     1       6.663   4.578  17.357  0.00  0.00    +0.000 A 
ATOM     21  F   UNL     1       7.857   4.390  16.780  0.00  0.00    +0.000 F 
ATOM     22  C   UNL     1       6.594   5.119  18.631  0.00  0.00    +0.000 A 
ATOM     23  C   UNL     1       5.344   5.344  19.215  0.00  0.00    +0.000 A 
ENDBRANCH  13  17
ENDBRANCH   3  13
TORSDOF 3
ENDMDL
