MODEL 1
REMARK VINA RESULT:      -7.9      0.000      0.000
REMARK  Name = 
REMARK  2 active torsions:
REMARK  status: ('A' for Active; 'I' for Inactive)
REMARK    1  A    between atoms: C_5  and  O_6
REMARK    2  A    between atoms: O_6  and  C_7
REMARK                            x       y       z     vdW  Elec       q    Type
REMARK                         _______ _______ _______ _____ _____    ______ ____
ROOT
ATOM      1  O   UNL     1       5.034   6.809  15.103  0.00  0.00    +0.000 OA
ATOM      2  S   UNL     1       5.966   5.715  15.252  0.00  0.00    +0.000 S 
ATOM      3  O   UNL     1       7.040   5.459  14.316  0.00  0.00    +0.000 OA
ATOM      4  N   UNL     1       5.150   4.333  15.576  0.00  0.00    +0.000 NA
ATOM      5  C   UNL     1       5.361   4.005  16.811  0.00  0.00    +0.000 C 
ATOM      6  C   UNL     1       6.265   4.824  17.616  0.00  0.00    +0.000 A 
ATOM      7  C   UNL     1       6.667   4.718  18.933  0.00  0.00    +0.000 A 
ATOM      8  C   UNL     1       7.520   5.712  19.430  0.00  0.00    +0.000 A 
ATOM      9  C   UNL     1       7.943   6.783  18.615  0.00  0.00    +0.000 A 
ATOM     10  C   UNL     1       7.523   6.879  17.288  0.00  0.00    +0.000 A 
ATOM     11  C   UNL     1       6.690   5.879  16.830  0.00  0.00    +0.000 A 
ENDROOT
BRANCH   5  12
ATOM     12  O   UNL     1       4.785   2.966  17.503  0.00  0.00    +0.000 OA
BRANCH  12  13
ATOM     13  C   UNL     1       3.549   3.223  18.130  0.00  0.00    +0.000 A 
ATOM     14  C   UNL     1       2.512   3.877  17.456  0.00  0.00    +0.000 A 
ATOM     15  C   UNL     1       1.324   4.162  18.122  0.00  0.00    +0.000 A 
ATOM     16  C   UNL     1       1.187   3.828  19.468  0.00  0.00    +0.000 A 
ATOM     17  C   UNL     1       2.240   3.207  20.142  0.00  0.00    +0.000 A 
ATOM     18 CL   UNL     1       2.069   2.830  21.813  0.00  0.00    +0.000 Cl
ATOM     19  C   UNL     1       3.430   2.901  19.480  0.00  0.00    +0.000 A 
ENDBRANCH  12  13
ENDBRANCH   5  12
TORSDOF 2
ENDMDL
MODEL 2
REMARK VINA RESULT:      -7.5      1.370      1.483
REMARK  Name = 
REMARK  2 active torsions:
REMARK  status: ('A' for Active; 'I' for Inactive)
REMARK    1  A    between atoms: C_5  and  O_6
REMARK    2  A    between atoms: O_6  and  C_7
REMARK                            x       y       z     vdW  Elec       q    Type
REMARK                         _______ _______ _______ _____ _____    ______ ____
ROOT
ATOM      1  O   UNL     1       4.503   7.011  15.904  0.00  0.00    +0.000 OA
ATOM      2  S   UNL     1       5.394   5.873  15.907  0.00  0.00    +0.000 S 
ATOM      3  O   UNL     1       6.183   5.483  14.758  0.00  0.00    +0.000 OA
ATOM      4  N   UNL     1       4.627   4.573  16.541  0.00  0.00    +0.000 NA
ATOM      5  C   UNL     1       5.130   4.320  17.707  0.00  0.00    +0.000 C 
ATOM      6  C   UNL     1       6.244   5.135  18.188  0.00  0.00    +0.000 A 
ATOM      7  C   UNL     1       6.962   5.096  19.367  0.00  0.00    +0.000 A 
ATOM      8  C   UNL     1       7.957   6.066  19.550  0.00  0.00    +0.000 A 
ATOM      9  C   UNL     1       8.206   7.048  18.567  0.00  0.00    +0.000 A 
ATOM     10  C   UNL     1       7.467   7.076  17.383  0.00  0.00    +0.000 A 
ATOM     11  C   UNL     1       6.501   6.102  17.235  0.00  0.00    +0.000 A 
ENDROOT
BRANCH   5  12
ATOM     12  O   UNL     1       4.703   3.372  18.608  0.00  0.00    +0.000 OA
BRANCH  12  13
ATOM     13  C   UNL     1       3.436   3.569  19.192  0.00  0.00    +0.000 A 
ATOM     14  C   UNL     1       2.453   2.575  19.153  0.00  0.00    +0.000 A 
ATOM     15  C   UNL     1       1.195   2.824  19.694  0.00  0.00    +0.000 A 
ATOM     16  C   UNL     1       0.909   4.074  20.238  0.00  0.00    +0.000 A 
ATOM     17  C   UNL     1       1.886   5.072  20.240  0.00  0.00    +0.000 A 
ATOM     18 CL   UNL     1       1.508   6.623  20.885  0.00  0.00    +0.000 Cl
ATOM     19  C   UNL     1       3.156   4.829  19.716  0.00  0.00    +0.000 A 
ENDBRANCH  12  13
ENDBRANCH   5  12
TORSDOF 2
ENDMDL
MODEL 3
REMARK VINA RESULT:      -7.5      3.211      5.742
REMARK  Name = 
REMARK  2 active torsions:
REMARK  status: ('A' for Active; 'I' for Inactive)
REMARK    1  A    between atoms: C_5  and  O_6
REMARK    2  A    between atoms: O_6  and  C_7
REMARK                            x       y       z     vdW  Elec       q    Type
REMARK                         _______ _______ _______ _____ _____    ______ ____
ROOT
ATOM      1  O   UNL     1       3.022   2.047  19.421  0.00  0.00    +0.000 OA
ATOM      2  S   UNL     1       2.299   2.867  18.477  0.00  0.00    +0.000 S 
ATOM      3  O   UNL     1       1.000   2.508  17.949  0.00  0.00    +0.000 OA
ATOM      4  N   UNL     1       3.300   3.330  17.266  0.00  0.00    +0.000 NA
ATOM      5  C   UNL     1       3.550   4.594  17.392  0.00  0.00    +0.000 C 
ATOM      6  C   UNL     1       2.899   5.339  18.467  0.00  0.00    +0.000 A 
ATOM      7  C   UNL     1       2.977   6.669  18.835  0.00  0.00    +0.000 A 
ATOM      8  C   UNL     1       2.255   7.069  19.967  0.00  0.00    +0.000 A 
ATOM      9  C   UNL     1       1.485   6.144  20.704  0.00  0.00    +0.000 A 
ATOM     10  C   UNL     1       1.421   4.804  20.322  0.00  0.00    +0.000 A 
ATOM     11  C   UNL     1       2.139   4.447  19.199  0.00  0.00    +0.000 A 
ENDROOT
BRANCH   5  12
ATOM     12  O   UNL     1       4.419   5.347  16.638  0.00  0.00    +0.000 OA
BRANCH  12  13
ATOM     13  C   UNL     1       5.659   5.670  17.224  0.00  0.00    +0.000 A 
ATOM     14  C   UNL     1       6.380   4.729  17.967  0.00  0.00    +0.000 A 
ATOM     15  C   UNL     1       7.576   5.098  18.576  0.00  0.00    +0.000 A 
ATOM     16  C   UNL     1       8.030   6.411  18.475  0.00  0.00    +0.000 A 
ATOM     17  C   UNL     1       7.285   7.351  17.761  0.00  0.00    +0.000 A 
ATOM     18 CL   UNL     1       7.840   8.979  17.673  0.00  0.00    +0.000 Cl
ATOM     19  C   UNL     1       6.093   6.990  17.132  0.00  0.00    +0.000 A 
ENDBRANCH  12  13
ENDBRANCH   5  12
TORSDOF 2
ENDMDL
MODEL 4
REMARK VINA RESULT:      -7.5      2.268      3.021
REMARK  Name = 
REMARK  2 active torsions:
REMARK  status: ('A' for Active; 'I' for Inactive)
REMARK    1  A    between atoms: C_5  and  O_6
REMARK    2  A    between atoms: O_6  and  C_7
REMARK                            x       y       z     vdW  Elec       q    Type
REMARK                         _______ _______ _______ _____ _____    ______ ____
ROOT
ATOM      1  O   UNL     1       7.801   4.732  18.789  0.00  0.00    +0.000 OA
ATOM      2  S   UNL     1       7.168   5.838  18.107  0.00  0.00    +0.000 S 
ATOM      3  O   UNL     1       7.792   7.135  17.954  0.00  0.00    +0.000 OA
ATOM      4  N   UNL     1       5.627   6.004  18.635  0.00  0.00    +0.000 NA
ATOM      5  C   UNL     1       4.821   5.630  17.693  0.00  0.00    +0.000 C 
ATOM      6  C   UNL     1       5.380   5.217  16.407  0.00  0.00    +0.000 A 
ATOM      7  C   UNL     1       4.775   4.775  15.247  0.00  0.00    +0.000 A 
ATOM      8  C   UNL     1       5.609   4.401  14.185  0.00  0.00    +0.000 A 
ATOM      9  C   UNL     1       7.014   4.466  14.305  0.00  0.00    +0.000 A 
ATOM     10  C   UNL     1       7.609   4.909  15.486  0.00  0.00    +0.000 A 
ATOM     11  C   UNL     1       6.757   5.276  16.508  0.00  0.00    +0.000 A 
ENDROOT
BRANCH   5  12
ATOM     12  O   UNL     1       3.452   5.526  17.765  0.00  0.00    +0.000 OA
BRANCH  12  13
ATOM     13  C   UNL     1       2.929   4.341  18.320  0.00  0.00    +0.000 A 
ATOM     14  C   UNL     1       2.484   3.291  17.509  0.00  0.00    +0.000 A 
ATOM     15  C   UNL     1       1.924   2.157  18.090  0.00  0.00    +0.000 A 
ATOM     16  C   UNL     1       1.775   2.088  19.474  0.00  0.00    +0.000 A 
ATOM     17  C   UNL     1       2.191   3.156  20.272  0.00  0.00    +0.000 A 
ATOM     18 CL   UNL     1       1.970   3.072  21.978  0.00  0.00    +0.000 Cl
ATOM     19  C   UNL     1       2.769   4.291  19.703  0.00  0.00    +0.000 A 
ENDBRANCH  12  13
ENDBRANCH   5  12
TORSDOF 2
ENDMDL
MODEL 5
REMARK VINA RESULT:      -7.3      2.509      3.375
REMARK  Name = 
REMARK  2 active torsions:
REMARK  status: ('A' for Active; 'I' for Inactive)
REMARK    1  A    between atoms: C_5  and  O_6
REMARK    2  A    between atoms: O_6  and  C_7
REMARK                            x       y       z     vdW  Elec       q    Type
REMARK                         _______ _______ _______ _____ _____    ______ ____
ROOT
ATOM      1  O   UNL     1       7.326   4.764  19.125  0.00  0.00    +0.000 OA
ATOM      2  S   UNL     1       7.011   5.903  18.294  0.00  0.00    +0.000 S 
ATOM      3  O   UNL     1       7.911   7.021  18.111  0.00  0.00    +0.000 OA
ATOM      4  N   UNL     1       5.500   6.435  18.633  0.00  0.00    +0.000 NA
ATOM      5  C   UNL     1       4.723   6.144  17.640  0.00  0.00    +0.000 C 
ATOM      6  C   UNL     1       5.295   5.498  16.460  0.00  0.00    +0.000 A 
ATOM      7  C   UNL     1       4.718   5.078  15.277  0.00  0.00    +0.000 A 
ATOM      8  C   UNL     1       5.546   4.436  14.347  0.00  0.00    +0.000 A 
ATOM      9  C   UNL     1       6.915   4.221  14.616  0.00  0.00    +0.000 A 
ATOM     10  C   UNL     1       7.481   4.647  15.818  0.00  0.00    +0.000 A 
ATOM     11  C   UNL     1       6.638   5.282  16.707  0.00  0.00    +0.000 A 
ENDROOT
BRANCH   5  12
ATOM     12  O   UNL     1       3.362   6.332  17.568  0.00  0.00    +0.000 OA
BRANCH  12  13
ATOM     13  C   UNL     1       2.571   5.646  18.511  0.00  0.00    +0.000 A 
ATOM     14  C   UNL     1       2.393   6.139  19.808  0.00  0.00    +0.000 A 
ATOM     15  C   UNL     1       1.649   5.409  20.730  0.00  0.00    +0.000 A 
ATOM     16  C   UNL     1       1.116   4.173  20.369  0.00  0.00    +0.000 A 
ATOM     17  C   UNL     1       1.330   3.673  19.083  0.00  0.00    +0.000 A 
ATOM     18 CL   UNL     1       0.695   2.130  18.660  0.00  0.00    +0.000 Cl
ATOM     19  C   UNL     1       2.060   4.403  18.144  0.00  0.00    +0.000 A 
ENDBRANCH  12  13
ENDBRANCH   5  12
TORSDOF 2
ENDMDL
MODEL 6
REMARK VINA RESULT:      -7.3      2.388      3.410
REMARK  Name = 
REMARK  2 active torsions:
REMARK  status: ('A' for Active; 'I' for Inactive)
REMARK    1  A    between atoms: C_5  and  O_6
REMARK    2  A    between atoms: O_6  and  C_7
REMARK                            x       y       z     vdW  Elec       q    Type
REMARK                         _______ _______ _______ _____ _____    ______ ____
ROOT
ATOM      1  O   UNL     1       8.055   4.410  17.155  0.00  0.00    +0.000 OA
ATOM      2  S   UNL     1       7.078   5.314  16.592  0.00  0.00    +0.000 S 
ATOM      3  O   UNL     1       7.258   6.749  16.555  0.00  0.00    +0.000 OA
ATOM      4  N   UNL     1       5.588   4.938  17.154  0.00  0.00    +0.000 NA
ATOM      5  C   UNL     1       4.900   4.411  16.193  0.00  0.00    +0.000 C 
ATOM      6  C   UNL     1       5.503   4.309  14.866  0.00  0.00    +0.000 A 
ATOM      7  C   UNL     1       5.017   3.801  13.677  0.00  0.00    +0.000 A 
ATOM      8  C   UNL     1       5.879   3.803  12.572  0.00  0.00    +0.000 A 
ATOM      9  C   UNL     1       7.197   4.298  12.678  0.00  0.00    +0.000 A 
ATOM     10  C   UNL     1       7.674   4.803  13.888  0.00  0.00    +0.000 A 
ATOM     11  C   UNL     1       6.795   4.792  14.952  0.00  0.00    +0.000 A 
ENDROOT
BRANCH   5  12
ATOM     12  O   UNL     1       3.636   3.874  16.273  0.00  0.00    +0.000 OA
BRANCH  12  13
ATOM     13  C   UNL     1       3.206   3.440  17.543  0.00  0.00    +0.000 A 
ATOM     14  C   UNL     1       3.310   2.100  17.930  0.00  0.00    +0.000 A 
ATOM     15  C   UNL     1       2.827   1.697  19.171  0.00  0.00    +0.000 A 
ATOM     16  C   UNL     1       2.206   2.623  20.007  0.00  0.00    +0.000 A 
ATOM     17  C   UNL     1       2.075   3.952  19.597  0.00  0.00    +0.000 A 
ATOM     18 CL   UNL     1       1.276   5.078  20.626  0.00  0.00    +0.000 Cl
ATOM     19  C   UNL     1       2.571   4.371  18.363  0.00  0.00    +0.000 A 
ENDBRANCH  12  13
ENDBRANCH   5  12
TORSDOF 2
ENDMDL
MODEL 7
REMARK VINA RESULT:      -7.2      4.010      5.641
REMARK  Name = 
REMARK  2 active torsions:
REMARK  status: ('A' for Active; 'I' for Inactive)
REMARK    1  A    between atoms: C_5  and  O_6
REMARK    2  A    between atoms: O_6  and  C_7
REMARK                            x       y       z     vdW  Elec       q    Type
REMARK                         _______ _______ _______ _____ _____    ______ ____
ROOT
ATOM      1  O   UNL     1       5.762   3.848  18.967  0.00  0.00    +0.000 OA
ATOM      2  S   UNL     1       4.709   4.510  18.230  0.00  0.00    +0.000 S 
ATOM      3  O   UNL     1       4.749   4.703  16.796  0.00  0.00    +0.000 OA
ATOM      4  N   UNL     1       4.298   5.904  18.983  0.00  0.00    +0.000 NA
ATOM      5  C   UNL     1       3.130   5.758  19.520  0.00  0.00    +0.000 C 
ATOM      6  C   UNL     1       2.413   4.499  19.325  0.00  0.00    +0.000 A 
ATOM      7  C   UNL     1       1.179   4.071  19.772  0.00  0.00    +0.000 A 
ATOM      8  C   UNL     1       0.792   2.764  19.447  0.00  0.00    +0.000 A 
ATOM      9  C   UNL     1       1.639   1.918  18.699  0.00  0.00    +0.000 A 
ATOM     10  C   UNL     1       2.886   2.365  18.259  0.00  0.00    +0.000 A 
ATOM     11  C   UNL     1       3.230   3.660  18.591  0.00  0.00    +0.000 A 
ENDROOT
BRANCH   5  12
ATOM     12  O   UNL     1       2.466   6.658  20.322  0.00  0.00    +0.000 OA
BRANCH  12  13
ATOM     13  C   UNL     1       1.929   7.799  19.693  0.00  0.00    +0.000 A 
ATOM     14  C   UNL     1       2.196   8.085  18.350  0.00  0.00    +0.000 A 
ATOM     15  C   UNL     1       1.692   9.248  17.776  0.00  0.00    +0.000 A 
ATOM     16  C   UNL     1       0.956  10.141  18.551  0.00  0.00    +0.000 A 
ATOM     17  C   UNL     1       0.725   9.864  19.900  0.00  0.00    +0.000 A 
ATOM     18 CL   UNL     1      -0.158  10.993  20.855  0.00  0.00    +0.000 Cl
ATOM     19  C   UNL     1       1.210   8.694  20.483  0.00  0.00    +0.000 A 
ENDBRANCH  12  13
ENDBRANCH   5  12
TORSDOF 2
ENDMDL
MODEL 8
REMARK VINA RESULT:      -7.2      3.356      4.068
REMARK  Name = 
REMARK  2 active torsions:
REMARK  status: ('A' for Active; 'I' for Inactive)
REMARK    1  A    between atoms: C_5  and  O_6
REMARK    2  A    between atoms: O_6  and  C_7
REMARK                            x       y       z     vdW  Elec       q    Type
REMARK                         _______ _______ _______ _____ _____    ______ ____
ROOT
ATOM      1  O   UNL     1       8.395   4.403  18.590  0.00  0.00    +0.000 OA
ATOM      2  S   UNL     1       7.524   5.493  18.213  0.00  0.00    +0.000 S 
ATOM      3  O   UNL     1       7.977   6.863  18.100  0.00  0.00    +0.000 OA
ATOM      4  N   UNL     1       6.138   5.420  19.080  0.00  0.00    +0.000 NA
ATOM      5  C   UNL     1       5.174   5.057  18.295  0.00  0.00    +0.000 C 
ATOM      6  C   UNL     1       5.458   4.852  16.876  0.00  0.00    +0.000 A 
ATOM      7  C   UNL     1       4.644   4.470  15.827  0.00  0.00    +0.000 A 
ATOM      8  C   UNL     1       5.243   4.312  14.570  0.00  0.00    +0.000 A 
ATOM      9  C   UNL     1       6.626   4.528  14.389  0.00  0.00    +0.000 A 
ATOM     10  C   UNL     1       7.434   4.909  15.461  0.00  0.00    +0.000 A 
ATOM     11  C   UNL     1       6.810   5.062  16.682  0.00  0.00    +0.000 A 
ENDROOT
BRANCH   5  12
ATOM     12  O   UNL     1       3.873   4.785  18.648  0.00  0.00    +0.000 OA
BRANCH  12  13
ATOM     13  C   UNL     1       3.108   5.859  19.145  0.00  0.00    +0.000 A 
ATOM     14  C   UNL     1       2.396   5.753  20.345  0.00  0.00    +0.000 A 
ATOM     15  C   UNL     1       1.609   6.816  20.779  0.00  0.00    +0.000 A 
ATOM     16  C   UNL     1       1.502   7.964  19.997  0.00  0.00    +0.000 A 
ATOM     17  C   UNL     1       2.188   8.046  18.784  0.00  0.00    +0.000 A 
ATOM     18 CL   UNL     1       2.020   9.458  17.812  0.00  0.00    +0.000 Cl
ATOM     19  C   UNL     1       2.994   6.995  18.346  0.00  0.00    +0.000 A 
ENDBRANCH  12  13
ENDBRANCH   5  12
TORSDOF 2
ENDMDL
MODEL 9
REMARK VINA RESULT:      -7.2      3.820      5.194
REMARK  Name = 
REMARK  2 active torsions:
REMARK  status: ('A' for Active; 'I' for Inactive)
REMARK    1  A    between atoms: C_5  and  O_6
REMARK    2  A    between atoms: O_6  and  C_7
REMARK                            x       y       z     vdW  Elec       q    Type
REMARK                         _______ _______ _______ _____ _____    ______ ____
ROOT
ATOM      1  O   UNL     1       6.106   5.031  19.818  0.00  0.00    +0.000 OA
ATOM      2  S   UNL     1       5.769   4.927  18.416  0.00  0.00    +0.000 S 
ATOM      3  O   UNL     1       6.680   4.405  17.420  0.00  0.00    +0.000 OA
ATOM      4  N   UNL     1       5.105   6.332  17.902  0.00  0.00    +0.000 NA
ATOM      5  C   UNL     1       3.841   6.144  17.692  0.00  0.00    +0.000 C 
ATOM      6  C   UNL     1       3.286   4.805  17.878  0.00  0.00    +0.000 A 
ATOM      7  C   UNL     1       2.001   4.320  17.732  0.00  0.00    +0.000 A 
ATOM      8  C   UNL     1       1.781   2.970  18.041  0.00  0.00    +0.000 A 
ATOM      9  C   UNL     1       2.834   2.145  18.490  0.00  0.00    +0.000 A 
ATOM     10  C   UNL     1       4.125   2.652  18.637  0.00  0.00    +0.000 A 
ATOM     11  C   UNL     1       4.306   3.982  18.317  0.00  0.00    +0.000 A 
ENDROOT
BRANCH   5  12
ATOM     12  O   UNL     1       2.907   7.091  17.346  0.00  0.00    +0.000 OA
BRANCH  12  13
ATOM     13  C   UNL     1       2.310   7.816  18.397  0.00  0.00    +0.000 A 
ATOM     14  C   UNL     1       2.236   7.292  19.692  0.00  0.00    +0.000 A 
ATOM     15  C   UNL     1       1.593   8.012  20.695  0.00  0.00    +0.000 A 
ATOM     16  C   UNL     1       0.993   9.233  20.395  0.00  0.00    +0.000 A 
ATOM     17  C   UNL     1       1.041   9.730  19.091  0.00  0.00    +0.000 A 
ATOM     18 CL   UNL     1       0.266  11.225  18.728  0.00  0.00    +0.000 Cl
ATOM     19  C   UNL     1       1.698   9.026  18.082  0.00  0.00    +0.000 A 
ENDBRANCH  12  13
ENDBRANCH   5  12
TORSDOF 2
ENDMDL
