MODEL 1
REMARK VINA RESULT:      -6.7      0.000      0.000
REMARK  Name = 
REMARK  15 active torsions:
REMARK  status: ('A' for Active; 'I' for Inactive)
REMARK    1  A    between atoms: CD1_1  and  CG_2
REMARK    2  A    between atoms: CG_2  and  CD2_3
REMARK    3  A    between atoms: CG_2  and  CB_4
REMARK    4  A    between atoms: CB_4  and  CA_5
REMARK    5  A    between atoms: CA_5  and  N_6
REMARK    6  A    between atoms: CA_5  and  C_17
REMARK    7  A    between atoms: C_7  and  C_9
REMARK    8  A    between atoms: C_9  and  O_10
REMARK    9  A    between atoms: C_9  and  C_11
REMARK   10  A    between atoms: C_11  and  N_12
REMARK   11  A    between atoms: C_11  and  C_13
REMARK   12  A    between atoms: C_13  and  C_14
REMARK   13  A    between atoms: C_14  and  C_15
REMARK   14  A    between atoms: C_14  and  C_16
REMARK   15  A    between atoms: C_17  and  OXT_19
REMARK                            x       y       z     vdW  Elec       q    Type
REMARK                         _______ _______ _______ _____ _____    ______ ____
ROOT
ATOM      1  N   LEU A   1       5.573   3.489  18.803  0.00  0.00    +0.000 N 
ATOM      2  C   UNK A   0       5.835   4.841  18.680  0.00  0.00    +0.000 C 
ATOM      3  O   UNK A   0       5.066   5.692  19.110  0.00  0.00    +0.000 OA
ATOM      4  H   LEU A   1       6.127   2.883  18.196  0.00  0.00    +0.000 HD
ENDROOT
BRANCH   1   5
ATOM      5  CA  LEU A   1       4.243   3.040  19.266  0.00  0.00    +0.000 C 
BRANCH   5   6
ATOM      6  C   LEU A   1       4.434   2.216  20.548  0.00  0.00    +0.000 C 
ATOM      7  O   LEU A   1       5.330   1.415  20.757  0.00  0.00    +0.000 OA
BRANCH   6   8
ATOM      8  OXT LEU A   1       3.408   2.388  21.425  0.00  0.00    +0.000 OA
ATOM      9  HXT LEU A   1       2.853   1.579  21.448  0.00  0.00    +0.000 HD
ENDBRANCH   6   8
ENDBRANCH   5   6
BRANCH   5  10
ATOM     10  CB  LEU A   1       3.495   2.312  18.137  0.00  0.00    +0.000 C 
BRANCH  10  12
ATOM     11  CD1 LEU A   1       1.009   2.383  18.804  0.00  0.00    +0.000 C 
ATOM     12  CG  LEU A   1       2.077   2.833  17.806  0.00  0.00    +0.000 C 
ATOM     13  CD2 LEU A   1       2.089   4.365  17.746  0.00  0.00    +0.000 C 
ENDBRANCH  10  12
ENDBRANCH   5  10
ENDBRANCH   1   5
BRANCH   2  14
ATOM     14  C   UNK A   0       7.191   5.169  18.011  0.00  0.00    +0.000 C 
BRANCH  14  15
ATOM     15  O   UNK A   0       7.993   3.990  17.858  0.00  0.00    +0.000 OA
ATOM     16  H   UNK A   0       7.558   3.394  17.228  0.00  0.00    +0.000 HD
ENDBRANCH  14  15
BRANCH  14  17
ATOM     17  C   UNK A   0       7.007   5.958  16.675  0.00  0.00    +0.000 C 
BRANCH  17  18
ATOM     18  N   UNK A   0       6.666   7.365  16.937  0.00  0.00    +0.000 NA
ATOM     19  H   UNK A   0       7.162   7.671  17.783  0.00  0.00    +0.000 HD
ATOM     20  H   UNK A   0       5.676   7.469  17.149  0.00  0.00    +0.000 HD
ENDBRANCH  17  18
BRANCH  17  21
ATOM     21  C   UNK A   0       5.976   5.284  15.731  0.00  0.00    +0.000 C 
BRANCH  21  22
ATOM     22  C   UNK A   0       6.545   4.390  14.607  0.00  0.00    +0.000 C 
ATOM     23  C   UNK A   0       5.463   3.849  13.673  0.00  0.00    +0.000 C 
ATOM     24  C   UNK A   0       7.569   5.187  13.791  0.00  0.00    +0.000 C 
ENDBRANCH  21  22
ENDBRANCH  17  21
ENDBRANCH  14  17
ENDBRANCH   2  14
TORSDOF 11
ENDMDL
MODEL 2
REMARK VINA RESULT:      -6.6      2.316      5.785
REMARK  Name = 
REMARK  15 active torsions:
REMARK  status: ('A' for Active; 'I' for Inactive)
REMARK    1  A    between atoms: CD1_1  and  CG_2
REMARK    2  A    between atoms: CG_2  and  CD2_3
REMARK    3  A    between atoms: CG_2  and  CB_4
REMARK    4  A    between atoms: CB_4  and  CA_5
REMARK    5  A    between atoms: CA_5  and  N_6
REMARK    6  A    between atoms: CA_5  and  C_17
REMARK    7  A    between atoms: C_7  and  C_9
REMARK    8  A    between atoms: C_9  and  O_10
REMARK    9  A    between atoms: C_9  and  C_11
REMARK   10  A    between atoms: C_11  and  N_12
REMARK   11  A    between atoms: C_11  and  C_13
REMARK   12  A    between atoms: C_13  and  C_14
REMARK   13  A    between atoms: C_14  and  C_15
REMARK   14  A    between atoms: C_14  and  C_16
REMARK   15  A    between atoms: C_17  and  OXT_19
REMARK                            x       y       z     vdW  Elec       q    Type
REMARK                         _______ _______ _______ _____ _____    ______ ____
ROOT
ATOM      1  N   LEU A   1       5.444   3.580  18.095  0.00  0.00    +0.000 N 
ATOM      2  C   UNK A   0       4.154   3.122  17.902  0.00  0.00    +0.000 C 
ATOM      3  O   UNK A   0       3.461   3.511  16.970  0.00  0.00    +0.000 OA
ATOM      4  H   LEU A   1       5.833   3.403  19.022  0.00  0.00    +0.000 HD
ENDROOT
BRANCH   1   5
ATOM      5  CA  LEU A   1       5.942   4.722  17.300  0.00  0.00    +0.000 C 
BRANCH   5   6
ATOM      6  C   LEU A   1       7.420   4.466  16.965  0.00  0.00    +0.000 C 
ATOM      7  O   LEU A   1       8.284   4.128  17.757  0.00  0.00    +0.000 OA
BRANCH   6   8
ATOM      8  OXT LEU A   1       7.712   4.770  15.672  0.00  0.00    +0.000 OA
ATOM      9  HXT LEU A   1       6.931   5.180  15.243  0.00  0.00    +0.000 HD
ENDBRANCH   6   8
ENDBRANCH   5   6
BRANCH   5  10
ATOM     10  CB  LEU A   1       5.666   6.049  18.026  0.00  0.00    +0.000 C 
BRANCH  10  12
ATOM     11  CD1 LEU A   1       4.802   6.872  15.745  0.00  0.00    +0.000 C 
ATOM     12  CG  LEU A   1       4.817   7.088  17.258  0.00  0.00    +0.000 C 
ATOM     13  CD2 LEU A   1       3.375   7.065  17.779  0.00  0.00    +0.000 C 
ENDBRANCH  10  12
ENDBRANCH   5  10
ENDBRANCH   1   5
BRANCH   2  14
ATOM     14  C   UNK A   0       3.699   2.052  18.922  0.00  0.00    +0.000 C 
BRANCH  14  15
ATOM     15  O   UNK A   0       4.251   0.766  18.608  0.00  0.00    +0.000 OA
ATOM     16  H   UNK A   0       5.174   0.739  18.907  0.00  0.00    +0.000 HD
ENDBRANCH  14  15
BRANCH  14  17
ATOM     17  C   UNK A   0       3.982   2.492  20.395  0.00  0.00    +0.000 C 
BRANCH  17  18
ATOM     18  N   UNK A   0       5.079   1.705  20.978  0.00  0.00    +0.000 NA
ATOM     19  H   UNK A   0       5.973   2.130  20.701  0.00  0.00    +0.000 HD
ATOM     20  H   UNK A   0       5.096   0.761  20.597  0.00  0.00    +0.000 HD
ENDBRANCH  17  18
BRANCH  17  21
ATOM     21  C   UNK A   0       2.708   2.443  21.279  0.00  0.00    +0.000 C 
BRANCH  21  22
ATOM     22  C   UNK A   0       1.711   3.614  21.125  0.00  0.00    +0.000 C 
ATOM     23  C   UNK A   0       2.393   4.931  20.757  0.00  0.00    +0.000 C 
ATOM     24  C   UNK A   0       0.673   3.263  20.052  0.00  0.00    +0.000 C 
ENDBRANCH  21  22
ENDBRANCH  17  21
ENDBRANCH  14  17
ENDBRANCH   2  14
TORSDOF 11
ENDMDL
MODEL 3
REMARK VINA RESULT:      -6.6      1.171      1.665
REMARK  Name = 
REMARK  15 active torsions:
REMARK  status: ('A' for Active; 'I' for Inactive)
REMARK    1  A    between atoms: CD1_1  and  CG_2
REMARK    2  A    between atoms: CG_2  and  CD2_3
REMARK    3  A    between atoms: CG_2  and  CB_4
REMARK    4  A    between atoms: CB_4  and  CA_5
REMARK    5  A    between atoms: CA_5  and  N_6
REMARK    6  A    between atoms: CA_5  and  C_17
REMARK    7  A    between atoms: C_7  and  C_9
REMARK    8  A    between atoms: C_9  and  O_10
REMARK    9  A    between atoms: C_9  and  C_11
REMARK   10  A    between atoms: C_11  and  N_12
REMARK   11  A    between atoms: C_11  and  C_13
REMARK   12  A    between atoms: C_13  and  C_14
REMARK   13  A    between atoms: C_14  and  C_15
REMARK   14  A    between atoms: C_14  and  C_16
REMARK   15  A    between atoms: C_17  and  OXT_19
REMARK                            x       y       z     vdW  Elec       q    Type
REMARK                         _______ _______ _______ _____ _____    ______ ____
ROOT
ATOM      1  N   LEU A   1       5.528   3.691  18.509  0.00  0.00    +0.000 N 
ATOM      2  C   UNK A   0       6.251   4.863  18.626  0.00  0.00    +0.000 C 
ATOM      3  O   UNK A   0       6.157   5.586  19.611  0.00  0.00    +0.000 OA
ATOM      4  H   LEU A   1       5.475   3.307  17.565  0.00  0.00    +0.000 HD
ENDROOT
BRANCH   1   5
ATOM      5  CA  LEU A   1       4.453   3.393  19.479  0.00  0.00    +0.000 C 
BRANCH   5   6
ATOM      6  C   LEU A   1       4.674   1.971  20.018  0.00  0.00    +0.000 C 
ATOM      7  O   LEU A   1       5.089   1.683  21.128  0.00  0.00    +0.000 OA
BRANCH   6   8
ATOM      8  OXT LEU A   1       4.460   1.023  19.065  0.00  0.00    +0.000 OA
ATOM      9  HXT LEU A   1       4.183   0.184  19.489  0.00  0.00    +0.000 HD
ENDBRANCH   6   8
ENDBRANCH   5   6
BRANCH   5  10
ATOM     10  CB  LEU A   1       3.072   3.637  18.849  0.00  0.00    +0.000 C 
BRANCH  10  12
ATOM     11  CD1 LEU A   1       1.156   4.382  20.400  0.00  0.00    +0.000 C 
ATOM     12  CG  LEU A   1       1.848   3.215  19.694  0.00  0.00    +0.000 C 
ATOM     13  CD2 LEU A   1       0.827   2.496  18.802  0.00  0.00    +0.000 C 
ENDBRANCH  10  12
ENDBRANCH   5  10
ENDBRANCH   1   5
BRANCH   2  14
ATOM     14  C   UNK A   0       7.211   5.141  17.446  0.00  0.00    +0.000 C 
BRANCH  14  15
ATOM     15  O   UNK A   0       8.146   4.068  17.273  0.00  0.00    +0.000 OA
ATOM     16  H   UNK A   0       8.333   3.963  16.326  0.00  0.00    +0.000 HD
ENDBRANCH  14  15
BRANCH  14  17
ATOM     17  C   UNK A   0       6.436   5.490  16.133  0.00  0.00    +0.000 C 
BRANCH  17  18
ATOM     18  N   UNK A   0       5.083   5.979  16.435  0.00  0.00    +0.000 NA
ATOM     19  H   UNK A   0       5.003   6.122  17.450  0.00  0.00    +0.000 HD
ATOM     20  H   UNK A   0       4.380   5.279  16.204  0.00  0.00    +0.000 HD
ENDBRANCH  17  18
BRANCH  17  21
ATOM     21  C   UNK A   0       6.408   4.303  15.134  0.00  0.00    +0.000 C 
BRANCH  21  22
ATOM     22  C   UNK A   0       6.467   4.659  13.632  0.00  0.00    +0.000 C 
ATOM     23  C   UNK A   0       7.824   5.219  13.206  0.00  0.00    +0.000 C 
ATOM     24  C   UNK A   0       6.148   3.412  12.799  0.00  0.00    +0.000 C 
ENDBRANCH  21  22
ENDBRANCH  17  21
ENDBRANCH  14  17
ENDBRANCH   2  14
TORSDOF 11
ENDMDL
MODEL 4
REMARK VINA RESULT:      -6.6      2.202      6.051
REMARK  Name = 
REMARK  15 active torsions:
REMARK  status: ('A' for Active; 'I' for Inactive)
REMARK    1  A    between atoms: CD1_1  and  CG_2
REMARK    2  A    between atoms: CG_2  and  CD2_3
REMARK    3  A    between atoms: CG_2  and  CB_4
REMARK    4  A    between atoms: CB_4  and  CA_5
REMARK    5  A    between atoms: CA_5  and  N_6
REMARK    6  A    between atoms: CA_5  and  C_17
REMARK    7  A    between atoms: C_7  and  C_9
REMARK    8  A    between atoms: C_9  and  O_10
REMARK    9  A    between atoms: C_9  and  C_11
REMARK   10  A    between atoms: C_11  and  N_12
REMARK   11  A    between atoms: C_11  and  C_13
REMARK   12  A    between atoms: C_13  and  C_14
REMARK   13  A    between atoms: C_14  and  C_15
REMARK   14  A    between atoms: C_14  and  C_16
REMARK   15  A    between atoms: C_17  and  OXT_19
REMARK                            x       y       z     vdW  Elec       q    Type
REMARK                         _______ _______ _______ _____ _____    ______ ____
ROOT
ATOM      1  N   LEU A   1       5.236   3.431  16.301  0.00  0.00    +0.000 N 
ATOM      2  C   UNK A   0       4.490   4.458  16.848  0.00  0.00    +0.000 C 
ATOM      3  O   UNK A   0       4.597   5.615  16.459  0.00  0.00    +0.000 OA
ATOM      4  H   LEU A   1       5.269   2.575  16.857  0.00  0.00    +0.000 HD
ENDROOT
BRANCH   1   5
ATOM      5  CA  LEU A   1       6.346   3.743  15.376  0.00  0.00    +0.000 C 
BRANCH   5   6
ATOM      6  C   LEU A   1       7.346   4.645  16.115  0.00  0.00    +0.000 C 
ATOM      7  O   LEU A   1       7.954   4.357  17.132  0.00  0.00    +0.000 OA
BRANCH   6   8
ATOM      8  OXT LEU A   1       7.412   5.890  15.569  0.00  0.00    +0.000 OA
ATOM      9  HXT LEU A   1       6.523   6.304  15.580  0.00  0.00    +0.000 HD
ENDBRANCH   6   8
ENDBRANCH   5   6
BRANCH   5  10
ATOM     10  CB  LEU A   1       5.806   4.322  14.058  0.00  0.00    +0.000 C 
BRANCH  10  12
ATOM     11  CD1 LEU A   1       4.888   3.296  11.882  0.00  0.00    +0.000 C 
ATOM     12  CG  LEU A   1       6.109   3.512  12.777  0.00  0.00    +0.000 C 
ATOM     13  CD2 LEU A   1       7.202   4.219  11.965  0.00  0.00    +0.000 C 
ENDBRANCH  10  12
ENDBRANCH   5  10
ENDBRANCH   1   5
BRANCH   2  14
ATOM     14  C   UNK A   0       3.489   4.008  17.938  0.00  0.00    +0.000 C 
BRANCH  14  15
ATOM     15  O   UNK A   0       2.794   2.817  17.546  0.00  0.00    +0.000 OA
ATOM     16  H   UNK A   0       2.920   2.679  16.593  0.00  0.00    +0.000 HD
ENDBRANCH  14  15
BRANCH  14  17
ATOM     17  C   UNK A   0       4.169   3.882  19.340  0.00  0.00    +0.000 C 
BRANCH  17  18
ATOM     18  N   UNK A   0       5.594   3.545  19.205  0.00  0.00    +0.000 NA
ATOM     19  H   UNK A   0       6.039   4.235  18.586  0.00  0.00    +0.000 HD
ATOM     20  H   UNK A   0       5.716   2.646  18.743  0.00  0.00    +0.000 HD
ENDBRANCH  17  18
BRANCH  17  21
ATOM     21  C   UNK A   0       3.428   2.881  20.265  0.00  0.00    +0.000 C 
BRANCH  21  22
ATOM     22  C   UNK A   0       2.246   3.441  21.088  0.00  0.00    +0.000 C 
ATOM     23  C   UNK A   0       2.184   4.968  21.077  0.00  0.00    +0.000 C 
ATOM     24  C   UNK A   0       0.930   2.876  20.540  0.00  0.00    +0.000 C 
ENDBRANCH  21  22
ENDBRANCH  17  21
ENDBRANCH  14  17
ENDBRANCH   2  14
TORSDOF 11
ENDMDL
MODEL 5
REMARK VINA RESULT:      -6.6      0.724      1.190
REMARK  Name = 
REMARK  15 active torsions:
REMARK  status: ('A' for Active; 'I' for Inactive)
REMARK    1  A    between atoms: CD1_1  and  CG_2
REMARK    2  A    between atoms: CG_2  and  CD2_3
REMARK    3  A    between atoms: CG_2  and  CB_4
REMARK    4  A    between atoms: CB_4  and  CA_5
REMARK    5  A    between atoms: CA_5  and  N_6
REMARK    6  A    between atoms: CA_5  and  C_17
REMARK    7  A    between atoms: C_7  and  C_9
REMARK    8  A    between atoms: C_9  and  O_10
REMARK    9  A    between atoms: C_9  and  C_11
REMARK   10  A    between atoms: C_11  and  N_12
REMARK   11  A    between atoms: C_11  and  C_13
REMARK   12  A    between atoms: C_13  and  C_14
REMARK   13  A    between atoms: C_14  and  C_15
REMARK   14  A    between atoms: C_14  and  C_16
REMARK   15  A    between atoms: C_17  and  OXT_19
REMARK                            x       y       z     vdW  Elec       q    Type
REMARK                         _______ _______ _______ _____ _____    ______ ____
ROOT
ATOM      1  N   LEU A   1       5.416   3.542  18.670  0.00  0.00    +0.000 N 
ATOM      2  C   UNK A   0       5.859   4.831  18.898  0.00  0.00    +0.000 C 
ATOM      3  O   UNK A   0       5.269   5.594  19.654  0.00  0.00    +0.000 OA
ATOM      4  H   LEU A   1       5.811   3.088  17.845  0.00  0.00    +0.000 HD
ENDROOT
BRANCH   1   5
ATOM      5  CA  LEU A   1       4.089   3.123  19.168  0.00  0.00    +0.000 C 
BRANCH   5   6
ATOM      6  C   LEU A   1       4.299   2.225  20.396  0.00  0.00    +0.000 C 
ATOM      7  O   LEU A   1       3.663   2.275  21.436  0.00  0.00    +0.000 OA
BRANCH   6   8
ATOM      8  OXT LEU A   1       5.377   1.407  20.255  0.00  0.00    +0.000 OA
ATOM      9  HXT LEU A   1       5.761   1.210  21.136  0.00  0.00    +0.000 HD
ENDBRANCH   6   8
ENDBRANCH   5   6
BRANCH   5  10
ATOM     10  CB  LEU A   1       3.262   2.487  18.038  0.00  0.00    +0.000 C 
BRANCH  10  12
ATOM     11  CD1 LEU A   1       0.812   2.557  18.826  0.00  0.00    +0.000 C 
ATOM     12  CG  LEU A   1       1.845   3.063  17.817  0.00  0.00    +0.000 C 
ATOM     13  CD2 LEU A   1       1.892   4.594  17.879  0.00  0.00    +0.000 C 
ENDBRANCH  10  12
ENDBRANCH   5  10
ENDBRANCH   1   5
BRANCH   2  14
ATOM     14  C   UNK A   0       7.173   5.193  18.167  0.00  0.00    +0.000 C 
BRANCH  14  15
ATOM     15  O   UNK A   0       8.004   4.039  17.990  0.00  0.00    +0.000 OA
ATOM     16  H   UNK A   0       8.845   4.183  18.454  0.00  0.00    +0.000 HD
ENDBRANCH  14  15
BRANCH  14  17
ATOM     17  C   UNK A   0       6.905   5.960  16.831  0.00  0.00    +0.000 C 
BRANCH  17  18
ATOM     18  N   UNK A   0       5.504   6.400  16.748  0.00  0.00    +0.000 NA
ATOM     19  H   UNK A   0       4.916   5.585  16.530  0.00  0.00    +0.000 HD
ATOM     20  H   UNK A   0       5.368   7.049  15.975  0.00  0.00    +0.000 HD
ENDBRANCH  17  18
BRANCH  17  21
ATOM     21  C   UNK A   0       7.321   5.134  15.585  0.00  0.00    +0.000 C 
BRANCH  21  22
ATOM     22  C   UNK A   0       6.180   4.615  14.683  0.00  0.00    +0.000 C 
ATOM     23  C   UNK A   0       6.638   4.320  13.255  0.00  0.00    +0.000 C 
ATOM     24  C   UNK A   0       5.581   3.345  15.297  0.00  0.00    +0.000 C 
ENDBRANCH  21  22
ENDBRANCH  17  21
ENDBRANCH  14  17
ENDBRANCH   2  14
TORSDOF 11
ENDMDL
MODEL 6
REMARK VINA RESULT:      -6.5      2.180      6.186
REMARK  Name = 
REMARK  15 active torsions:
REMARK  status: ('A' for Active; 'I' for Inactive)
REMARK    1  A    between atoms: CD1_1  and  CG_2
REMARK    2  A    between atoms: CG_2  and  CD2_3
REMARK    3  A    between atoms: CG_2  and  CB_4
REMARK    4  A    between atoms: CB_4  and  CA_5
REMARK    5  A    between atoms: CA_5  and  N_6
REMARK    6  A    between atoms: CA_5  and  C_17
REMARK    7  A    between atoms: C_7  and  C_9
REMARK    8  A    between atoms: C_9  and  O_10
REMARK    9  A    between atoms: C_9  and  C_11
REMARK   10  A    between atoms: C_11  and  N_12
REMARK   11  A    between atoms: C_11  and  C_13
REMARK   12  A    between atoms: C_13  and  C_14
REMARK   13  A    between atoms: C_14  and  C_15
REMARK   14  A    between atoms: C_14  and  C_16
REMARK   15  A    between atoms: C_17  and  OXT_19
REMARK                            x       y       z     vdW  Elec       q    Type
REMARK                         _______ _______ _______ _____ _____    ______ ____
ROOT
ATOM      1  N   LEU A   1       5.432   3.462  16.568  0.00  0.00    +0.000 N 
ATOM      2  C   UNK A   0       4.492   3.488  17.581  0.00  0.00    +0.000 C 
ATOM      3  O   UNK A   0       4.243   4.511  18.207  0.00  0.00    +0.000 OA
ATOM      4  H   LEU A   1       5.749   2.531  16.295  0.00  0.00    +0.000 HD
ENDROOT
BRANCH   1   5
ATOM      5  CA  LEU A   1       6.320   4.625  16.363  0.00  0.00    +0.000 C 
BRANCH   5   6
ATOM      6  C   LEU A   1       6.688   4.691  14.873  0.00  0.00    +0.000 C 
ATOM      7  O   LEU A   1       7.611   5.327  14.391  0.00  0.00    +0.000 OA
BRANCH   6   8
ATOM      8  OXT LEU A   1       5.786   4.036  14.093  0.00  0.00    +0.000 OA
ATOM      9  HXT LEU A   1       5.887   4.319  13.159  0.00  0.00    +0.000 HD
ENDBRANCH   6   8
ENDBRANCH   5   6
BRANCH   5  10
ATOM     10  CB  LEU A   1       7.521   4.565  17.321  0.00  0.00    +0.000 C 
BRANCH  10  12
ATOM     11  CD1 LEU A   1       7.193   7.106  17.568  0.00  0.00    +0.000 C 
ATOM     12  CG  LEU A   1       7.791   5.831  18.165  0.00  0.00    +0.000 C 
ATOM     13  CD2 LEU A   1       7.236   5.638  19.582  0.00  0.00    +0.000 C 
ENDBRANCH  10  12
ENDBRANCH   5  10
ENDBRANCH   1   5
BRANCH   2  14
ATOM     14  C   UNK A   0       3.760   2.144  17.806  0.00  0.00    +0.000 C 
BRANCH  14  15
ATOM     15  O   UNK A   0       4.289   1.448  18.943  0.00  0.00    +0.000 OA
ATOM     16  H   UNK A   0       3.578   1.319  19.591  0.00  0.00    +0.000 HD
ENDBRANCH  14  15
BRANCH  14  17
ATOM     17  C   UNK A   0       2.209   2.328  17.873  0.00  0.00    +0.000 C 
BRANCH  17  18
ATOM     18  N   UNK A   0       1.802   3.594  17.246  0.00  0.00    +0.000 NA
ATOM     19  H   UNK A   0       2.176   4.373  17.804  0.00  0.00    +0.000 HD
ATOM     20  H   UNK A   0       0.790   3.706  17.268  0.00  0.00    +0.000 HD
ENDBRANCH  17  18
BRANCH  17  21
ATOM     21  C   UNK A   0       1.664   2.202  19.320  0.00  0.00    +0.000 C 
BRANCH  21  22
ATOM     22  C   UNK A   0       2.016   3.347  20.296  0.00  0.00    +0.000 C 
ATOM     23  C   UNK A   0       0.889   4.369  20.445  0.00  0.00    +0.000 C 
ATOM     24  C   UNK A   0       2.354   2.759  21.671  0.00  0.00    +0.000 C 
ENDBRANCH  21  22
ENDBRANCH  17  21
ENDBRANCH  14  17
ENDBRANCH   2  14
TORSDOF 11
ENDMDL
MODEL 7
REMARK VINA RESULT:      -6.5      2.200      6.183
REMARK  Name = 
REMARK  15 active torsions:
REMARK  status: ('A' for Active; 'I' for Inactive)
REMARK    1  A    between atoms: CD1_1  and  CG_2
REMARK    2  A    between atoms: CG_2  and  CD2_3
REMARK    3  A    between atoms: CG_2  and  CB_4
REMARK    4  A    between atoms: CB_4  and  CA_5
REMARK    5  A    between atoms: CA_5  and  N_6
REMARK    6  A    between atoms: CA_5  and  C_17
REMARK    7  A    between atoms: C_7  and  C_9
REMARK    8  A    between atoms: C_9  and  O_10
REMARK    9  A    between atoms: C_9  and  C_11
REMARK   10  A    between atoms: C_11  and  N_12
REMARK   11  A    between atoms: C_11  and  C_13
REMARK   12  A    between atoms: C_13  and  C_14
REMARK   13  A    between atoms: C_14  and  C_15
REMARK   14  A    between atoms: C_14  and  C_16
REMARK   15  A    between atoms: C_17  and  OXT_19
REMARK                            x       y       z     vdW  Elec       q    Type
REMARK                         _______ _______ _______ _____ _____    ______ ____
ROOT
ATOM      1  N   LEU A   1       4.906   3.836  17.725  0.00  0.00    +0.000 N 
ATOM      2  C   UNK A   0       3.694   3.172  17.686  0.00  0.00    +0.000 C 
ATOM      3  O   UNK A   0       2.828   3.452  16.865  0.00  0.00    +0.000 OA
ATOM      4  H   LEU A   1       5.439   3.715  18.587  0.00  0.00    +0.000 HD
ENDROOT
BRANCH   1   5
ATOM      5  CA  LEU A   1       5.100   5.054  16.911  0.00  0.00    +0.000 C 
BRANCH   5   6
ATOM      6  C   LEU A   1       5.948   4.683  15.685  0.00  0.00    +0.000 C 
ATOM      7  O   LEU A   1       6.613   3.668  15.557  0.00  0.00    +0.000 OA
BRANCH   6   8
ATOM      8  OXT LEU A   1       5.980   5.682  14.762  0.00  0.00    +0.000 OA
ATOM      9  HXT LEU A   1       5.570   5.373  13.926  0.00  0.00    +0.000 HD
ENDBRANCH   6   8
ENDBRANCH   5   6
BRANCH   5  10
ATOM     10  CB  LEU A   1       5.673   6.193  17.771  0.00  0.00    +0.000 C 
BRANCH  10  12
ATOM     11  CD1 LEU A   1       7.709   7.759  17.598  0.00  0.00    +0.000 C 
ATOM     12  CG  LEU A   1       7.213   6.326  17.797  0.00  0.00    +0.000 C 
ATOM     13  CD2 LEU A   1       7.756   5.792  19.128  0.00  0.00    +0.000 C 
ENDBRANCH  10  12
ENDBRANCH   5  10
ENDBRANCH   1   5
BRANCH   2  14
ATOM     14  C   UNK A   0       3.560   2.029  18.719  0.00  0.00    +0.000 C 
BRANCH  14  15
ATOM     15  O   UNK A   0       4.223   0.840  18.269  0.00  0.00    +0.000 OA
ATOM     16  H   UNK A   0       4.756   1.055  17.487  0.00  0.00    +0.000 HD
ENDBRANCH  14  15
BRANCH  14  17
ATOM     17  C   UNK A   0       4.015   2.476  20.147  0.00  0.00    +0.000 C 
BRANCH  17  18
ATOM     18  N   UNK A   0       5.180   1.699  20.595  0.00  0.00    +0.000 NA
ATOM     19  H   UNK A   0       4.900   1.119  21.396  0.00  0.00    +0.000 HD
ATOM     20  H   UNK A   0       5.916   2.310  20.945  0.00  0.00    +0.000 HD
ENDBRANCH  17  18
BRANCH  17  21
ATOM     21  C   UNK A   0       2.857   2.421  21.177  0.00  0.00    +0.000 C 
BRANCH  21  22
ATOM     22  C   UNK A   0       1.844   3.586  21.147  0.00  0.00    +0.000 C 
ATOM     23  C   UNK A   0       2.477   4.915  20.735  0.00  0.00    +0.000 C 
ATOM     24  C   UNK A   0       0.704   3.246  20.180  0.00  0.00    +0.000 C 
ENDBRANCH  21  22
ENDBRANCH  17  21
ENDBRANCH  14  17
ENDBRANCH   2  14
TORSDOF 11
ENDMDL
MODEL 8
REMARK VINA RESULT:      -6.4      1.849      2.253
REMARK  Name = 
REMARK  15 active torsions:
REMARK  status: ('A' for Active; 'I' for Inactive)
REMARK    1  A    between atoms: CD1_1  and  CG_2
REMARK    2  A    between atoms: CG_2  and  CD2_3
REMARK    3  A    between atoms: CG_2  and  CB_4
REMARK    4  A    between atoms: CB_4  and  CA_5
REMARK    5  A    between atoms: CA_5  and  N_6
REMARK    6  A    between atoms: CA_5  and  C_17
REMARK    7  A    between atoms: C_7  and  C_9
REMARK    8  A    between atoms: C_9  and  O_10
REMARK    9  A    between atoms: C_9  and  C_11
REMARK   10  A    between atoms: C_11  and  N_12
REMARK   11  A    between atoms: C_11  and  C_13
REMARK   12  A    between atoms: C_13  and  C_14
REMARK   13  A    between atoms: C_14  and  C_15
REMARK   14  A    between atoms: C_14  and  C_16
REMARK   15  A    between atoms: C_17  and  OXT_19
REMARK                            x       y       z     vdW  Elec       q    Type
REMARK                         _______ _______ _______ _____ _____    ______ ____
ROOT
ATOM      1  N   LEU A   1       4.308   3.801  17.733  0.00  0.00    +0.000 N 
ATOM      2  C   UNK A   0       4.647   5.124  17.517  0.00  0.00    +0.000 C 
ATOM      3  O   UNK A   0       4.592   5.961  18.409  0.00  0.00    +0.000 OA
ATOM      4  H   LEU A   1       4.137   3.254  16.888  0.00  0.00    +0.000 HD
ENDROOT
BRANCH   1   5
ATOM      5  CA  LEU A   1       3.657   3.410  19.001  0.00  0.00    +0.000 C 
BRANCH   5   6
ATOM      6  C   LEU A   1       4.282   2.089  19.474  0.00  0.00    +0.000 C 
ATOM      7  O   LEU A   1       4.970   1.940  20.469  0.00  0.00    +0.000 OA
BRANCH   6   8
ATOM      8  OXT LEU A   1       4.081   1.080  18.583  0.00  0.00    +0.000 OA
ATOM      9  HXT LEU A   1       4.154   1.426  17.668  0.00  0.00    +0.000 HD
ENDBRANCH   6   8
ENDBRANCH   5   6
BRANCH   5  10
ATOM     10  CB  LEU A   1       2.128   3.378  18.837  0.00  0.00    +0.000 C 
BRANCH  10  12
ATOM     11  CD1 LEU A   1       1.283   2.856  21.212  0.00  0.00    +0.000 C 
ATOM     12  CG  LEU A   1       1.297   3.851  20.051  0.00  0.00    +0.000 C 
ATOM     13  CD2 LEU A   1       1.835   5.196  20.554  0.00  0.00    +0.000 C 
ENDBRANCH  10  12
ENDBRANCH   5  10
ENDBRANCH   1   5
BRANCH   2  14
ATOM     14  C   UNK A   0       5.146   5.428  16.085  0.00  0.00    +0.000 C 
BRANCH  14  15
ATOM     15  O   UNK A   0       5.603   6.782  15.970  0.00  0.00    +0.000 OA
ATOM     16  H   UNK A   0       5.022   7.356  16.495  0.00  0.00    +0.000 HD
ENDBRANCH  14  15
BRANCH  14  17
ATOM     17  C   UNK A   0       6.207   4.385  15.603  0.00  0.00    +0.000 C 
BRANCH  17  18
ATOM     18  N   UNK A   0       7.318   4.284  16.560  0.00  0.00    +0.000 NA
ATOM     19  H   UNK A   0       7.576   5.230  16.867  0.00  0.00    +0.000 HD
ATOM     20  H   UNK A   0       8.153   3.905  16.116  0.00  0.00    +0.000 HD
ENDBRANCH  17  18
BRANCH  17  21
ATOM     21  C   UNK A   0       6.713   4.682  14.166  0.00  0.00    +0.000 C 
BRANCH  21  22
ATOM     22  C   UNK A   0       6.359   3.645  13.078  0.00  0.00    +0.000 C 
ATOM     23  C   UNK A   0       4.881   3.671  12.689  0.00  0.00    +0.000 C 
ATOM     24  C   UNK A   0       7.216   3.900  11.832  0.00  0.00    +0.000 C 
ENDBRANCH  21  22
ENDBRANCH  17  21
ENDBRANCH  14  17
ENDBRANCH   2  14
TORSDOF 11
ENDMDL
MODEL 9
REMARK VINA RESULT:      -6.3      2.277      6.294
REMARK  Name = 
REMARK  15 active torsions:
REMARK  status: ('A' for Active; 'I' for Inactive)
REMARK    1  A    between atoms: CD1_1  and  CG_2
REMARK    2  A    between atoms: CG_2  and  CD2_3
REMARK    3  A    between atoms: CG_2  and  CB_4
REMARK    4  A    between atoms: CB_4  and  CA_5
REMARK    5  A    between atoms: CA_5  and  N_6
REMARK    6  A    between atoms: CA_5  and  C_17
REMARK    7  A    between atoms: C_7  and  C_9
REMARK    8  A    between atoms: C_9  and  O_10
REMARK    9  A    between atoms: C_9  and  C_11
REMARK   10  A    between atoms: C_11  and  N_12
REMARK   11  A    between atoms: C_11  and  C_13
REMARK   12  A    between atoms: C_13  and  C_14
REMARK   13  A    between atoms: C_14  and  C_15
REMARK   14  A    between atoms: C_14  and  C_16
REMARK   15  A    between atoms: C_17  and  OXT_19
REMARK                            x       y       z     vdW  Elec       q    Type
REMARK                         _______ _______ _______ _____ _____    ______ ____
ROOT
ATOM      1  N   LEU A   1       5.609   3.593  16.578  0.00  0.00    +0.000 N 
ATOM      2  C   UNK A   0       4.454   3.872  17.285  0.00  0.00    +0.000 C 
ATOM      3  O   UNK A   0       4.067   5.020  17.466  0.00  0.00    +0.000 OA
ATOM      4  H   LEU A   1       5.979   2.650  16.706  0.00  0.00    +0.000 HD
ENDROOT
BRANCH   1   5
ATOM      5  CA  LEU A   1       6.526   4.693  16.209  0.00  0.00    +0.000 C 
BRANCH   5   6
ATOM      6  C   LEU A   1       6.908   4.523  14.731  0.00  0.00    +0.000 C 
ATOM      7  O   LEU A   1       7.590   5.293  14.076  0.00  0.00    +0.000 OA
BRANCH   6   8
ATOM      8  OXT LEU A   1       6.300   3.445  14.165  0.00  0.00    +0.000 OA
ATOM      9  HXT LEU A   1       5.832   2.929  14.856  0.00  0.00    +0.000 HD
ENDBRANCH   6   8
ENDBRANCH   5   6
BRANCH   5  10
ATOM     10  CB  LEU A   1       7.716   4.754  17.181  0.00  0.00    +0.000 C 
BRANCH  10  12
ATOM     11  CD1 LEU A   1       7.184   7.244  17.563  0.00  0.00    +0.000 C 
ATOM     12  CG  LEU A   1       7.743   5.951  18.158  0.00  0.00    +0.000 C 
ATOM     13  CD2 LEU A   1       6.952   5.604  19.425  0.00  0.00    +0.000 C 
ENDBRANCH  10  12
ENDBRANCH   5  10
ENDBRANCH   1   5
BRANCH   2  14
ATOM     14  C   UNK A   0       3.685   2.620  17.768  0.00  0.00    +0.000 C 
BRANCH  14  15
ATOM     15  O   UNK A   0       4.292   1.416  17.279  0.00  0.00    +0.000 OA
ATOM     16  H   UNK A   0       4.451   1.509  16.326  0.00  0.00    +0.000 HD
ENDBRANCH  14  15
BRANCH  14  17
ATOM     17  C   UNK A   0       3.489   2.617  19.319  0.00  0.00    +0.000 C 
BRANCH  17  18
ATOM     18  N   UNK A   0       4.617   1.954  19.990  0.00  0.00    +0.000 NA
ATOM     19  H   UNK A   0       4.621   2.233  20.980  0.00  0.00    +0.000 HD
ATOM     20  H   UNK A   0       5.508   2.273  19.613  0.00  0.00    +0.000 HD
ENDBRANCH  17  18
BRANCH  17  21
ATOM     21  C   UNK A   0       2.129   2.000  19.738  0.00  0.00    +0.000 C 
BRANCH  21  22
ATOM     22  C   UNK A   0       1.281   2.809  20.745  0.00  0.00    +0.000 C 
ATOM     23  C   UNK A   0       1.998   3.043  22.074  0.00  0.00    +0.000 C 
ATOM     24  C   UNK A   0       0.906   4.161  20.126  0.00  0.00    +0.000 C 
ENDBRANCH  21  22
ENDBRANCH  17  21
ENDBRANCH  14  17
ENDBRANCH   2  14
TORSDOF 11
ENDMDL
