MODEL 1
REMARK VINA RESULT:      -6.0      0.000      0.000
REMARK  Name = 
REMARK  11 active torsions:
REMARK  status: ('A' for Active; 'I' for Inactive)
REMARK    1  A    between atoms: C_1  and  O_2
REMARK    2  A    between atoms: O_2  and  C_3
REMARK    3  A    between atoms: C_8  and  O_9
REMARK    4  A    between atoms: O_9  and  C_10
REMARK    5  A    between atoms: N_12  and  C_13
REMARK    6  A    between atoms: C_13  and  C_14
REMARK    7  A    between atoms: C_14  and  C_15
REMARK    8  A    between atoms: C_15  and  C_16
REMARK    9  A    between atoms: C_16  and  C_17
REMARK   10  A    between atoms: C_17  and  C_18
REMARK   11  A    between atoms: C_18  and  O_20
REMARK                            x       y       z     vdW  Elec       q    Type
REMARK                         _______ _______ _______ _____ _____    ______ ____
ROOT
ATOM      1  C   UNL     1      -0.528  16.192  19.501  0.00  0.00    +0.000 A 
ATOM      2  C   UNL     1      -1.196  16.798  20.549  0.00  0.00    +0.000 A 
ATOM      3  C   UNL     1      -1.802  15.971  21.498  0.00  0.00    +0.000 A 
ATOM      4  C   UNL     1      -1.501  14.622  21.442  0.00  0.00    +0.000 A 
ATOM      5  C   UNL     1      -0.235  14.312  20.987  0.00  0.00    +0.000 A 
ATOM      6  C   UNL     1       0.067  14.950  19.749  0.00  0.00    +0.000 A 
ATOM      7  C   UNL     1       0.183  12.987  21.590  0.00  0.00    +0.000 C 
ATOM      8  N   UNL     1      -0.397  11.799  20.823  0.00  0.00    +0.000 N 
ATOM      9  C   UNL     1       0.742  11.449  19.884  0.00  0.00    +0.000 C 
ATOM     10  C   UNL     1       0.360  10.677  18.675  0.00  0.00    +0.000 C 
ATOM     11  C   UNL     1      -1.071  10.697  18.245  0.00  0.00    +0.000 A 
ATOM     12  C   UNL     1      -1.260  10.012  17.029  0.00  0.00    +0.000 A 
ATOM     13  C   UNL     1      -2.457  10.149  16.407  0.00  0.00    +0.000 A 
ATOM     14  C   UNL     1      -3.481  10.878  16.977  0.00  0.00    +0.000 A 
ATOM     15  C   UNL     1      -3.376  11.489  18.229  0.00  0.00    +0.000 A 
ATOM     16  C   UNL     1      -2.127  11.433  18.903  0.00  0.00    +0.000 A 
ATOM     17  C   UNL     1      -1.687  12.385  20.024  0.00  0.00    +0.000 C 
ATOM     18  C   UNL     1      -2.492  13.437  21.044  0.00  0.00    +0.000 C 
ATOM     19  O   UNL     1      -4.533  10.948  16.103  0.00  0.00    +0.000 OA
ATOM     20  C   UNL     1      -3.974  10.341  14.915  0.00  0.00    +0.000 C 
ATOM     21  O   UNL     1      -2.723   9.669  15.171  0.00  0.00    +0.000 OA
ENDROOT
BRANCH   1  23
ATOM     22  C   UNL     1       0.549  17.796  18.183  0.00  0.00    +0.000 C 
ATOM     23  O   UNL     1      -0.476  16.793  18.271  0.00  0.00    +0.000 OA
ENDBRANCH   1  23
BRANCH   6  24
ATOM     24  O   UNL     1       0.743  14.185  18.829  0.00  0.00    +0.000 OA
ATOM     25  C   UNL     1       2.134  14.417  18.541  0.00  0.00    +0.000 C 
ENDBRANCH   6  24
BRANCH   8  26
ATOM     26  C   UNL     1      -0.848  10.561  21.658  0.00  0.00    +0.000 C 
BRANCH  26  27
ATOM     27  C   UNL     1       0.154  10.159  22.756  0.00  0.00    +0.000 C 
BRANCH  27  28
ATOM     28  C   UNL     1       1.108   8.999  22.428  0.00  0.00    +0.000 C 
BRANCH  28  29
ATOM     29  C   UNL     1       0.681   8.141  21.222  0.00  0.00    +0.000 C 
BRANCH  29  30
ATOM     30  C   UNL     1       1.820   7.892  20.236  0.00  0.00    +0.000 C 
BRANCH  30  31
ATOM     31  C   UNL     1       2.216   6.431  20.168  0.00  0.00    +0.000 C 
ATOM     32  O   UNL     1       3.243   6.020  19.678  0.00  0.00    +0.000 OA
BRANCH  31  33
ATOM     33  O   UNL     1       1.336   5.619  20.792  0.00  0.00    +0.000 OA
ATOM     34  H   UNL     1       1.116   5.867  21.705  0.00  0.00    +0.000 HD
ENDBRANCH  31  33
ENDBRANCH  30  31
ENDBRANCH  29  30
ENDBRANCH  28  29
ENDBRANCH  27  28
ENDBRANCH  26  27
ENDBRANCH   8  26
TORSDOF 9
ENDMDL
MODEL 2
REMARK VINA RESULT:      -6.0      2.402      4.454
REMARK  Name = 
REMARK  11 active torsions:
REMARK  status: ('A' for Active; 'I' for Inactive)
REMARK    1  A    between atoms: C_1  and  O_2
REMARK    2  A    between atoms: O_2  and  C_3
REMARK    3  A    between atoms: C_8  and  O_9
REMARK    4  A    between atoms: O_9  and  C_10
REMARK    5  A    between atoms: N_12  and  C_13
REMARK    6  A    between atoms: C_13  and  C_14
REMARK    7  A    between atoms: C_14  and  C_15
REMARK    8  A    between atoms: C_15  and  C_16
REMARK    9  A    between atoms: C_16  and  C_17
REMARK   10  A    between atoms: C_17  and  C_18
REMARK   11  A    between atoms: C_18  and  O_20
REMARK                            x       y       z     vdW  Elec       q    Type
REMARK                         _______ _______ _______ _____ _____    ______ ____
ROOT
ATOM      1  C   UNL     1       0.424  16.347  19.080  0.00  0.00    +0.000 A 
ATOM      2  C   UNL     1      -0.227  17.240  19.911  0.00  0.00    +0.000 A 
ATOM      3  C   UNL     1      -1.075  16.716  20.890  0.00  0.00    +0.000 A 
ATOM      4  C   UNL     1      -1.027  15.350  21.099  0.00  0.00    +0.000 A 
ATOM      5  C   UNL     1       0.200  14.756  20.881  0.00  0.00    +0.000 A 
ATOM      6  C   UNL     1       0.746  15.093  19.609  0.00  0.00    +0.000 A 
ATOM      7  C   UNL     1       0.296  13.517  21.746  0.00  0.00    +0.000 C 
ATOM      8  N   UNL     1      -0.411  12.319  21.112  0.00  0.00    +0.000 N 
ATOM      9  C   UNL     1       0.736  11.616  20.411  0.00  0.00    +0.000 C 
ATOM     10  C   UNL     1       0.348  10.706  19.304  0.00  0.00    +0.000 C 
ATOM     11  C   UNL     1      -0.999  10.880  18.683  0.00  0.00    +0.000 A 
ATOM     12  C   UNL     1      -1.182  10.022  17.582  0.00  0.00    +0.000 A 
ATOM     13  C   UNL     1      -2.259  10.235  16.786  0.00  0.00    +0.000 A 
ATOM     14  C   UNL     1      -3.183  11.217  17.081  0.00  0.00    +0.000 A 
ATOM     15  C   UNL     1      -3.100  12.025  18.217  0.00  0.00    +0.000 A 
ATOM     16  C   UNL     1      -1.964  11.891  19.058  0.00  0.00    +0.000 A 
ATOM     17  C   UNL     1      -1.476  12.950  20.056  0.00  0.00    +0.000 C 
ATOM     18  C   UNL     1      -2.174  14.292  20.768  0.00  0.00    +0.000 C 
ATOM     19  O   UNL     1      -4.104  11.295  16.070  0.00  0.00    +0.000 OA
ATOM     20  C   UNL     1      -3.544  10.393  15.087  0.00  0.00    +0.000 C 
ATOM     21  O   UNL     1      -2.475   9.584  15.621  0.00  0.00    +0.000 OA
ENDROOT
BRANCH   1  23
ATOM     22  C   UNL     1       0.475  18.079  17.509  0.00  0.00    +0.000 C 
ATOM     23  O   UNL     1       0.719  16.692  17.787  0.00  0.00    +0.000 OA
ENDBRANCH   1  23
BRANCH   6  24
ATOM     24  O   UNL     1       1.362  14.068  18.930  0.00  0.00    +0.000 OA
ATOM     25  C   UNL     1       2.784  14.070  18.703  0.00  0.00    +0.000 C 
ENDBRANCH   6  24
BRANCH   8  26
ATOM     26  C   UNL     1      -1.172  11.349  22.070  0.00  0.00    +0.000 C 
BRANCH  26  27
ATOM     27  C   UNL     1      -1.674  12.024  23.359  0.00  0.00    +0.000 C 
BRANCH  27  28
ATOM     28  C   UNL     1      -3.196  12.174  23.513  0.00  0.00    +0.000 C 
BRANCH  28  29
ATOM     29  C   UNL     1      -3.636  13.345  24.413  0.00  0.00    +0.000 C 
BRANCH  29  30
ATOM     30  C   UNL     1      -2.627  14.491  24.434  0.00  0.00    +0.000 C 
BRANCH  30  31
ATOM     31  C   UNL     1      -3.297  15.849  24.449  0.00  0.00    +0.000 C 
ATOM     32  O   UNL     1      -2.770  16.879  24.094  0.00  0.00    +0.000 OA
BRANCH  31  33
ATOM     33  O   UNL     1      -4.591  15.792  24.828  0.00  0.00    +0.000 OA
ATOM     34  H   UNL     1      -4.757  15.355  25.679  0.00  0.00    +0.000 HD
ENDBRANCH  31  33
ENDBRANCH  30  31
ENDBRANCH  29  30
ENDBRANCH  28  29
ENDBRANCH  27  28
ENDBRANCH  26  27
ENDBRANCH   8  26
TORSDOF 9
ENDMDL
MODEL 3
REMARK VINA RESULT:      -5.8      2.815      4.622
REMARK  Name = 
REMARK  11 active torsions:
REMARK  status: ('A' for Active; 'I' for Inactive)
REMARK    1  A    between atoms: C_1  and  O_2
REMARK    2  A    between atoms: O_2  and  C_3
REMARK    3  A    between atoms: C_8  and  O_9
REMARK    4  A    between atoms: O_9  and  C_10
REMARK    5  A    between atoms: N_12  and  C_13
REMARK    6  A    between atoms: C_13  and  C_14
REMARK    7  A    between atoms: C_14  and  C_15
REMARK    8  A    between atoms: C_15  and  C_16
REMARK    9  A    between atoms: C_16  and  C_17
REMARK   10  A    between atoms: C_17  and  C_18
REMARK   11  A    between atoms: C_18  and  O_20
REMARK                            x       y       z     vdW  Elec       q    Type
REMARK                         _______ _______ _______ _____ _____    ______ ____
ROOT
ATOM      1  C   UNL     1       0.088  16.721  19.282  0.00  0.00    +0.000 A 
ATOM      2  C   UNL     1      -0.657  17.629  20.011  0.00  0.00    +0.000 A 
ATOM      3  C   UNL     1      -1.533  17.125  20.974  0.00  0.00    +0.000 A 
ATOM      4  C   UNL     1      -1.428  15.780  21.280  0.00  0.00    +0.000 A 
ATOM      5  C   UNL     1      -0.161  15.242  21.172  0.00  0.00    +0.000 A 
ATOM      6  C   UNL     1       0.442  15.524  19.913  0.00  0.00    +0.000 A 
ATOM      7  C   UNL     1      -0.054  14.069  22.125  0.00  0.00    +0.000 C 
ATOM      8  N   UNL     1      -0.659  12.795  21.536  0.00  0.00    +0.000 N 
ATOM      9  C   UNL     1       0.563  12.112  20.950  0.00  0.00    +0.000 C 
ATOM     10  C   UNL     1       0.289  11.111  19.888  0.00  0.00    +0.000 C 
ATOM     11  C   UNL     1      -1.027  11.170  19.182  0.00  0.00    +0.000 A 
ATOM     12  C   UNL     1      -1.099  10.232  18.134  0.00  0.00    +0.000 A 
ATOM     13  C   UNL     1      -2.136  10.333  17.267  0.00  0.00    +0.000 A 
ATOM     14  C   UNL     1      -3.125  11.279  17.441  0.00  0.00    +0.000 A 
ATOM     15  C   UNL     1      -3.152  12.164  18.522  0.00  0.00    +0.000 A 
ATOM     16  C   UNL     1      -2.062  12.148  19.432  0.00  0.00    +0.000 A 
ATOM     17  C   UNL     1      -1.690  13.296  20.381  0.00  0.00    +0.000 C 
ATOM     18  C   UNL     1      -2.497  14.641  20.958  0.00  0.00    +0.000 C 
ATOM     19  O   UNL     1      -3.987  11.240  16.377  0.00  0.00    +0.000 OA
ATOM     20  C   UNL     1      -3.324  10.308  15.492  0.00  0.00    +0.000 C 
ATOM     21  O   UNL     1      -2.249   9.595  16.139  0.00  0.00    +0.000 OA
ENDROOT
BRANCH   1  23
ATOM     22  C   UNL     1      -0.427  17.952  17.361  0.00  0.00    +0.000 C 
ATOM     23  O   UNL     1       0.442  16.996  17.987  0.00  0.00    +0.000 OA
ENDBRANCH   1  23
BRANCH   6  24
ATOM     24  O   UNL     1       1.149  14.493  19.342  0.00  0.00    +0.000 OA
ATOM     25  C   UNL     1       2.584  14.537  19.238  0.00  0.00    +0.000 C 
ENDBRANCH   6  24
BRANCH   8  26
ATOM     26  C   UNL     1      -1.425  11.850  22.513  0.00  0.00    +0.000 C 
BRANCH  26  27
ATOM     27  C   UNL     1      -2.917  12.199  22.667  0.00  0.00    +0.000 C 
BRANCH  27  28
ATOM     28  C   UNL     1      -3.435  12.397  24.100  0.00  0.00    +0.000 C 
BRANCH  28  29
ATOM     29  C   UNL     1      -4.708  13.259  24.207  0.00  0.00    +0.000 C 
BRANCH  29  30
ATOM     30  C   UNL     1      -5.798  12.833  23.226  0.00  0.00    +0.000 C 
BRANCH  30  31
ATOM     31  C   UNL     1      -7.150  12.686  23.893  0.00  0.00    +0.000 C 
ATOM     32  O   UNL     1      -7.875  11.724  23.771  0.00  0.00    +0.000 OA
BRANCH  31  33
ATOM     33  O   UNL     1      -7.443  13.713  24.719  0.00  0.00    +0.000 OA
ATOM     34  H   UNL     1      -8.170  14.286  24.428  0.00  0.00    +0.000 HD
ENDBRANCH  31  33
ENDBRANCH  30  31
ENDBRANCH  29  30
ENDBRANCH  28  29
ENDBRANCH  27  28
ENDBRANCH  26  27
ENDBRANCH   8  26
TORSDOF 9
ENDMDL
MODEL 4
REMARK VINA RESULT:      -5.8      0.842      1.035
REMARK  Name = 
REMARK  11 active torsions:
REMARK  status: ('A' for Active; 'I' for Inactive)
REMARK    1  A    between atoms: C_1  and  O_2
REMARK    2  A    between atoms: O_2  and  C_3
REMARK    3  A    between atoms: C_8  and  O_9
REMARK    4  A    between atoms: O_9  and  C_10
REMARK    5  A    between atoms: N_12  and  C_13
REMARK    6  A    between atoms: C_13  and  C_14
REMARK    7  A    between atoms: C_14  and  C_15
REMARK    8  A    between atoms: C_15  and  C_16
REMARK    9  A    between atoms: C_16  and  C_17
REMARK   10  A    between atoms: C_17  and  C_18
REMARK   11  A    between atoms: C_18  and  O_20
REMARK                            x       y       z     vdW  Elec       q    Type
REMARK                         _______ _______ _______ _____ _____    ______ ____
ROOT
ATOM      1  C   UNL     1       0.379  15.983  19.751  0.00  0.00    +0.000 A 
ATOM      2  C   UNL     1      -0.119  16.617  20.875  0.00  0.00    +0.000 A 
ATOM      3  C   UNL     1      -0.727  15.824  21.851  0.00  0.00    +0.000 A 
ATOM      4  C   UNL     1      -0.589  14.453  21.726  0.00  0.00    +0.000 A 
ATOM      5  C   UNL     1       0.587  14.023  21.144  0.00  0.00    +0.000 A 
ATOM      6  C   UNL     1       0.847  14.674  19.904  0.00  0.00    +0.000 A 
ATOM      7  C   UNL     1       0.903  12.637  21.664  0.00  0.00    +0.000 C 
ATOM      8  N   UNL     1       0.123  11.553  20.919  0.00  0.00    +0.000 N 
ATOM      9  C   UNL     1       1.126  11.117  19.867  0.00  0.00    +0.000 C 
ATOM     10  C   UNL     1       0.550  10.443  18.675  0.00  0.00    +0.000 C 
ATOM     11  C   UNL     1      -0.902  10.639  18.383  0.00  0.00    +0.000 A 
ATOM     12  C   UNL     1      -1.277  10.031  17.170  0.00  0.00    +0.000 A 
ATOM     13  C   UNL     1      -2.501  10.325  16.668  0.00  0.00    +0.000 A 
ATOM     14  C   UNL     1      -3.379  11.140  17.354  0.00  0.00    +0.000 A 
ATOM     15  C   UNL     1      -3.093  11.684  18.608  0.00  0.00    +0.000 A 
ATOM     16  C   UNL     1      -1.803  11.461  19.160  0.00  0.00    +0.000 A 
ATOM     17  C   UNL     1      -1.158  12.312  20.263  0.00  0.00    +0.000 C 
ATOM     18  C   UNL     1      -1.741  13.404  21.386  0.00  0.00    +0.000 C 
ATOM     19  O   UNL     1      -4.491  11.363  16.586  0.00  0.00    +0.000 OA
ATOM     20  C   UNL     1      -4.114  10.747  15.332  0.00  0.00    +0.000 C 
ATOM     21  O   UNL     1      -2.930   9.929  15.448  0.00  0.00    +0.000 OA
ENDROOT
BRANCH   1  23
ATOM     22  C   UNL     1       1.434  17.604  18.436  0.00  0.00    +0.000 C 
ATOM     23  O   UNL     1       0.389  16.626  18.541  0.00  0.00    +0.000 OA
ENDBRANCH   1  23
BRANCH   6  24
ATOM     24  O   UNL     1       1.345  13.877  18.901  0.00  0.00    +0.000 OA
ATOM     25  C   UNL     1       2.704  14.011  18.444  0.00  0.00    +0.000 C 
ENDBRANCH   6  24
BRANCH   8  26
ATOM     26  C   UNL     1      -0.389  10.339  21.754  0.00  0.00    +0.000 C 
BRANCH  26  27
ATOM     27  C   UNL     1       0.717   9.335  22.126  0.00  0.00    +0.000 C 
BRANCH  27  28
ATOM     28  C   UNL     1       0.501   7.877  21.690  0.00  0.00    +0.000 C 
BRANCH  28  29
ATOM     29  C   UNL     1       1.571   7.334  20.722  0.00  0.00    +0.000 C 
BRANCH  29  30
ATOM     30  C   UNL     1       1.544   5.812  20.599  0.00  0.00    +0.000 C 
BRANCH  30  31
ATOM     31  C   UNL     1       2.700   5.279  19.778  0.00  0.00    +0.000 C 
ATOM     32  O   UNL     1       2.635   4.320  19.042  0.00  0.00    +0.000 OA
BRANCH  31  33
ATOM     33  O   UNL     1       3.812   6.037  19.882  0.00  0.00    +0.000 OA
ATOM     34  H   UNL     1       3.725   6.830  20.436  0.00  0.00    +0.000 HD
ENDBRANCH  31  33
ENDBRANCH  30  31
ENDBRANCH  29  30
ENDBRANCH  28  29
ENDBRANCH  27  28
ENDBRANCH  26  27
ENDBRANCH   8  26
TORSDOF 9
ENDMDL
MODEL 5
REMARK VINA RESULT:      -5.7      2.445      4.191
REMARK  Name = 
REMARK  11 active torsions:
REMARK  status: ('A' for Active; 'I' for Inactive)
REMARK    1  A    between atoms: C_1  and  O_2
REMARK    2  A    between atoms: O_2  and  C_3
REMARK    3  A    between atoms: C_8  and  O_9
REMARK    4  A    between atoms: O_9  and  C_10
REMARK    5  A    between atoms: N_12  and  C_13
REMARK    6  A    between atoms: C_13  and  C_14
REMARK    7  A    between atoms: C_14  and  C_15
REMARK    8  A    between atoms: C_15  and  C_16
REMARK    9  A    between atoms: C_16  and  C_17
REMARK   10  A    between atoms: C_17  and  C_18
REMARK   11  A    between atoms: C_18  and  O_20
REMARK                            x       y       z     vdW  Elec       q    Type
REMARK                         _______ _______ _______ _____ _____    ______ ____
ROOT
ATOM      1  C   UNL     1       0.851  16.006  19.112  0.00  0.00    +0.000 A 
ATOM      2  C   UNL     1       0.285  16.894  20.008  0.00  0.00    +0.000 A 
ATOM      3  C   UNL     1      -0.561  16.375  20.990  0.00  0.00    +0.000 A 
ATOM      4  C   UNL     1      -0.594  15.000  21.131  0.00  0.00    +0.000 A 
ATOM      5  C   UNL     1       0.585  14.342  20.840  0.00  0.00    +0.000 A 
ATOM      6  C   UNL     1       1.109  14.709  19.568  0.00  0.00    +0.000 A 
ATOM      7  C   UNL     1       0.630  13.058  21.641  0.00  0.00    +0.000 C 
ATOM      8  N   UNL     1      -0.172  11.939  20.975  0.00  0.00    +0.000 N 
ATOM      9  C   UNL     1       0.905  11.203  20.200  0.00  0.00    +0.000 C 
ATOM     10  C   UNL     1       0.423  10.376  19.065  0.00  0.00    +0.000 C 
ATOM     11  C   UNL     1      -0.930  10.665  18.502  0.00  0.00    +0.000 A 
ATOM     12  C   UNL     1      -1.203   9.877  17.367  0.00  0.00    +0.000 A 
ATOM     13  C   UNL     1      -2.290  10.196  16.622  0.00  0.00    +0.000 A 
ATOM     14  C   UNL     1      -3.140  11.217  16.997  0.00  0.00    +0.000 A 
ATOM     15  C   UNL     1      -2.968  11.960  18.168  0.00  0.00    +0.000 A 
ATOM     16  C   UNL     1      -1.815  11.713  18.960  0.00  0.00    +0.000 A 
ATOM     17  C   UNL     1      -1.229  12.688  19.990  0.00  0.00    +0.000 C 
ATOM     18  C   UNL     1      -1.816  14.033  20.791  0.00  0.00    +0.000 C 
ATOM     19  O   UNL     1      -4.086  11.404  16.026  0.00  0.00    +0.000 OA
ATOM     20  C   UNL     1      -3.617  10.519  14.981  0.00  0.00    +0.000 C 
ATOM     21  O   UNL     1      -2.586   9.619  15.436  0.00  0.00    +0.000 OA
ENDROOT
BRANCH   1  23
ATOM     22  C   UNL     1       0.769  17.764  17.571  0.00  0.00    +0.000 C 
ATOM     23  O   UNL     1       1.124  16.397  17.827  0.00  0.00    +0.000 OA
ENDBRANCH   1  23
BRANCH   6  24
ATOM     24  O   UNL     1       1.636  13.684  18.818  0.00  0.00    +0.000 OA
ATOM     25  C   UNL     1       3.003  13.713  18.368  0.00  0.00    +0.000 C 
ENDBRANCH   6  24
BRANCH   8  26
ATOM     26  C   UNL     1      -0.961  10.972  21.911  0.00  0.00    +0.000 C 
BRANCH  26  27
ATOM     27  C   UNL     1      -1.340  11.597  23.266  0.00  0.00    +0.000 C 
BRANCH  27  28
ATOM     28  C   UNL     1      -2.834  11.869  23.507  0.00  0.00    +0.000 C 
BRANCH  28  29
ATOM     29  C   UNL     1      -3.162  13.319  23.912  0.00  0.00    +0.000 C 
BRANCH  29  30
ATOM     30  C   UNL     1      -4.475  13.438  24.683  0.00  0.00    +0.000 C 
BRANCH  30  31
ATOM     31  C   UNL     1      -5.670  13.002  23.859  0.00  0.00    +0.000 C 
ATOM     32  O   UNL     1      -6.401  12.081  24.145  0.00  0.00    +0.000 OA
BRANCH  31  33
ATOM     33  O   UNL     1      -5.896  13.803  22.797  0.00  0.00    +0.000 OA
ATOM     34  H   UNL     1      -6.175  14.708  23.009  0.00  0.00    +0.000 HD
ENDBRANCH  31  33
ENDBRANCH  30  31
ENDBRANCH  29  30
ENDBRANCH  28  29
ENDBRANCH  27  28
ENDBRANCH  26  27
ENDBRANCH   8  26
TORSDOF 9
ENDMDL
MODEL 6
REMARK VINA RESULT:      -5.7      1.421      1.791
REMARK  Name = 
REMARK  11 active torsions:
REMARK  status: ('A' for Active; 'I' for Inactive)
REMARK    1  A    between atoms: C_1  and  O_2
REMARK    2  A    between atoms: O_2  and  C_3
REMARK    3  A    between atoms: C_8  and  O_9
REMARK    4  A    between atoms: O_9  and  C_10
REMARK    5  A    between atoms: N_12  and  C_13
REMARK    6  A    between atoms: C_13  and  C_14
REMARK    7  A    between atoms: C_14  and  C_15
REMARK    8  A    between atoms: C_15  and  C_16
REMARK    9  A    between atoms: C_16  and  C_17
REMARK   10  A    between atoms: C_17  and  C_18
REMARK   11  A    between atoms: C_18  and  O_20
REMARK                            x       y       z     vdW  Elec       q    Type
REMARK                         _______ _______ _______ _____ _____    ______ ____
ROOT
ATOM      1  C   UNL     1       0.991  16.066  19.783  0.00  0.00    +0.000 A 
ATOM      2  C   UNL     1       1.034  16.664  21.029  0.00  0.00    +0.000 A 
ATOM      3  C   UNL     1       0.688  15.885  22.135  0.00  0.00    +0.000 A 
ATOM      4  C   UNL     1       0.547  14.525  21.929  0.00  0.00    +0.000 A 
ATOM      5  C   UNL     1       1.355  13.984  20.948  0.00  0.00    +0.000 A 
ATOM      6  C   UNL     1       1.262  14.696  19.718  0.00  0.00    +0.000 A 
ATOM      7  C   UNL     1       1.603  12.527  21.278  0.00  0.00    +0.000 C 
ATOM      8  N   UNL     1       0.445  11.633  20.835  0.00  0.00    +0.000 N 
ATOM      9  C   UNL     1       0.925  11.151  19.479  0.00  0.00    +0.000 C 
ATOM     10  C   UNL     1      -0.136  10.670  18.558  0.00  0.00    +0.000 C 
ATOM     11  C   UNL     1      -1.544  11.095  18.818  0.00  0.00    +0.000 A 
ATOM     12  C   UNL     1      -2.418  10.653  17.806  0.00  0.00    +0.000 A 
ATOM     13  C   UNL     1      -3.675  11.160  17.790  0.00  0.00    +0.000 A 
ATOM     14  C   UNL     1      -4.108  12.029  18.771  0.00  0.00    +0.000 A 
ATOM     15  C   UNL     1      -3.313  12.417  19.852  0.00  0.00    +0.000 A 
ATOM     16  C   UNL     1      -1.966  11.967  19.892  0.00  0.00    +0.000 A 
ATOM     17  C   UNL     1      -0.843  12.619  20.710  0.00  0.00    +0.000 C 
ATOM     18  C   UNL     1      -0.805  13.682  22.000  0.00  0.00    +0.000 C 
ATOM     19  O   UNL     1      -5.367  12.473  18.465  0.00  0.00    +0.000 OA
ATOM     20  C   UNL     1      -5.564  11.919  17.143  0.00  0.00    +0.000 C 
ATOM     21  O   UNL     1      -4.566  10.935  16.798  0.00  0.00    +0.000 OA
ENDROOT
BRANCH   1  23
ATOM     22  C   UNL     1      -0.732  17.042  18.538  0.00  0.00    +0.000 C 
ATOM     23  O   UNL     1       0.678  16.802  18.670  0.00  0.00    +0.000 OA
ENDBRANCH   1  23
BRANCH   6  24
ATOM     24  O   UNL     1       1.237  13.924  18.580  0.00  0.00    +0.000 OA
ATOM     25  C   UNL     1       2.433  13.678  17.817  0.00  0.00    +0.000 C 
ENDBRANCH   6  24
BRANCH   8  26
ATOM     26  C   UNL     1       0.070  10.437  21.764  0.00  0.00    +0.000 C 
BRANCH  26  27
ATOM     27  C   UNL     1       1.185   9.384  21.894  0.00  0.00    +0.000 C 
BRANCH  27  28
ATOM     28  C   UNL     1       0.910   8.007  21.268  0.00  0.00    +0.000 C 
BRANCH  28  29
ATOM     29  C   UNL     1       1.936   7.572  20.204  0.00  0.00    +0.000 C 
BRANCH  29  30
ATOM     30  C   UNL     1       2.137   6.059  20.155  0.00  0.00    +0.000 C 
BRANCH  30  31
ATOM     31  C   UNL     1       3.327   5.662  19.305  0.00  0.00    +0.000 C 
ATOM     32  O   UNL     1       3.799   6.343  18.423  0.00  0.00    +0.000 OA
BRANCH  31  33
ATOM     33  O   UNL     1       3.876   4.489  19.685  0.00  0.00    +0.000 OA
ATOM     34  H   UNL     1       3.783   4.271  20.626  0.00  0.00    +0.000 HD
ENDBRANCH  31  33
ENDBRANCH  30  31
ENDBRANCH  29  30
ENDBRANCH  28  29
ENDBRANCH  27  28
ENDBRANCH  26  27
ENDBRANCH   8  26
TORSDOF 9
ENDMDL
MODEL 7
REMARK VINA RESULT:      -5.7      2.834      6.807
REMARK  Name = 
REMARK  11 active torsions:
REMARK  status: ('A' for Active; 'I' for Inactive)
REMARK    1  A    between atoms: C_1  and  O_2
REMARK    2  A    between atoms: O_2  and  C_3
REMARK    3  A    between atoms: C_8  and  O_9
REMARK    4  A    between atoms: O_9  and  C_10
REMARK    5  A    between atoms: N_12  and  C_13
REMARK    6  A    between atoms: C_13  and  C_14
REMARK    7  A    between atoms: C_14  and  C_15
REMARK    8  A    between atoms: C_15  and  C_16
REMARK    9  A    between atoms: C_16  and  C_17
REMARK   10  A    between atoms: C_17  and  C_18
REMARK   11  A    between atoms: C_18  and  O_20
REMARK                            x       y       z     vdW  Elec       q    Type
REMARK                         _______ _______ _______ _____ _____    ______ ____
ROOT
ATOM      1  C   UNL     1       0.528   9.906  20.690  0.00  0.00    +0.000 A 
ATOM      2  C   UNL     1       1.073   9.941  19.419  0.00  0.00    +0.000 A 
ATOM      3  C   UNL     1       0.913  11.113  18.676  0.00  0.00    +0.000 A 
ATOM      4  C   UNL     1       0.421  12.220  19.344  0.00  0.00    +0.000 A 
ATOM      5  C   UNL     1       0.757  12.309  20.680  0.00  0.00    +0.000 A 
ATOM      6  C   UNL     1       0.458  11.113  21.394  0.00  0.00    +0.000 A 
ATOM      7  C   UNL     1       0.766  13.770  21.078  0.00  0.00    +0.000 C 
ATOM      8  N   UNL     1      -0.639  14.289  21.384  0.00  0.00    +0.000 N 
ATOM      9  C   UNL     1      -0.706  14.135  22.892  0.00  0.00    +0.000 C 
ATOM     10  C   UNL     1      -2.073  14.077  23.469  0.00  0.00    +0.000 C 
ATOM     11  C   UNL     1      -3.209  13.726  22.565  0.00  0.00    +0.000 A 
ATOM     12  C   UNL     1      -4.421  13.604  23.272  0.00  0.00    +0.000 A 
ATOM     13  C   UNL     1      -5.481  13.066  22.621  0.00  0.00    +0.000 A 
ATOM     14  C   UNL     1      -5.398  12.710  21.290  0.00  0.00    +0.000 A 
ATOM     15  C   UNL     1      -4.249  12.905  20.519  0.00  0.00    +0.000 A 
ATOM     16  C   UNL     1      -3.086  13.410  21.159  0.00  0.00    +0.000 A 
ATOM     17  C   UNL     1      -1.655  13.273  20.622  0.00  0.00    +0.000 C 
ATOM     18  C   UNL     1      -0.999  12.914  19.126  0.00  0.00    +0.000 C 
ATOM     19  O   UNL     1      -6.560  12.095  20.908  0.00  0.00    +0.000 OA
ATOM     20  C   UNL     1      -7.261  11.976  22.168  0.00  0.00    +0.000 C 
ATOM     21  O   UNL     1      -6.655  12.759  23.217  0.00  0.00    +0.000 OA
ENDROOT
BRANCH   1  23
ATOM     22  C   UNL     1       1.056   7.688  21.212  0.00  0.00    +0.000 C 
ATOM     23  O   UNL     1       0.065   8.728  21.213  0.00  0.00    +0.000 OA
ENDBRANCH   1  23
BRANCH   6  24
ATOM     24  O   UNL     1      -0.076  11.281  22.649  0.00  0.00    +0.000 OA
ATOM     25  C   UNL     1      -1.215  10.516  23.086  0.00  0.00    +0.000 C 
ENDBRANCH   6  24
BRANCH   8  26
ATOM     26  C   UNL     1      -0.972  15.750  20.947  0.00  0.00    +0.000 C 
BRANCH  26  27
ATOM     27  C   UNL     1       0.253  16.683  20.930  0.00  0.00    +0.000 C 
BRANCH  27  28
ATOM     28  C   UNL     1       0.431  17.565  19.684  0.00  0.00    +0.000 C 
BRANCH  28  29
ATOM     29  C   UNL     1       0.826  16.797  18.408  0.00  0.00    +0.000 C 
BRANCH  29  30
ATOM     30  C   UNL     1       2.006  15.852  18.624  0.00  0.00    +0.000 C 
BRANCH  30  31
ATOM     31  C   UNL     1       3.214  16.238  17.795  0.00  0.00    +0.000 C 
ATOM     32  O   UNL     1       3.844  17.262  17.933  0.00  0.00    +0.000 OA
BRANCH  31  33
ATOM     33  O   UNL     1       3.579  15.276  16.921  0.00  0.00    +0.000 OA
ATOM     34  H   UNL     1       4.227  14.635  17.255  0.00  0.00    +0.000 HD
ENDBRANCH  31  33
ENDBRANCH  30  31
ENDBRANCH  29  30
ENDBRANCH  28  29
ENDBRANCH  27  28
ENDBRANCH  26  27
ENDBRANCH   8  26
TORSDOF 9
ENDMDL
MODEL 8
REMARK VINA RESULT:      -5.7      2.210      2.917
REMARK  Name = 
REMARK  11 active torsions:
REMARK  status: ('A' for Active; 'I' for Inactive)
REMARK    1  A    between atoms: C_1  and  O_2
REMARK    2  A    between atoms: O_2  and  C_3
REMARK    3  A    between atoms: C_8  and  O_9
REMARK    4  A    between atoms: O_9  and  C_10
REMARK    5  A    between atoms: N_12  and  C_13
REMARK    6  A    between atoms: C_13  and  C_14
REMARK    7  A    between atoms: C_14  and  C_15
REMARK    8  A    between atoms: C_15  and  C_16
REMARK    9  A    between atoms: C_16  and  C_17
REMARK   10  A    between atoms: C_17  and  C_18
REMARK   11  A    between atoms: C_18  and  O_20
REMARK                            x       y       z     vdW  Elec       q    Type
REMARK                         _______ _______ _______ _____ _____    ______ ____
ROOT
ATOM      1  C   UNL     1      -4.132  17.347  20.264  0.00  0.00    +0.000 A 
ATOM      2  C   UNL     1      -5.197  17.557  21.119  0.00  0.00    +0.000 A 
ATOM      3  C   UNL     1      -5.556  16.516  21.979  0.00  0.00    +0.000 A 
ATOM      4  C   UNL     1      -4.686  15.444  22.067  0.00  0.00    +0.000 A 
ATOM      5  C   UNL     1      -3.350  15.744  21.891  0.00  0.00    +0.000 A 
ATOM      6  C   UNL     1      -3.116  16.491  20.700  0.00  0.00    +0.000 A 
ATOM      7  C   UNL     1      -2.524  14.723  22.645  0.00  0.00    +0.000 C 
ATOM      8  N   UNL     1      -2.351  13.427  21.853  0.00  0.00    +0.000 N 
ATOM      9  C   UNL     1      -1.008  13.651  21.181  0.00  0.00    +0.000 C 
ATOM     10  C   UNL     1      -0.755  12.831  19.970  0.00  0.00    +0.000 C 
ATOM     11  C   UNL     1      -1.926  12.227  19.265  0.00  0.00    +0.000 A 
ATOM     12  C   UNL     1      -1.541  11.571  18.080  0.00  0.00    +0.000 A 
ATOM     13  C   UNL     1      -2.520  11.183  17.226  0.00  0.00    +0.000 A 
ATOM     14  C   UNL     1      -3.853  11.362  17.537  0.00  0.00    +0.000 A 
ATOM     15  C   UNL     1      -4.287  11.914  18.744  0.00  0.00    +0.000 A 
ATOM     16  C   UNL     1      -3.309  12.396  19.655  0.00  0.00    +0.000 A 
ATOM     17  C   UNL     1      -3.573  13.406  20.779  0.00  0.00    +0.000 C 
ATOM     18  C   UNL     1      -4.949  13.956  21.554  0.00  0.00    +0.000 C 
ATOM     19  O   UNL     1      -4.625  10.987  16.470  0.00  0.00    +0.000 OA
ATOM     20  C   UNL     1      -3.625  10.732  15.455  0.00  0.00    +0.000 C 
ATOM     21  O   UNL     1      -2.288  10.677  15.994  0.00  0.00    +0.000 OA
ENDROOT
BRANCH   1  23
ATOM     22  C   UNL     1      -5.387  18.429  18.613  0.00  0.00    +0.000 C 
ATOM     23  O   UNL     1      -4.100  17.950  19.034  0.00  0.00    +0.000 OA
ENDBRANCH   1  23
BRANCH   6  24
ATOM     24  O   UNL     1      -1.999  16.136  19.981  0.00  0.00    +0.000 OA
ATOM     25  C   UNL     1      -0.870  17.023  19.867  0.00  0.00    +0.000 C 
ENDBRANCH   6  24
BRANCH   8  26
ATOM     26  C   UNL     1      -2.369  12.090  22.657  0.00  0.00    +0.000 C 
BRANCH  26  27
ATOM     27  C   UNL     1      -0.966  11.568  23.017  0.00  0.00    +0.000 C 
BRANCH  27  28
ATOM     28  C   UNL     1      -0.801  10.042  23.111  0.00  0.00    +0.000 C 
BRANCH  28  29
ATOM     29  C   UNL     1      -0.458   9.352  21.777  0.00  0.00    +0.000 C 
BRANCH  29  30
ATOM     30  C   UNL     1       0.938   9.702  21.268  0.00  0.00    +0.000 C 
BRANCH  30  31
ATOM     31  C   UNL     1       1.376   8.811  20.124  0.00  0.00    +0.000 C 
ATOM     32  O   UNL     1       1.855   7.707  20.257  0.00  0.00    +0.000 OA
BRANCH  31  33
ATOM     33  O   UNL     1       1.101   9.339  18.912  0.00  0.00    +0.000 OA
ATOM     34  H   UNL     1       0.728   8.720  18.263  0.00  0.00    +0.000 HD
ENDBRANCH  31  33
ENDBRANCH  30  31
ENDBRANCH  29  30
ENDBRANCH  28  29
ENDBRANCH  27  28
ENDBRANCH  26  27
ENDBRANCH   8  26
TORSDOF 9
ENDMDL
MODEL 9
REMARK VINA RESULT:      -5.7      1.439      1.863
REMARK  Name = 
REMARK  11 active torsions:
REMARK  status: ('A' for Active; 'I' for Inactive)
REMARK    1  A    between atoms: C_1  and  O_2
REMARK    2  A    between atoms: O_2  and  C_3
REMARK    3  A    between atoms: C_8  and  O_9
REMARK    4  A    between atoms: O_9  and  C_10
REMARK    5  A    between atoms: N_12  and  C_13
REMARK    6  A    between atoms: C_13  and  C_14
REMARK    7  A    between atoms: C_14  and  C_15
REMARK    8  A    between atoms: C_15  and  C_16
REMARK    9  A    between atoms: C_16  and  C_17
REMARK   10  A    between atoms: C_17  and  C_18
REMARK   11  A    between atoms: C_18  and  O_20
REMARK                            x       y       z     vdW  Elec       q    Type
REMARK                         _______ _______ _______ _____ _____    ______ ____
ROOT
ATOM      1  C   UNL     1       0.481  15.078  20.213  0.00  0.00    +0.000 A 
ATOM      2  C   UNL     1       0.074  15.460  21.478  0.00  0.00    +0.000 A 
ATOM      3  C   UNL     1      -0.454  14.474  22.315  0.00  0.00    +0.000 A 
ATOM      4  C   UNL     1      -0.325  13.160  21.901  0.00  0.00    +0.000 A 
ATOM      5  C   UNL     1       0.802  12.879  21.154  0.00  0.00    +0.000 A 
ATOM      6  C   UNL     1       0.961  13.774  20.057  0.00  0.00    +0.000 A 
ATOM      7  C   UNL     1       1.160  11.421  21.352  0.00  0.00    +0.000 C 
ATOM      8  N   UNL     1       0.324  10.499  20.464  0.00  0.00    +0.000 N 
ATOM      9  C   UNL     1       1.240  10.305  19.270  0.00  0.00    +0.000 C 
ATOM     10  C   UNL     1       0.572   9.878  18.014  0.00  0.00    +0.000 C 
ATOM     11  C   UNL     1      -0.898  10.105  17.882  0.00  0.00    +0.000 A 
ATOM     12  C   UNL     1      -1.369   9.751  16.602  0.00  0.00    +0.000 A 
ATOM     13  C   UNL     1      -2.630  10.120  16.268  0.00  0.00    +0.000 A 
ATOM     14  C   UNL     1      -3.451  10.762  17.173  0.00  0.00    +0.000 A 
ATOM     15  C   UNL     1      -3.066  11.043  18.486  0.00  0.00    +0.000 A 
ATOM     16  C   UNL     1      -1.736  10.735  18.879  0.00  0.00    +0.000 A 
ATOM     17  C   UNL     1      -1.006  11.353  20.079  0.00  0.00    +0.000 C 
ATOM     18  C   UNL     1      -1.499  12.182  21.444  0.00  0.00    +0.000 C 
ATOM     19  O   UNL     1      -4.620  11.118  16.556  0.00  0.00    +0.000 OA
ATOM     20  C   UNL     1      -4.344  10.777  15.177  0.00  0.00    +0.000 C 
ATOM     21  O   UNL     1      -3.154   9.974  15.031  0.00  0.00    +0.000 OA
ENDROOT
BRANCH   1  23
ATOM     22  C   UNL     1       1.496  16.873  19.108  0.00  0.00    +0.000 C 
ATOM     23  O   UNL     1       0.393  15.954  19.163  0.00  0.00    +0.000 OA
ENDBRANCH   1  23
BRANCH   6  24
ATOM     24  O   UNL     1       1.379  13.207  18.876  0.00  0.00    +0.000 OA
ATOM     25  C   UNL     1       2.712  13.419  18.375  0.00  0.00    +0.000 C 
ENDBRANCH   6  24
BRANCH   8  26
ATOM     26  C   UNL     1      -0.118   9.131  21.070  0.00  0.00    +0.000 C 
BRANCH  26  27
ATOM     27  C   UNL     1       1.057   8.255  21.538  0.00  0.00    +0.000 C 
BRANCH  27  28
ATOM     28  C   UNL     1       1.643   7.277  20.506  0.00  0.00    +0.000 C 
BRANCH  28  29
ATOM     29  C   UNL     1       1.601   5.796  20.933  0.00  0.00    +0.000 C 
BRANCH  29  30
ATOM     30  C   UNL     1       1.460   4.841  19.750  0.00  0.00    +0.000 C 
BRANCH  30  31
ATOM     31  C   UNL     1       1.139   3.426  20.186  0.00  0.00    +0.000 C 
ATOM     32  O   UNL     1       1.123   3.049  21.336  0.00  0.00    +0.000 OA
BRANCH  31  33
ATOM     33  O   UNL     1       0.784   2.627  19.158  0.00  0.00    +0.000 OA
ATOM     34  H   UNL     1       1.182   1.742  19.162  0.00  0.00    +0.000 HD
ENDBRANCH  31  33
ENDBRANCH  30  31
ENDBRANCH  29  30
ENDBRANCH  28  29
ENDBRANCH  27  28
ENDBRANCH  26  27
ENDBRANCH   8  26
TORSDOF 9
ENDMDL
