MODEL 1
REMARK VINA RESULT:      -8.2      0.000      0.000
REMARK  Name = 
REMARK  11 active torsions:
REMARK  status: ('A' for Active; 'I' for Inactive)
REMARK    1  A    between atoms: C_1  and  C_2
REMARK    2  A    between atoms: C_2  and  C_3
REMARK    3  A    between atoms: C_3  and  C_4
REMARK    4  A    between atoms: C_3  and  C_28
REMARK    5  A    between atoms: C_4  and  C_5
REMARK    6  A    between atoms: C_8  and  C_9
REMARK    7  A    between atoms: N_11  and  C_12
REMARK    8  A    between atoms: C_12  and  C_13
REMARK    9  A    between atoms: C_16  and  O_17
REMARK   10  A    between atoms: O_17  and  C_18
REMARK   11  A    between atoms: C_28  and  O_30
REMARK                            x       y       z     vdW  Elec       q    Type
REMARK                         _______ _______ _______ _____ _____    ______ ____
ROOT
ATOM      1  C   UNL     1       2.074   5.679  20.087  0.00  0.00    +0.000 C 
ATOM      2  O   UNL     1       1.111   5.114  20.596  0.00  0.00    +0.000 OA
ATOM      3  N   UNL     1       2.423   6.982  20.355  0.00  0.00    +0.000 N 
ATOM      4  H   UNL     1       3.156   7.431  19.827  0.00  0.00    +0.000 HD
ENDROOT
BRANCH   1   8
ATOM      5  C   UNL     1       4.633   3.841  17.163  0.00  0.00    +0.000 A 
ATOM      6  C   UNL     1       5.167   4.534  18.259  0.00  0.00    +0.000 A 
ATOM      7  C   UNL     1       4.325   5.093  19.224  0.00  0.00    +0.000 A 
ATOM      8  C   UNL     1       2.937   4.939  19.127  0.00  0.00    +0.000 A 
ATOM      9  C   UNL     1       2.400   4.188  18.079  0.00  0.00    +0.000 A 
ATOM     10  C   UNL     1       3.246   3.647  17.104  0.00  0.00    +0.000 A 
BRANCH   5  11
ATOM     11  C   UNL     1       5.523   3.415  16.016  0.00  0.00    +0.000 C 
BRANCH  11  12
ATOM     12  C   UNL     1       5.547   4.288  14.755  0.00  0.00    +0.000 C 
BRANCH  12  14
ATOM     13  C   UNL     1       5.390   3.424  12.323  0.00  0.00    +0.000 C 
ATOM     14  C   UNL     1       6.273   3.692  13.532  0.00  0.00    +0.000 C 
ENDBRANCH  12  14
BRANCH  12  15
ATOM     15  C   UNL     1       6.136   5.650  15.071  0.00  0.00    +0.000 C 
ATOM     16  O   UNL     1       5.486   6.667  15.276  0.00  0.00    +0.000 OA
BRANCH  15  17
ATOM     17  O   UNL     1       7.497   5.661  15.107  0.00  0.00    +0.000 OA
ATOM     18  H   UNL     1       7.880   6.332  15.702  0.00  0.00    +0.000 HD
ENDBRANCH  15  17
ENDBRANCH  12  15
ENDBRANCH  11  12
ENDBRANCH   5  11
ENDBRANCH   1   8
BRANCH   3  19
ATOM     19  C   UNL     1       1.688   7.791  21.307  0.00  0.00    +0.000 C 
BRANCH  19  20
ATOM     20  C   UNL     1       0.939   8.900  20.611  0.00  0.00    +0.000 A 
ATOM     21  C   UNL     1       1.165   9.182  19.257  0.00  0.00    +0.000 A 
ATOM     22  C   UNL     1       0.456  10.204  18.619  0.00  0.00    +0.000 A 
ATOM     23  C   UNL     1      -0.485  10.957  19.323  0.00  0.00    +0.000 A 
ATOM     24  C   UNL     1      -0.685  10.707  20.683  0.00  0.00    +0.000 A 
ATOM     25  C   UNL     1      -0.005   9.662  21.311  0.00  0.00    +0.000 A 
BRANCH  23  26
ATOM     26  O   UNL     1      -1.121  11.953  18.613  0.00  0.00    +0.000 OA
BRANCH  26  27
ATOM     27  C   UNL     1      -2.403  11.754  18.153  0.00  0.00    +0.000 A 
ATOM     28  C   UNL     1      -2.523  11.246  16.856  0.00  0.00    +0.000 A 
ATOM     29  C   UNL     1      -3.786  11.025  16.304  0.00  0.00    +0.000 A 
ATOM     30  C   UNL     1      -4.931  11.313  17.045  0.00  0.00    +0.000 A 
ATOM     31  C   UNL     1      -4.816  11.785  18.351  0.00  0.00    +0.000 A 
ATOM     32  C   UNL     1      -3.554  11.974  18.914  0.00  0.00    +0.000 A 
ENDBRANCH  26  27
ENDBRANCH  23  26
ENDBRANCH  19  20
ENDBRANCH   3  19
TORSDOF 10
ENDMDL
MODEL 2
REMARK VINA RESULT:      -8.2      2.106      3.181
REMARK  Name = 
REMARK  11 active torsions:
REMARK  status: ('A' for Active; 'I' for Inactive)
REMARK    1  A    between atoms: C_1  and  C_2
REMARK    2  A    between atoms: C_2  and  C_3
REMARK    3  A    between atoms: C_3  and  C_4
REMARK    4  A    between atoms: C_3  and  C_28
REMARK    5  A    between atoms: C_4  and  C_5
REMARK    6  A    between atoms: C_8  and  C_9
REMARK    7  A    between atoms: N_11  and  C_12
REMARK    8  A    between atoms: C_12  and  C_13
REMARK    9  A    between atoms: C_16  and  O_17
REMARK   10  A    between atoms: O_17  and  C_18
REMARK   11  A    between atoms: C_28  and  O_30
REMARK                            x       y       z     vdW  Elec       q    Type
REMARK                         _______ _______ _______ _____ _____    ______ ____
ROOT
ATOM      1  C   UNL     1       4.701   5.591  18.029  0.00  0.00    +0.000 C 
ATOM      2  O   UNL     1       5.589   5.806  18.848  0.00  0.00    +0.000 OA
ATOM      3  N   UNL     1       3.362   5.747  18.299  0.00  0.00    +0.000 N 
ATOM      4  H   UNL     1       2.670   5.452  17.626  0.00  0.00    +0.000 HD
ENDROOT
BRANCH   1   8
ATOM      5  C   UNL     1       6.057   4.249  14.177  0.00  0.00    +0.000 A 
ATOM      6  C   UNL     1       5.791   3.337  15.209  0.00  0.00    +0.000 A 
ATOM      7  C   UNL     1       5.312   3.783  16.444  0.00  0.00    +0.000 A 
ATOM      8  C   UNL     1       5.061   5.144  16.656  0.00  0.00    +0.000 A 
ATOM      9  C   UNL     1       5.253   6.050  15.611  0.00  0.00    +0.000 A 
ATOM     10  C   UNL     1       5.751   5.603  14.383  0.00  0.00    +0.000 A 
BRANCH   5  11
ATOM     11  C   UNL     1       6.765   3.800  12.918  0.00  0.00    +0.000 C 
BRANCH  11  12
ATOM     12  C   UNL     1       5.912   3.271  11.757  0.00  0.00    +0.000 C 
BRANCH  12  14
ATOM     13  C   UNL     1       3.568   3.556  10.703  0.00  0.00    +0.000 C 
ATOM     14  C   UNL     1       4.385   3.314  11.963  0.00  0.00    +0.000 C 
ENDBRANCH  12  14
BRANCH  12  15
ATOM     15  C   UNL     1       6.329   1.857  11.401  0.00  0.00    +0.000 C 
ATOM     16  O   UNL     1       5.569   0.901  11.312  0.00  0.00    +0.000 OA
BRANCH  15  17
ATOM     17  O   UNL     1       7.667   1.720  11.186  0.00  0.00    +0.000 OA
ATOM     18  H   UNL     1       8.229   2.064  11.905  0.00  0.00    +0.000 HD
ENDBRANCH  15  17
ENDBRANCH  12  15
ENDBRANCH  11  12
ENDBRANCH   5  11
ENDBRANCH   1   8
BRANCH   3  19
ATOM     19  C   UNL     1       2.890   6.221  19.585  0.00  0.00    +0.000 C 
BRANCH  19  20
ATOM     20  C   UNL     1       2.124   7.512  19.437  0.00  0.00    +0.000 A 
ATOM     21  C   UNL     1       2.100   8.200  18.216  0.00  0.00    +0.000 A 
ATOM     22  C   UNL     1       1.376   9.389  18.087  0.00  0.00    +0.000 A 
ATOM     23  C   UNL     1       0.669   9.906  19.174  0.00  0.00    +0.000 A 
ATOM     24  C   UNL     1       0.722   9.246  20.405  0.00  0.00    +0.000 A 
ATOM     25  C   UNL     1       1.414   8.038  20.523  0.00  0.00    +0.000 A 
BRANCH  23  26
ATOM     26  O   UNL     1      -0.001  11.091  18.954  0.00  0.00    +0.000 OA
BRANCH  26  27
ATOM     27  C   UNL     1      -1.340  11.071  18.632  0.00  0.00    +0.000 A 
ATOM     28  C   UNL     1      -1.741  10.098  17.713  0.00  0.00    +0.000 A 
ATOM     29  C   UNL     1      -3.078  10.014  17.319  0.00  0.00    +0.000 A 
ATOM     30  C   UNL     1      -4.016  10.903  17.842  0.00  0.00    +0.000 A 
ATOM     31  C   UNL     1      -3.627  11.851  18.786  0.00  0.00    +0.000 A 
ATOM     32  C   UNL     1      -2.298  11.912  19.204  0.00  0.00    +0.000 A 
ENDBRANCH  26  27
ENDBRANCH  23  26
ENDBRANCH  19  20
ENDBRANCH   3  19
TORSDOF 10
ENDMDL
MODEL 3
REMARK VINA RESULT:      -8.0      1.129      1.361
REMARK  Name = 
REMARK  11 active torsions:
REMARK  status: ('A' for Active; 'I' for Inactive)
REMARK    1  A    between atoms: C_1  and  C_2
REMARK    2  A    between atoms: C_2  and  C_3
REMARK    3  A    between atoms: C_3  and  C_4
REMARK    4  A    between atoms: C_3  and  C_28
REMARK    5  A    between atoms: C_4  and  C_5
REMARK    6  A    between atoms: C_8  and  C_9
REMARK    7  A    between atoms: N_11  and  C_12
REMARK    8  A    between atoms: C_12  and  C_13
REMARK    9  A    between atoms: C_16  and  O_17
REMARK   10  A    between atoms: O_17  and  C_18
REMARK   11  A    between atoms: C_28  and  O_30
REMARK                            x       y       z     vdW  Elec       q    Type
REMARK                         _______ _______ _______ _____ _____    ______ ____
ROOT
ATOM      1  C   UNL     1       2.170   6.306  20.253  0.00  0.00    +0.000 C 
ATOM      2  O   UNL     1       1.590   5.522  20.998  0.00  0.00    +0.000 OA
ATOM      3  N   UNL     1       2.063   7.673  20.354  0.00  0.00    +0.000 N 
ATOM      4  H   UNL     1       2.472   8.269  19.650  0.00  0.00    +0.000 HD
ENDROOT
BRANCH   1   8
ATOM      5  C   UNL     1       4.453   4.813  16.931  0.00  0.00    +0.000 A 
ATOM      6  C   UNL     1       4.173   6.181  17.060  0.00  0.00    +0.000 A 
ATOM      7  C   UNL     1       3.464   6.659  18.166  0.00  0.00    +0.000 A 
ATOM      8  C   UNL     1       3.053   5.782  19.176  0.00  0.00    +0.000 A 
ATOM      9  C   UNL     1       3.391   4.429  19.093  0.00  0.00    +0.000 A 
ATOM     10  C   UNL     1       4.084   3.951  17.975  0.00  0.00    +0.000 A 
BRANCH   5  11
ATOM     11  C   UNL     1       5.035   4.266  15.647  0.00  0.00    +0.000 C 
BRANCH  11  12
ATOM     12  C   UNL     1       6.208   5.019  15.004  0.00  0.00    +0.000 C 
BRANCH  12  14
ATOM     13  C   UNL     1       5.845   3.527  12.924  0.00  0.00    +0.000 C 
ATOM     14  C   UNL     1       6.806   4.383  13.733  0.00  0.00    +0.000 C 
ENDBRANCH  12  14
BRANCH  12  15
ATOM     15  C   UNL     1       7.311   5.237  16.021  0.00  0.00    +0.000 C 
ATOM     16  O   UNL     1       7.905   4.347  16.617  0.00  0.00    +0.000 OA
BRANCH  15  17
ATOM     17  O   UNL     1       7.603   6.549  16.238  0.00  0.00    +0.000 OA
ATOM     18  H   UNL     1       8.417   6.703  16.753  0.00  0.00    +0.000 HD
ENDBRANCH  15  17
ENDBRANCH  12  15
ENDBRANCH  11  12
ENDBRANCH   5  11
ENDBRANCH   1   8
BRANCH   3  19
ATOM     19  C   UNL     1       1.270   8.305  21.391  0.00  0.00    +0.000 C 
BRANCH  19  20
ATOM     20  C   UNL     1       0.392   9.388  20.817  0.00  0.00    +0.000 A 
ATOM     21  C   UNL     1       0.344   9.620  19.435  0.00  0.00    +0.000 A 
ATOM     22  C   UNL     1      -0.483  10.619  18.913  0.00  0.00    +0.000 A 
ATOM     23  C   UNL     1      -1.270  11.399  19.762  0.00  0.00    +0.000 A 
ATOM     24  C   UNL     1      -1.195  11.199  21.143  0.00  0.00    +0.000 A 
ATOM     25  C   UNL     1      -0.399  10.177  21.662  0.00  0.00    +0.000 A 
BRANCH  23  26
ATOM     26  O   UNL     1      -2.040  12.369  19.155  0.00  0.00    +0.000 OA
BRANCH  26  27
ATOM     27  C   UNL     1      -3.361  12.112  18.865  0.00  0.00    +0.000 A 
ATOM     28  C   UNL     1      -3.616  11.503  17.633  0.00  0.00    +0.000 A 
ATOM     29  C   UNL     1      -4.929  11.218  17.251  0.00  0.00    +0.000 A 
ATOM     30  C   UNL     1      -5.988  11.542  18.098  0.00  0.00    +0.000 A 
ATOM     31  C   UNL     1      -5.735  12.116  19.342  0.00  0.00    +0.000 A 
ATOM     32  C   UNL     1      -4.422  12.370  19.737  0.00  0.00    +0.000 A 
ENDBRANCH  26  27
ENDBRANCH  23  26
ENDBRANCH  19  20
ENDBRANCH   3  19
TORSDOF 10
ENDMDL
MODEL 4
REMARK VINA RESULT:      -8.0      1.022      1.616
REMARK  Name = 
REMARK  11 active torsions:
REMARK  status: ('A' for Active; 'I' for Inactive)
REMARK    1  A    between atoms: C_1  and  C_2
REMARK    2  A    between atoms: C_2  and  C_3
REMARK    3  A    between atoms: C_3  and  C_4
REMARK    4  A    between atoms: C_3  and  C_28
REMARK    5  A    between atoms: C_4  and  C_5
REMARK    6  A    between atoms: C_8  and  C_9
REMARK    7  A    between atoms: N_11  and  C_12
REMARK    8  A    between atoms: C_12  and  C_13
REMARK    9  A    between atoms: C_16  and  O_17
REMARK   10  A    between atoms: O_17  and  C_18
REMARK   11  A    between atoms: C_28  and  O_30
REMARK                            x       y       z     vdW  Elec       q    Type
REMARK                         _______ _______ _______ _____ _____    ______ ____
ROOT
ATOM      1  C   UNL     1       2.029   5.910  20.234  0.00  0.00    +0.000 C 
ATOM      2  O   UNL     1       1.140   5.288  20.808  0.00  0.00    +0.000 OA
ATOM      3  N   UNL     1       2.271   7.249  20.428  0.00  0.00    +0.000 N 
ATOM      4  H   UNL     1       2.941   7.734  19.851  0.00  0.00    +0.000 HD
ENDROOT
BRANCH   1   8
ATOM      5  C   UNL     1       4.762   4.161  17.414  0.00  0.00    +0.000 A 
ATOM      6  C   UNL     1       5.147   4.402  18.741  0.00  0.00    +0.000 A 
ATOM      7  C   UNL     1       4.236   4.934  19.659  0.00  0.00    +0.000 A 
ATOM      8  C   UNL     1       2.918   5.202  19.272  0.00  0.00    +0.000 A 
ATOM      9  C   UNL     1       2.506   4.897  17.973  0.00  0.00    +0.000 A 
ATOM     10  C   UNL     1       3.426   4.383  17.053  0.00  0.00    +0.000 A 
BRANCH   5  11
ATOM     11  C   UNL     1       5.792   3.782  16.373  0.00  0.00    +0.000 C 
BRANCH  11  12
ATOM     12  C   UNL     1       6.808   4.847  15.937  0.00  0.00    +0.000 C 
BRANCH  12  14
ATOM     13  C   UNL     1       7.400   6.928  17.351  0.00  0.00    +0.000 C 
ATOM     14  C   UNL     1       6.472   6.301  16.322  0.00  0.00    +0.000 C 
ENDBRANCH  12  14
BRANCH  12  15
ATOM     15  C   UNL     1       7.041   4.766  14.441  0.00  0.00    +0.000 C 
ATOM     16  O   UNL     1       6.449   4.016  13.675  0.00  0.00    +0.000 OA
BRANCH  15  17
ATOM     17  O   UNL     1       8.003   5.620  13.991  0.00  0.00    +0.000 OA
ATOM     18  H   UNL     1       8.473   6.105  14.694  0.00  0.00    +0.000 HD
ENDBRANCH  15  17
ENDBRANCH  12  15
ENDBRANCH  11  12
ENDBRANCH   5  11
ENDBRANCH   1   8
BRANCH   3  19
ATOM     19  C   UNL     1       1.503   8.036  21.374  0.00  0.00    +0.000 C 
BRANCH  19  20
ATOM     20  C   UNL     1       0.723   9.118  20.669  0.00  0.00    +0.000 A 
ATOM     21  C   UNL     1       0.790   9.264  19.277  0.00  0.00    +0.000 A 
ATOM     22  C   UNL     1       0.053  10.262  18.633  0.00  0.00    +0.000 A 
ATOM     23  C   UNL     1      -0.759  11.127  19.371  0.00  0.00    +0.000 A 
ATOM     24  C   UNL     1      -0.798  11.012  20.763  0.00  0.00    +0.000 A 
ATOM     25  C   UNL     1      -0.091   9.991  21.402  0.00  0.00    +0.000 A 
BRANCH  23  26
ATOM     26  O   UNL     1      -1.434  12.089  18.649  0.00  0.00    +0.000 OA
BRANCH  26  27
ATOM     27  C   UNL     1      -2.747  11.880  18.291  0.00  0.00    +0.000 A 
ATOM     28  C   UNL     1      -2.963  11.343  17.019  0.00  0.00    +0.000 A 
ATOM     29  C   UNL     1      -4.264  11.110  16.568  0.00  0.00    +0.000 A 
ATOM     30  C   UNL     1      -5.350  11.415  17.386  0.00  0.00    +0.000 A 
ATOM     31  C   UNL     1      -5.138  11.916  18.668  0.00  0.00    +0.000 A 
ATOM     32  C   UNL     1      -3.839  12.116  19.131  0.00  0.00    +0.000 A 
ENDBRANCH  26  27
ENDBRANCH  23  26
ENDBRANCH  19  20
ENDBRANCH   3  19
TORSDOF 10
ENDMDL
MODEL 5
REMARK VINA RESULT:      -7.8      1.077      1.445
REMARK  Name = 
REMARK  11 active torsions:
REMARK  status: ('A' for Active; 'I' for Inactive)
REMARK    1  A    between atoms: C_1  and  C_2
REMARK    2  A    between atoms: C_2  and  C_3
REMARK    3  A    between atoms: C_3  and  C_4
REMARK    4  A    between atoms: C_3  and  C_28
REMARK    5  A    between atoms: C_4  and  C_5
REMARK    6  A    between atoms: C_8  and  C_9
REMARK    7  A    between atoms: N_11  and  C_12
REMARK    8  A    between atoms: C_12  and  C_13
REMARK    9  A    between atoms: C_16  and  O_17
REMARK   10  A    between atoms: O_17  and  C_18
REMARK   11  A    between atoms: C_28  and  O_30
REMARK                            x       y       z     vdW  Elec       q    Type
REMARK                         _______ _______ _______ _____ _____    ______ ____
ROOT
ATOM      1  C   UNL     1       2.378   5.738  19.372  0.00  0.00    +0.000 C 
ATOM      2  O   UNL     1       1.577   4.932  19.834  0.00  0.00    +0.000 OA
ATOM      3  N   UNL     1       2.563   7.004  19.876  0.00  0.00    +0.000 N 
ATOM      4  H   UNL     1       3.154   7.663  19.392  0.00  0.00    +0.000 HD
ENDROOT
BRANCH   1   8
ATOM      5  C   UNL     1       5.017   4.476  16.221  0.00  0.00    +0.000 A 
ATOM      6  C   UNL     1       4.124   3.577  16.822  0.00  0.00    +0.000 A 
ATOM      7  C   UNL     1       3.243   4.009  17.817  0.00  0.00    +0.000 A 
ATOM      8  C   UNL     1       3.218   5.354  18.204  0.00  0.00    +0.000 A 
ATOM      9  C   UNL     1       4.052   6.271  17.561  0.00  0.00    +0.000 A 
ATOM     10  C   UNL     1       4.946   5.831  16.579  0.00  0.00    +0.000 A 
BRANCH   5  11
ATOM     11  C   UNL     1       6.105   3.977  15.298  0.00  0.00    +0.000 C 
BRANCH  11  12
ATOM     12  C   UNL     1       6.000   4.314  13.804  0.00  0.00    +0.000 C 
BRANCH  12  14
ATOM     13  C   UNL     1       4.615   3.483  11.785  0.00  0.00    +0.000 C 
ATOM     14  C   UNL     1       5.626   3.146  12.871  0.00  0.00    +0.000 C 
ENDBRANCH  12  14
BRANCH  12  15
ATOM     15  C   UNL     1       7.289   4.949  13.318  0.00  0.00    +0.000 C 
ATOM     16  O   UNL     1       7.715   4.889  12.171  0.00  0.00    +0.000 OA
BRANCH  15  17
ATOM     17  O   UNL     1       7.970   5.615  14.291  0.00  0.00    +0.000 OA
ATOM     18  H   UNL     1       8.813   6.008  13.997  0.00  0.00    +0.000 HD
ENDBRANCH  15  17
ENDBRANCH  12  15
ENDBRANCH  11  12
ENDBRANCH   5  11
ENDBRANCH   1   8
BRANCH   3  19
ATOM     19  C   UNL     1       1.838   7.478  21.039  0.00  0.00    +0.000 C 
BRANCH  19  20
ATOM     20  C   UNL     1       1.005   8.688  20.701  0.00  0.00    +0.000 A 
ATOM     21  C   UNL     1       1.097   9.298  19.442  0.00  0.00    +0.000 A 
ATOM     22  C   UNL     1       0.311  10.412  19.135  0.00  0.00    +0.000 A 
ATOM     23  C   UNL     1      -0.576  10.932  20.080  0.00  0.00    +0.000 A 
ATOM     24  C   UNL     1      -0.643  10.353  21.350  0.00  0.00    +0.000 A 
ATOM     25  C   UNL     1       0.115   9.217  21.644  0.00  0.00    +0.000 A 
BRANCH  23  26
ATOM     26  O   UNL     1      -1.296  12.041  19.691  0.00  0.00    +0.000 OA
BRANCH  26  27
ATOM     27  C   UNL     1      -2.500  11.883  19.042  0.00  0.00    +0.000 A 
ATOM     28  C   UNL     1      -2.454  11.247  17.798  0.00  0.00    +0.000 A 
ATOM     29  C   UNL     1      -3.626  11.056  17.064  0.00  0.00    +0.000 A 
ATOM     30  C   UNL     1      -4.846  11.501  17.571  0.00  0.00    +0.000 A 
ATOM     31  C   UNL     1      -4.902  12.102  18.826  0.00  0.00    +0.000 A 
ATOM     32  C   UNL     1      -3.736  12.263  19.573  0.00  0.00    +0.000 A 
ENDBRANCH  26  27
ENDBRANCH  23  26
ENDBRANCH  19  20
ENDBRANCH   3  19
TORSDOF 10
ENDMDL
MODEL 6
REMARK VINA RESULT:      -7.7      1.734      2.549
REMARK  Name = 
REMARK  11 active torsions:
REMARK  status: ('A' for Active; 'I' for Inactive)
REMARK    1  A    between atoms: C_1  and  C_2
REMARK    2  A    between atoms: C_2  and  C_3
REMARK    3  A    between atoms: C_3  and  C_4
REMARK    4  A    between atoms: C_3  and  C_28
REMARK    5  A    between atoms: C_4  and  C_5
REMARK    6  A    between atoms: C_8  and  C_9
REMARK    7  A    between atoms: N_11  and  C_12
REMARK    8  A    between atoms: C_12  and  C_13
REMARK    9  A    between atoms: C_16  and  O_17
REMARK   10  A    between atoms: O_17  and  C_18
REMARK   11  A    between atoms: C_28  and  O_30
REMARK                            x       y       z     vdW  Elec       q    Type
REMARK                         _______ _______ _______ _____ _____    ______ ____
ROOT
ATOM      1  C   UNL     1       2.009   8.027  19.347  0.00  0.00    +0.000 C 
ATOM      2  O   UNL     1       1.594   7.798  20.478  0.00  0.00    +0.000 OA
ATOM      3  N   UNL     1       1.788   9.207  18.677  0.00  0.00    +0.000 N 
ATOM      4  H   UNL     1       2.056   9.301  17.709  0.00  0.00    +0.000 HD
ENDROOT
BRANCH   1   8
ATOM      5  C   UNL     1       4.204   5.176  16.994  0.00  0.00    +0.000 A 
ATOM      6  C   UNL     1       4.673   6.487  17.166  0.00  0.00    +0.000 A 
ATOM      7  C   UNL     1       3.970   7.392  17.967  0.00  0.00    +0.000 A 
ATOM      8  C   UNL     1       2.807   6.992  18.633  0.00  0.00    +0.000 A 
ATOM      9  C   UNL     1       2.373   5.669  18.527  0.00  0.00    +0.000 A 
ATOM     10  C   UNL     1       3.068   4.771  17.709  0.00  0.00    +0.000 A 
BRANCH   5  11
ATOM     11  C   UNL     1       4.842   4.260  15.973  0.00  0.00    +0.000 C 
BRANCH  11  12
ATOM     12  C   UNL     1       5.568   4.897  14.781  0.00  0.00    +0.000 C 
BRANCH  12  14
ATOM     13  C   UNL     1       6.236   3.259  12.896  0.00  0.00    +0.000 C 
ATOM     14  C   UNL     1       5.248   4.302  13.395  0.00  0.00    +0.000 C 
ENDBRANCH  12  14
BRANCH  12  15
ATOM     15  C   UNL     1       7.068   4.867  15.004  0.00  0.00    +0.000 C 
ATOM     16  O   UNL     1       7.632   4.281  15.920  0.00  0.00    +0.000 OA
BRANCH  15  17
ATOM     17  O   UNL     1       7.773   5.573  14.077  0.00  0.00    +0.000 OA
ATOM     18  H   UNL     1       8.346   5.029  13.505  0.00  0.00    +0.000 HD
ENDBRANCH  15  17
ENDBRANCH  12  15
ENDBRANCH  11  12
ENDBRANCH   5  11
ENDBRANCH   1   8
BRANCH   3  19
ATOM     19  C   UNL     1       1.065  10.308  19.284  0.00  0.00    +0.000 C 
BRANCH  19  20
ATOM     20  C   UNL     1      -0.245  10.550  18.577  0.00  0.00    +0.000 A 
ATOM     21  C   UNL     1      -0.777   9.596  17.699  0.00  0.00    +0.000 A 
ATOM     22  C   UNL     1      -1.998   9.826  17.059  0.00  0.00    +0.000 A 
ATOM     23  C   UNL     1      -2.702  11.011  17.286  0.00  0.00    +0.000 A 
ATOM     24  C   UNL     1      -2.157  11.982  18.129  0.00  0.00    +0.000 A 
ATOM     25  C   UNL     1      -0.956  11.736  18.798  0.00  0.00    +0.000 A 
BRANCH  23  26
ATOM     26  O   UNL     1      -3.888  11.154  16.597  0.00  0.00    +0.000 OA
BRANCH  26  27
ATOM     27  C   UNL     1      -5.056  11.393  17.286  0.00  0.00    +0.000 A 
ATOM     28  C   UNL     1      -5.773  12.533  16.911  0.00  0.00    +0.000 A 
ATOM     29  C   UNL     1      -6.962  12.860  17.565  0.00  0.00    +0.000 A 
ATOM     30  C   UNL     1      -7.435  12.051  18.597  0.00  0.00    +0.000 A 
ATOM     31  C   UNL     1      -6.743  10.895  18.950  0.00  0.00    +0.000 A 
ATOM     32  C   UNL     1      -5.574  10.550  18.273  0.00  0.00    +0.000 A 
ENDBRANCH  26  27
ENDBRANCH  23  26
ENDBRANCH  19  20
ENDBRANCH   3  19
TORSDOF 10
ENDMDL
MODEL 7
REMARK VINA RESULT:      -7.7      2.150      3.085
REMARK  Name = 
REMARK  11 active torsions:
REMARK  status: ('A' for Active; 'I' for Inactive)
REMARK    1  A    between atoms: C_1  and  C_2
REMARK    2  A    between atoms: C_2  and  C_3
REMARK    3  A    between atoms: C_3  and  C_4
REMARK    4  A    between atoms: C_3  and  C_28
REMARK    5  A    between atoms: C_4  and  C_5
REMARK    6  A    between atoms: C_8  and  C_9
REMARK    7  A    between atoms: N_11  and  C_12
REMARK    8  A    between atoms: C_12  and  C_13
REMARK    9  A    between atoms: C_16  and  O_17
REMARK   10  A    between atoms: O_17  and  C_18
REMARK   11  A    between atoms: C_28  and  O_30
REMARK                            x       y       z     vdW  Elec       q    Type
REMARK                         _______ _______ _______ _____ _____    ______ ____
ROOT
ATOM      1  C   UNL     1       2.069   5.760  20.161  0.00  0.00    +0.000 C 
ATOM      2  O   UNL     1       1.361   5.120  20.932  0.00  0.00    +0.000 OA
ATOM      3  N   UNL     1       2.145   7.133  20.158  0.00  0.00    +0.000 N 
ATOM      4  H   UNL     1       2.658   7.612  19.432  0.00  0.00    +0.000 HD
ENDROOT
BRANCH   1   8
ATOM      5  C   UNL     1       4.567   3.985  17.147  0.00  0.00    +0.000 A 
ATOM      6  C   UNL     1       5.124   4.646  18.251  0.00  0.00    +0.000 A 
ATOM      7  C   UNL     1       4.301   5.184  19.245  0.00  0.00    +0.000 A 
ATOM      8  C   UNL     1       2.911   5.041  19.167  0.00  0.00    +0.000 A 
ATOM      9  C   UNL     1       2.352   4.321  18.109  0.00  0.00    +0.000 A 
ATOM     10  C   UNL     1       3.177   3.800  17.106  0.00  0.00    +0.000 A 
BRANCH   5  11
ATOM     11  C   UNL     1       5.434   3.584  15.974  0.00  0.00    +0.000 C 
BRANCH  11  12
ATOM     12  C   UNL     1       5.771   4.651  14.923  0.00  0.00    +0.000 C 
BRANCH  12  14
ATOM     13  C   UNL     1       6.178   3.205  12.820  0.00  0.00    +0.000 C 
ATOM     14  C   UNL     1       5.376   4.321  13.471  0.00  0.00    +0.000 C 
ENDBRANCH  12  14
BRANCH  12  15
ATOM     15  C   UNL     1       7.249   4.988  14.975  0.00  0.00    +0.000 C 
ATOM     16  O   UNL     1       7.859   5.613  14.116  0.00  0.00    +0.000 OA
BRANCH  15  17
ATOM     17  O   UNL     1       7.878   4.521  16.089  0.00  0.00    +0.000 OA
ATOM     18  H   UNL     1       7.428   3.771  16.522  0.00  0.00    +0.000 HD
ENDBRANCH  15  17
ENDBRANCH  12  15
ENDBRANCH  11  12
ENDBRANCH   5  11
ENDBRANCH   1   8
BRANCH   3  19
ATOM     19  C   UNL     1       1.409   7.943  21.108  0.00  0.00    +0.000 C 
BRANCH  19  20
ATOM     20  C   UNL     1       0.907   9.211  20.464  0.00  0.00    +0.000 A 
ATOM     21  C   UNL     1       0.447  10.282  21.244  0.00  0.00    +0.000 A 
ATOM     22  C   UNL     1      -0.004  11.457  20.636  0.00  0.00    +0.000 A 
ATOM     23  C   UNL     1      -0.004  11.578  19.245  0.00  0.00    +0.000 A 
ATOM     24  C   UNL     1       0.415  10.499  18.462  0.00  0.00    +0.000 A 
ATOM     25  C   UNL     1       0.902   9.339  19.070  0.00  0.00    +0.000 A 
BRANCH  23  26
ATOM     26  O   UNL     1      -0.482  12.768  18.739  0.00  0.00    +0.000 OA
BRANCH  26  27
ATOM     27  C   UNL     1       0.334  13.877  18.708  0.00  0.00    +0.000 A 
ATOM     28  C   UNL     1       1.677  13.647  18.397  0.00  0.00    +0.000 A 
ATOM     29  C   UNL     1       2.579  14.713  18.356  0.00  0.00    +0.000 A 
ATOM     30  C   UNL     1       2.140  16.008  18.628  0.00  0.00    +0.000 A 
ATOM     31  C   UNL     1       0.795  16.245  18.903  0.00  0.00    +0.000 A 
ATOM     32  C   UNL     1      -0.111  15.186  18.910  0.00  0.00    +0.000 A 
ENDBRANCH  26  27
ENDBRANCH  23  26
ENDBRANCH  19  20
ENDBRANCH   3  19
TORSDOF 10
ENDMDL
MODEL 8
REMARK VINA RESULT:      -7.7      2.321     10.529
REMARK  Name = 
REMARK  11 active torsions:
REMARK  status: ('A' for Active; 'I' for Inactive)
REMARK    1  A    between atoms: C_1  and  C_2
REMARK    2  A    between atoms: C_2  and  C_3
REMARK    3  A    between atoms: C_3  and  C_4
REMARK    4  A    between atoms: C_3  and  C_28
REMARK    5  A    between atoms: C_4  and  C_5
REMARK    6  A    between atoms: C_8  and  C_9
REMARK    7  A    between atoms: N_11  and  C_12
REMARK    8  A    between atoms: C_12  and  C_13
REMARK    9  A    between atoms: C_16  and  O_17
REMARK   10  A    between atoms: O_17  and  C_18
REMARK   11  A    between atoms: C_28  and  O_30
REMARK                            x       y       z     vdW  Elec       q    Type
REMARK                         _______ _______ _______ _____ _____    ______ ____
ROOT
ATOM      1  C   UNL     1       0.286  10.201  19.388  0.00  0.00    +0.000 C 
ATOM      2  O   UNL     1       1.322  10.851  19.289  0.00  0.00    +0.000 OA
ATOM      3  N   UNL     1       0.191   9.023  20.092  0.00  0.00    +0.000 N 
ATOM      4  H   UNL     1      -0.655   8.473  20.051  0.00  0.00    +0.000 HD
ENDROOT
BRANCH   1   8
ATOM      5  C   UNL     1      -3.476  11.440  17.720  0.00  0.00    +0.000 A 
ATOM      6  C   UNL     1      -2.963  12.044  18.877  0.00  0.00    +0.000 A 
ATOM      7  C   UNL     1      -1.720  11.660  19.387  0.00  0.00    +0.000 A 
ATOM      8  C   UNL     1      -0.955  10.690  18.729  0.00  0.00    +0.000 A 
ATOM      9  C   UNL     1      -1.425  10.135  17.536  0.00  0.00    +0.000 A 
ATOM     10  C   UNL     1      -2.678  10.509  17.040  0.00  0.00    +0.000 A 
BRANCH   5  11
ATOM     11  C   UNL     1      -4.900  11.703  17.284  0.00  0.00    +0.000 C 
BRANCH  11  12
ATOM     12  C   UNL     1      -5.966  11.902  18.370  0.00  0.00    +0.000 C 
BRANCH  12  14
ATOM     13  C   UNL     1      -7.003  10.034  19.826  0.00  0.00    +0.000 C 
ATOM     14  C   UNL     1      -7.017  10.782  18.501  0.00  0.00    +0.000 C 
ENDBRANCH  12  14
BRANCH  12  15
ATOM     15  C   UNL     1      -6.674  13.229  18.173  0.00  0.00    +0.000 C 
ATOM     16  O   UNL     1      -7.501  13.706  18.939  0.00  0.00    +0.000 OA
BRANCH  15  17
ATOM     17  O   UNL     1      -6.311  13.877  17.031  0.00  0.00    +0.000 OA
ATOM     18  H   UNL     1      -6.974  13.838  16.316  0.00  0.00    +0.000 HD
ENDBRANCH  15  17
ENDBRANCH  12  15
ENDBRANCH  11  12
ENDBRANCH   5  11
ENDBRANCH   1   8
BRANCH   3  19
ATOM     19  C   UNL     1       1.318   8.469  20.816  0.00  0.00    +0.000 C 
BRANCH  19  20
ATOM     20  C   UNL     1       1.904   7.289  20.083  0.00  0.00    +0.000 A 
ATOM     21  C   UNL     1       2.504   7.447  18.826  0.00  0.00    +0.000 A 
ATOM     22  C   UNL     1       3.055   6.347  18.161  0.00  0.00    +0.000 A 
ATOM     23  C   UNL     1       3.014   5.078  18.742  0.00  0.00    +0.000 A 
ATOM     24  C   UNL     1       2.382   4.908  19.977  0.00  0.00    +0.000 A 
ATOM     25  C   UNL     1       1.865   6.012  20.657  0.00  0.00    +0.000 A 
BRANCH  23  26
ATOM     26  O   UNL     1       3.569   4.054  18.004  0.00  0.00    +0.000 OA
BRANCH  26  27
ATOM     27  C   UNL     1       4.791   4.233  17.396  0.00  0.00    +0.000 A 
ATOM     28  C   UNL     1       5.878   4.457  18.246  0.00  0.00    +0.000 A 
ATOM     29  C   UNL     1       7.153   4.661  17.714  0.00  0.00    +0.000 A 
ATOM     30  C   UNL     1       7.344   4.644  16.334  0.00  0.00    +0.000 A 
ATOM     31  C   UNL     1       6.270   4.385  15.485  0.00  0.00    +0.000 A 
ATOM     32  C   UNL     1       5.004   4.147  16.017  0.00  0.00    +0.000 A 
ENDBRANCH  26  27
ENDBRANCH  23  26
ENDBRANCH  19  20
ENDBRANCH   3  19
TORSDOF 10
ENDMDL
MODEL 9
REMARK VINA RESULT:      -7.7      2.228      3.227
REMARK  Name = 
REMARK  11 active torsions:
REMARK  status: ('A' for Active; 'I' for Inactive)
REMARK    1  A    between atoms: C_1  and  C_2
REMARK    2  A    between atoms: C_2  and  C_3
REMARK    3  A    between atoms: C_3  and  C_4
REMARK    4  A    between atoms: C_3  and  C_28
REMARK    5  A    between atoms: C_4  and  C_5
REMARK    6  A    between atoms: C_8  and  C_9
REMARK    7  A    between atoms: N_11  and  C_12
REMARK    8  A    between atoms: C_12  and  C_13
REMARK    9  A    between atoms: C_16  and  O_17
REMARK   10  A    between atoms: O_17  and  C_18
REMARK   11  A    between atoms: C_28  and  O_30
REMARK                            x       y       z     vdW  Elec       q    Type
REMARK                         _______ _______ _______ _____ _____    ______ ____
ROOT
ATOM      1  C   UNL     1       2.409   5.545  20.244  0.00  0.00    +0.000 C 
ATOM      2  O   UNL     1       2.055   4.939  21.250  0.00  0.00    +0.000 OA
ATOM      3  N   UNL     1       2.164   6.882  20.033  0.00  0.00    +0.000 N 
ATOM      4  H   UNL     1       2.380   7.305  19.142  0.00  0.00    +0.000 HD
ENDROOT
BRANCH   1   8
ATOM      5  C   UNL     1       4.682   3.771  17.056  0.00  0.00    +0.000 A 
ATOM      6  C   UNL     1       5.305   4.204  18.235  0.00  0.00    +0.000 A 
ATOM      7  C   UNL     1       4.550   4.742  19.280  0.00  0.00    +0.000 A 
ATOM      8  C   UNL     1       3.157   4.826  19.176  0.00  0.00    +0.000 A 
ATOM      9  C   UNL     1       2.521   4.330  18.036  0.00  0.00    +0.000 A 
ATOM     10  C   UNL     1       3.282   3.810  16.984  0.00  0.00    +0.000 A 
BRANCH   5  11
ATOM     11  C   UNL     1       5.507   3.381  15.849  0.00  0.00    +0.000 C 
BRANCH  11  12
ATOM     12  C   UNL     1       5.619   4.384  14.693  0.00  0.00    +0.000 C 
BRANCH  12  14
ATOM     13  C   UNL     1       5.503   3.335  12.333  0.00  0.00    +0.000 C 
ATOM     14  C   UNL     1       6.378   3.895  13.443  0.00  0.00    +0.000 C 
ENDBRANCH  12  14
BRANCH  12  15
ATOM     15  C   UNL     1       6.239   5.679  15.180  0.00  0.00    +0.000 C 
ATOM     16  O   UNL     1       7.410   5.818  15.513  0.00  0.00    +0.000 OA
BRANCH  15  17
ATOM     17  O   UNL     1       5.363   6.720  15.230  0.00  0.00    +0.000 OA
ATOM     18  H   UNL     1       5.005   6.905  16.118  0.00  0.00    +0.000 HD
ENDBRANCH  15  17
ENDBRANCH  12  15
ENDBRANCH  11  12
ENDBRANCH   5  11
ENDBRANCH   1   8
BRANCH   3  19
ATOM     19  C   UNL     1       1.486   7.701  21.019  0.00  0.00    +0.000 C 
BRANCH  19  20
ATOM     20  C   UNL     1       1.140   9.055  20.453  0.00  0.00    +0.000 A 
ATOM     21  C   UNL     1       1.188   9.292  19.072  0.00  0.00    +0.000 A 
ATOM     22  C   UNL     1       0.854  10.548  18.558  0.00  0.00    +0.000 A 
ATOM     23  C   UNL     1       0.468  11.582  19.414  0.00  0.00    +0.000 A 
ATOM     24  C   UNL     1       0.458  11.362  20.793  0.00  0.00    +0.000 A 
ATOM     25  C   UNL     1       0.755  10.098  21.305  0.00  0.00    +0.000 A 
BRANCH  23  26
ATOM     26  O   UNL     1       0.173  12.788  18.814  0.00  0.00    +0.000 OA
BRANCH  26  27
ATOM     27  C   UNL     1       1.078  13.823  18.875  0.00  0.00    +0.000 A 
ATOM     28  C   UNL     1       2.231  13.684  18.097  0.00  0.00    +0.000 A 
ATOM     29  C   UNL     1       3.209  14.681  18.108  0.00  0.00    +0.000 A 
ATOM     30  C   UNL     1       3.038  15.816  18.898  0.00  0.00    +0.000 A 
ATOM     31  C   UNL     1       1.874  15.976  19.647  0.00  0.00    +0.000 A 
ATOM     32  C   UNL     1       0.883  14.996  19.610  0.00  0.00    +0.000 A 
ENDBRANCH  26  27
ENDBRANCH  23  26
ENDBRANCH  19  20
ENDBRANCH   3  19
TORSDOF 10
ENDMDL
