MODEL 1
REMARK VINA RESULT:      -6.7      0.000      0.000
REMARK  Name = 
REMARK  9 active torsions:
REMARK  status: ('A' for Active; 'I' for Inactive)
REMARK    1  A    between atoms: C_1  and  C_2
REMARK    2  A    between atoms: C_2  and  N_3
REMARK    3  A    between atoms: C_6  and  C_7
REMARK    4  A    between atoms: C_7  and  C_8
REMARK    5  A    between atoms: N_10  and  C_11
REMARK    6  A    between atoms: C_11  and  C_12
REMARK    7  A    between atoms: C_12  and  C_13
REMARK    8  A    between atoms: C_15  and  C_16
REMARK    9  A    between atoms: C_18  and  C_19
REMARK                            x       y       z     vdW  Elec       q    Type
REMARK                         _______ _______ _______ _____ _____    ______ ____
ROOT
ATOM      1  C   UNL     1       8.188   8.477  18.134  0.00  0.00    +0.000 C 
ATOM      2  O   UNL     1       8.743   7.787  18.991  0.00  0.00    +0.000 OA
ATOM      3  N   UNL     1       7.371   7.956  17.162  0.00  0.00    +0.000 N 
ATOM      4  H   UNL     1       6.810   8.573  16.585  0.00  0.00    +0.000 HD
ENDROOT
BRANCH   1   5
ATOM      5  C   UNL     1       8.401   9.971  18.056  0.00  0.00    +0.000 C 
BRANCH   5   9
ATOM      6  N   UNL     1       9.480  13.307  19.272  0.00  0.00    +0.000 NA
ATOM      7  C   UNL     1       8.876  12.279  20.133  0.00  0.00    +0.000 C 
ATOM      8  C   UNL     1       9.652  10.963  20.074  0.00  0.00    +0.000 C 
ATOM      9  C   UNL     1       9.754  10.418  18.643  0.00  0.00    +0.000 C 
ATOM     10  C   UNL     1      10.400  11.516  17.780  0.00  0.00    +0.000 C 
ATOM     11  C   UNL     1       9.647  12.851  17.879  0.00  0.00    +0.000 C 
BRANCH   6  13
ATOM     12  C   UNL     1       8.018  14.936  18.012  0.00  0.00    +0.000 C 
ATOM     13  C   UNL     1       8.723  14.571  19.322  0.00  0.00    +0.000 C 
ENDBRANCH   6  13
ENDBRANCH   5   9
ENDBRANCH   1   5
BRANCH   3  14
ATOM     14  C   UNL     1       7.138   6.518  17.111  0.00  0.00    +0.000 C 
BRANCH  14  15
ATOM     15  C   UNL     1       6.033   6.128  16.137  0.00  0.00    +0.000 C 
BRANCH  15  16
ATOM     16  C   UNL     1       4.736   5.939  16.874  0.00  0.00    +0.000 A 
ATOM     17  N   UNL     1       4.143   7.029  17.393  0.00  0.00    +0.000 NA
ATOM     18  C   UNL     1       2.969   6.846  18.027  0.00  0.00    +0.000 A 
ATOM     19  C   UNL     1       2.298   8.059  18.602  0.00  0.00    +0.000 C 
ATOM     20  C   UNL     1       2.379   5.602  18.151  0.00  0.00    +0.000 A 
ATOM     21  C   UNL     1       3.063   4.537  17.598  0.00  0.00    +0.000 A 
ATOM     22  C   UNL     1       2.501   3.149  17.638  0.00  0.00    +0.000 C 
ATOM     23  N   UNL     1       4.248   4.687  16.969  0.00  0.00    +0.000 NA
ENDBRANCH  15  16
ENDBRANCH  14  15
ENDBRANCH   3  14
TORSDOF 6
ENDMDL
MODEL 2
REMARK VINA RESULT:      -6.7      1.882      2.219
REMARK  Name = 
REMARK  9 active torsions:
REMARK  status: ('A' for Active; 'I' for Inactive)
REMARK    1  A    between atoms: C_1  and  C_2
REMARK    2  A    between atoms: C_2  and  N_3
REMARK    3  A    between atoms: C_6  and  C_7
REMARK    4  A    between atoms: C_7  and  C_8
REMARK    5  A    between atoms: N_10  and  C_11
REMARK    6  A    between atoms: C_11  and  C_12
REMARK    7  A    between atoms: C_12  and  C_13
REMARK    8  A    between atoms: C_15  and  C_16
REMARK    9  A    between atoms: C_18  and  C_19
REMARK                            x       y       z     vdW  Elec       q    Type
REMARK                         _______ _______ _______ _____ _____    ______ ____
ROOT
ATOM      1  C   UNL     1       8.456   9.168  18.430  0.00  0.00    +0.000 C 
ATOM      2  O   UNL     1       7.780   9.552  17.475  0.00  0.00    +0.000 OA
ATOM      3  N   UNL     1       8.535   7.853  18.818  0.00  0.00    +0.000 N 
ATOM      4  H   UNL     1       9.227   7.565  19.500  0.00  0.00    +0.000 HD
ENDROOT
BRANCH   1   5
ATOM      5  C   UNL     1       9.232  10.135  19.293  0.00  0.00    +0.000 C 
BRANCH   5   9
ATOM      6  N   UNL     1      10.246  13.629  20.028  0.00  0.00    +0.000 NA
ATOM      7  C   UNL     1      11.032  12.449  20.422  0.00  0.00    +0.000 C 
ATOM      8  C   UNL     1      11.369  11.566  19.220  0.00  0.00    +0.000 C 
ATOM      9  C   UNL     1      10.111  11.102  18.475  0.00  0.00    +0.000 C 
ATOM     10  C   UNL     1       9.326  12.362  18.072  0.00  0.00    +0.000 C 
ATOM     11  C   UNL     1       9.030  13.272  19.274  0.00  0.00    +0.000 C 
BRANCH   6  13
ATOM     12  C   UNL     1       9.334  13.701  22.383  0.00  0.00    +0.000 C 
ATOM     13  C   UNL     1       9.913  14.471  21.192  0.00  0.00    +0.000 C 
ENDBRANCH   6  13
ENDBRANCH   5   9
ENDBRANCH   1   5
BRANCH   3  14
ATOM     14  C   UNL     1       7.783   6.840  18.087  0.00  0.00    +0.000 C 
BRANCH  14  15
ATOM     15  C   UNL     1       7.585   5.556  18.882  0.00  0.00    +0.000 C 
BRANCH  15  16
ATOM     16  C   UNL     1       6.124   5.198  18.929  0.00  0.00    +0.000 A 
ATOM     17  N   UNL     1       5.237   6.118  18.512  0.00  0.00    +0.000 NA
ATOM     18  C   UNL     1       3.936   5.770  18.535  0.00  0.00    +0.000 A 
ATOM     19  C   UNL     1       2.940   6.789  18.064  0.00  0.00    +0.000 C 
ATOM     20  C   UNL     1       3.507   4.528  18.965  0.00  0.00    +0.000 A 
ATOM     21  C   UNL     1       4.487   3.650  19.386  0.00  0.00    +0.000 A 
ATOM     22  C   UNL     1       4.143   2.263  19.836  0.00  0.00    +0.000 C 
ATOM     23  N   UNL     1       5.797   3.973  19.387  0.00  0.00    +0.000 NA
ENDBRANCH  15  16
ENDBRANCH  14  15
ENDBRANCH   3  14
TORSDOF 6
ENDMDL
MODEL 3
REMARK VINA RESULT:      -6.7      5.975      9.257
REMARK  Name = 
REMARK  9 active torsions:
REMARK  status: ('A' for Active; 'I' for Inactive)
REMARK    1  A    between atoms: C_1  and  C_2
REMARK    2  A    between atoms: C_2  and  N_3
REMARK    3  A    between atoms: C_6  and  C_7
REMARK    4  A    between atoms: C_7  and  C_8
REMARK    5  A    between atoms: N_10  and  C_11
REMARK    6  A    between atoms: C_11  and  C_12
REMARK    7  A    between atoms: C_12  and  C_13
REMARK    8  A    between atoms: C_15  and  C_16
REMARK    9  A    between atoms: C_18  and  C_19
REMARK                            x       y       z     vdW  Elec       q    Type
REMARK                         _______ _______ _______ _____ _____    ______ ____
ROOT
ATOM      1  C   UNL     1       1.803   8.618  18.377  0.00  0.00    +0.000 C 
ATOM      2  O   UNL     1       2.240   9.064  17.315  0.00  0.00    +0.000 OA
ATOM      3  N   UNL     1       0.797   9.221  19.090  0.00  0.00    +0.000 N 
ATOM      4  H   UNL     1       0.360   8.734  19.865  0.00  0.00    +0.000 HD
ENDROOT
BRANCH   1   5
ATOM      5  C   UNL     1       2.380   7.375  19.014  0.00  0.00    +0.000 C 
BRANCH   5   9
ATOM      6  N   UNL     1       3.138   3.771  19.467  0.00  0.00    +0.000 NA
ATOM      7  C   UNL     1       1.809   4.287  19.107  0.00  0.00    +0.000 C 
ATOM      8  C   UNL     1       1.858   5.145  17.842  0.00  0.00    +0.000 C 
ATOM      9  C   UNL     1       2.832   6.323  17.982  0.00  0.00    +0.000 C 
ATOM     10  C   UNL     1       4.207   5.740  18.346  0.00  0.00    +0.000 C 
ATOM     11  C   UNL     1       4.147   4.840  19.590  0.00  0.00    +0.000 C 
BRANCH   6  13
ATOM     12  C   UNL     1       1.805   3.124  21.513  0.00  0.00    +0.000 C 
ATOM     13  C   UNL     1       3.089   2.954  20.694  0.00  0.00    +0.000 C 
ENDBRANCH   6  13
ENDBRANCH   5   9
ENDBRANCH   1   5
BRANCH   3  14
ATOM     14  C   UNL     1       0.202  10.456  18.593  0.00  0.00    +0.000 C 
BRANCH  14  15
ATOM     15  C   UNL     1      -1.089  10.826  19.311  0.00  0.00    +0.000 C 
BRANCH  15  16
ATOM     16  C   UNL     1      -2.220  10.925  18.324  0.00  0.00    +0.000 A 
ATOM     17  N   UNL     1      -3.350  11.537  18.722  0.00  0.00    +0.000 NA
ATOM     18  C   UNL     1      -4.342  11.640  17.817  0.00  0.00    +0.000 A 
ATOM     19  C   UNL     1      -5.604  12.327  18.251  0.00  0.00    +0.000 C 
ATOM     20  C   UNL     1      -4.227  11.148  16.530  0.00  0.00    +0.000 A 
ATOM     21  C   UNL     1      -3.036  10.526  16.212  0.00  0.00    +0.000 A 
ATOM     22  C   UNL     1      -2.785   9.989  14.836  0.00  0.00    +0.000 C 
ATOM     23  N   UNL     1      -2.029  10.395  17.101  0.00  0.00    +0.000 NA
ENDBRANCH  15  16
ENDBRANCH  14  15
ENDBRANCH   3  14
TORSDOF 6
ENDMDL
MODEL 4
REMARK VINA RESULT:      -6.7      2.033      8.777
REMARK  Name = 
REMARK  9 active torsions:
REMARK  status: ('A' for Active; 'I' for Inactive)
REMARK    1  A    between atoms: C_1  and  C_2
REMARK    2  A    between atoms: C_2  and  N_3
REMARK    3  A    between atoms: C_6  and  C_7
REMARK    4  A    between atoms: C_7  and  C_8
REMARK    5  A    between atoms: N_10  and  C_11
REMARK    6  A    between atoms: C_11  and  C_12
REMARK    7  A    between atoms: C_12  and  C_13
REMARK    8  A    between atoms: C_15  and  C_16
REMARK    9  A    between atoms: C_18  and  C_19
REMARK                            x       y       z     vdW  Elec       q    Type
REMARK                         _______ _______ _______ _____ _____    ______ ____
ROOT
ATOM      1  C   UNL     1       7.483   5.820  18.569  0.00  0.00    +0.000 C 
ATOM      2  O   UNL     1       7.819   5.623  19.738  0.00  0.00    +0.000 OA
ATOM      3  N   UNL     1       7.713   7.000  17.908  0.00  0.00    +0.000 N 
ATOM      4  H   UNL     1       7.569   7.058  16.906  0.00  0.00    +0.000 HD
ENDROOT
BRANCH   1   5
ATOM      5  C   UNL     1       6.738   4.776  17.771  0.00  0.00    +0.000 C 
BRANCH   5   9
ATOM      6  N   UNL     1       3.218   3.855  18.505  0.00  0.00    +0.000 NA
ATOM      7  C   UNL     1       3.935   4.948  19.179  0.00  0.00    +0.000 C 
ATOM      8  C   UNL     1       4.492   5.962  18.180  0.00  0.00    +0.000 C 
ATOM      9  C   UNL     1       5.428   5.308  17.156  0.00  0.00    +0.000 C 
ATOM     10  C   UNL     1       4.639   4.182  16.467  0.00  0.00    +0.000 C 
ATOM     11  C   UNL     1       4.039   3.191  17.475  0.00  0.00    +0.000 C 
BRANCH   6  13
ATOM     12  C   UNL     1       1.288   2.357  19.145  0.00  0.00    +0.000 C 
ATOM     13  C   UNL     1       2.693   2.873  19.471  0.00  0.00    +0.000 C 
ENDBRANCH   6  13
ENDBRANCH   5   9
ENDBRANCH   1   5
BRANCH   3  14
ATOM     14  C   UNL     1       8.379   8.096  18.601  0.00  0.00    +0.000 C 
BRANCH  14  15
ATOM     15  C   UNL     1       8.260   9.425  17.866  0.00  0.00    +0.000 C 
BRANCH  15  16
ATOM     16  C   UNL     1       9.117  10.465  18.536  0.00  0.00    +0.000 A 
ATOM     17  N   UNL     1       8.908  10.707  19.842  0.00  0.00    +0.000 NA
ATOM     18  C   UNL     1       9.701  11.621  20.432  0.00  0.00    +0.000 A 
ATOM     19  C   UNL     1       9.479  11.890  21.891  0.00  0.00    +0.000 C 
ATOM     20  C   UNL     1      10.695  12.295  19.745  0.00  0.00    +0.000 A 
ATOM     21  C   UNL     1      10.831  11.992  18.405  0.00  0.00    +0.000 A 
ATOM     22  C   UNL     1      11.899  12.632  17.570  0.00  0.00    +0.000 C 
ATOM     23  N   UNL     1      10.043  11.091  17.782  0.00  0.00    +0.000 NA
ENDBRANCH  15  16
ENDBRANCH  14  15
ENDBRANCH   3  14
TORSDOF 6
ENDMDL
MODEL 5
REMARK VINA RESULT:      -6.7      1.744      8.777
REMARK  Name = 
REMARK  9 active torsions:
REMARK  status: ('A' for Active; 'I' for Inactive)
REMARK    1  A    between atoms: C_1  and  C_2
REMARK    2  A    between atoms: C_2  and  N_3
REMARK    3  A    between atoms: C_6  and  C_7
REMARK    4  A    between atoms: C_7  and  C_8
REMARK    5  A    between atoms: N_10  and  C_11
REMARK    6  A    between atoms: C_11  and  C_12
REMARK    7  A    between atoms: C_12  and  C_13
REMARK    8  A    between atoms: C_15  and  C_16
REMARK    9  A    between atoms: C_18  and  C_19
REMARK                            x       y       z     vdW  Elec       q    Type
REMARK                         _______ _______ _______ _____ _____    ______ ____
ROOT
ATOM      1  C   UNL     1       6.723   6.639  16.818  0.00  0.00    +0.000 C 
ATOM      2  O   UNL     1       7.640   6.294  16.070  0.00  0.00    +0.000 OA
ATOM      3  N   UNL     1       6.762   7.780  17.581  0.00  0.00    +0.000 N 
ATOM      4  H   UNL     1       5.925   8.107  18.050  0.00  0.00    +0.000 HD
ENDROOT
BRANCH   1   5
ATOM      5  C   UNL     1       5.481   5.797  16.992  0.00  0.00    +0.000 C 
BRANCH   5   9
ATOM      6  N   UNL     1       2.940   3.787  18.803  0.00  0.00    +0.000 NA
ATOM      7  C   UNL     1       4.384   3.714  19.072  0.00  0.00    +0.000 C 
ATOM      8  C   UNL     1       4.968   5.086  19.411  0.00  0.00    +0.000 C 
ATOM      9  C   UNL     1       4.719   6.110  18.295  0.00  0.00    +0.000 C 
ATOM     10  C   UNL     1       3.201   6.164  18.054  0.00  0.00    +0.000 C 
ATOM     11  C   UNL     1       2.608   4.777  17.761  0.00  0.00    +0.000 C 
BRANCH   6  13
ATOM     12  C   UNL     1       0.877   2.332  18.711  0.00  0.00    +0.000 C 
ATOM     13  C   UNL     1       2.384   2.464  18.464  0.00  0.00    +0.000 C 
ENDBRANCH   6  13
ENDBRANCH   5   9
ENDBRANCH   1   5
BRANCH   3  14
ATOM     14  C   UNL     1       7.938   8.641  17.530  0.00  0.00    +0.000 C 
BRANCH  14  15
ATOM     15  C   UNL     1       8.674   8.722  18.861  0.00  0.00    +0.000 C 
BRANCH  15  16
ATOM     16  C   UNL     1       9.200  10.115  19.077  0.00  0.00    +0.000 A 
ATOM     17  N   UNL     1       9.675  10.781  18.010  0.00  0.00    +0.000 NA
ATOM     18  C   UNL     1      10.116  12.036  18.216  0.00  0.00    +0.000 A 
ATOM     19  C   UNL     1      10.641  12.788  17.028  0.00  0.00    +0.000 C 
ATOM     20  C   UNL     1      10.092  12.636  19.462  0.00  0.00    +0.000 A 
ATOM     21  C   UNL     1       9.598  11.875  20.502  0.00  0.00    +0.000 A 
ATOM     22  C   UNL     1       9.488  12.434  21.888  0.00  0.00    +0.000 C 
ATOM     23  N   UNL     1       9.161  10.610  20.330  0.00  0.00    +0.000 NA
ENDBRANCH  15  16
ENDBRANCH  14  15
ENDBRANCH   3  14
TORSDOF 6
ENDMDL
MODEL 6
REMARK VINA RESULT:      -6.6      4.883      6.844
REMARK  Name = 
REMARK  9 active torsions:
REMARK  status: ('A' for Active; 'I' for Inactive)
REMARK    1  A    between atoms: C_1  and  C_2
REMARK    2  A    between atoms: C_2  and  N_3
REMARK    3  A    between atoms: C_6  and  C_7
REMARK    4  A    between atoms: C_7  and  C_8
REMARK    5  A    between atoms: N_10  and  C_11
REMARK    6  A    between atoms: C_11  and  C_12
REMARK    7  A    between atoms: C_12  and  C_13
REMARK    8  A    between atoms: C_15  and  C_16
REMARK    9  A    between atoms: C_18  and  C_19
REMARK                            x       y       z     vdW  Elec       q    Type
REMARK                         _______ _______ _______ _____ _____    ______ ____
ROOT
ATOM      1  C   UNL     1       1.813   4.772  18.114  0.00  0.00    +0.000 C 
ATOM      2  O   UNL     1       1.311   3.940  17.357  0.00  0.00    +0.000 OA
ATOM      3  N   UNL     1       2.672   4.442  19.133  0.00  0.00    +0.000 N 
ATOM      4  H   UNL     1       3.186   5.168  19.620  0.00  0.00    +0.000 HD
ENDROOT
BRANCH   1   5
ATOM      5  C   UNL     1       1.486   6.243  18.007  0.00  0.00    +0.000 C 
BRANCH   5   9
ATOM      6  N   UNL     1       1.212   9.748  19.197  0.00  0.00    +0.000 NA
ATOM      7  C   UNL     1       0.952   8.574  20.044  0.00  0.00    +0.000 C 
ATOM      8  C   UNL     1       2.148   7.622  20.076  0.00  0.00    +0.000 C 
ATOM      9  C   UNL     1       2.544   7.146  18.671  0.00  0.00    +0.000 C 
ATOM     10  C   UNL     1       2.817   8.400  17.824  0.00  0.00    +0.000 C 
ATOM     11  C   UNL     1       1.633   9.379  17.832  0.00  0.00    +0.000 C 
BRANCH   6  13
ATOM     12  C   UNL     1      -1.008  10.285  18.118  0.00  0.00    +0.000 C 
ATOM     13  C   UNL     1       0.052  10.658  19.159  0.00  0.00    +0.000 C 
ENDBRANCH   6  13
ENDBRANCH   5   9
ENDBRANCH   1   5
BRANCH   3  14
ATOM     14  C   UNL     1       3.017   3.044  19.361  0.00  0.00    +0.000 C 
BRANCH  14  15
ATOM     15  C   UNL     1       4.516   2.817  19.508  0.00  0.00    +0.000 C 
BRANCH  15  16
ATOM     16  C   UNL     1       5.271   3.738  18.588  0.00  0.00    +0.000 A 
ATOM     17  N   UNL     1       6.173   4.572  19.135  0.00  0.00    +0.000 NA
ATOM     18  C   UNL     1       6.859   5.370  18.295  0.00  0.00    +0.000 A 
ATOM     19  C   UNL     1       7.872   6.299  18.898  0.00  0.00    +0.000 C 
ATOM     20  C   UNL     1       6.663   5.350  16.927  0.00  0.00    +0.000 A 
ATOM     21  C   UNL     1       5.710   4.470  16.454  0.00  0.00    +0.000 A 
ATOM     22  C   UNL     1       5.439   4.335  14.986  0.00  0.00    +0.000 C 
ATOM     23  N   UNL     1       4.996   3.668  17.271  0.00  0.00    +0.000 NA
ENDBRANCH  15  16
ENDBRANCH  14  15
ENDBRANCH   3  14
TORSDOF 6
ENDMDL
MODEL 7
REMARK VINA RESULT:      -6.6      5.380      8.063
REMARK  Name = 
REMARK  9 active torsions:
REMARK  status: ('A' for Active; 'I' for Inactive)
REMARK    1  A    between atoms: C_1  and  C_2
REMARK    2  A    between atoms: C_2  and  N_3
REMARK    3  A    between atoms: C_6  and  C_7
REMARK    4  A    between atoms: C_7  and  C_8
REMARK    5  A    between atoms: N_10  and  C_11
REMARK    6  A    between atoms: C_11  and  C_12
REMARK    7  A    between atoms: C_12  and  C_13
REMARK    8  A    between atoms: C_15  and  C_16
REMARK    9  A    between atoms: C_18  and  C_19
REMARK                            x       y       z     vdW  Elec       q    Type
REMARK                         _______ _______ _______ _____ _____    ______ ____
ROOT
ATOM      1  C   UNL     1       2.427   6.133  19.822  0.00  0.00    +0.000 C 
ATOM      2  O   UNL     1       1.736   5.165  20.146  0.00  0.00    +0.000 OA
ATOM      3  N   UNL     1       2.204   7.406  20.283  0.00  0.00    +0.000 N 
ATOM      4  H   UNL     1       2.892   8.133  20.122  0.00  0.00    +0.000 HD
ENDROOT
BRANCH   1   5
ATOM      5  C   UNL     1       3.568   6.000  18.840  0.00  0.00    +0.000 C 
BRANCH   5   9
ATOM      6  N   UNL     1       6.290   4.493  16.817  0.00  0.00    +0.000 NA
ATOM      7  C   UNL     1       6.492   5.598  17.766  0.00  0.00    +0.000 C 
ATOM      8  C   UNL     1       6.003   5.238  19.169  0.00  0.00    +0.000 C 
ATOM      9  C   UNL     1       4.521   4.837  19.177  0.00  0.00    +0.000 C 
ATOM     10  C   UNL     1       4.356   3.675  18.184  0.00  0.00    +0.000 C 
ATOM     11  C   UNL     1       4.893   4.022  16.787  0.00  0.00    +0.000 C 
BRANCH   6  13
ATOM     12  C   UNL     1       6.220   3.936  14.355  0.00  0.00    +0.000 C 
ATOM     13  C   UNL     1       6.752   4.850  15.463  0.00  0.00    +0.000 C 
ENDBRANCH   6  13
ENDBRANCH   5   9
ENDBRANCH   1   5
BRANCH   3  14
ATOM     14  C   UNL     1       1.095   7.658  21.196  0.00  0.00    +0.000 C 
BRANCH  14  15
ATOM     15  C   UNL     1       1.248   8.959  21.973  0.00  0.00    +0.000 C 
BRANCH  15  16
ATOM     16  C   UNL     1       0.580  10.085  21.233  0.00  0.00    +0.000 A 
ATOM     17  N   UNL     1       0.645  11.317  21.769  0.00  0.00    +0.000 NA
ATOM     18  C   UNL     1       0.064  12.317  21.080  0.00  0.00    +0.000 A 
ATOM     19  C   UNL     1       0.139  13.696  21.668  0.00  0.00    +0.000 C 
ATOM     20  C   UNL     1      -0.576  12.113  19.871  0.00  0.00    +0.000 A 
ATOM     21  C   UNL     1      -0.604  10.814  19.401  0.00  0.00    +0.000 A 
ATOM     22  C   UNL     1      -1.236  10.479  18.085  0.00  0.00    +0.000 C 
ATOM     23  N   UNL     1      -0.044   9.788  20.076  0.00  0.00    +0.000 NA
ENDBRANCH  15  16
ENDBRANCH  14  15
ENDBRANCH   3  14
TORSDOF 6
ENDMDL
MODEL 8
REMARK VINA RESULT:      -6.5      1.031      2.009
REMARK  Name = 
REMARK  9 active torsions:
REMARK  status: ('A' for Active; 'I' for Inactive)
REMARK    1  A    between atoms: C_1  and  C_2
REMARK    2  A    between atoms: C_2  and  N_3
REMARK    3  A    between atoms: C_6  and  C_7
REMARK    4  A    between atoms: C_7  and  C_8
REMARK    5  A    between atoms: N_10  and  C_11
REMARK    6  A    between atoms: C_11  and  C_12
REMARK    7  A    between atoms: C_12  and  C_13
REMARK    8  A    between atoms: C_15  and  C_16
REMARK    9  A    between atoms: C_18  and  C_19
REMARK                            x       y       z     vdW  Elec       q    Type
REMARK                         _______ _______ _______ _____ _____    ______ ____
ROOT
ATOM      1  C   UNL     1       8.098   8.390  18.082  0.00  0.00    +0.000 C 
ATOM      2  O   UNL     1       8.638   7.652  18.908  0.00  0.00    +0.000 OA
ATOM      3  N   UNL     1       7.289   7.927  17.074  0.00  0.00    +0.000 N 
ATOM      4  H   UNL     1       6.738   8.577  16.525  0.00  0.00    +0.000 HD
ENDROOT
BRANCH   1   5
ATOM      5  C   UNL     1       8.322   9.884  18.085  0.00  0.00    +0.000 C 
BRANCH   5   9
ATOM      6  N   UNL     1       9.583  13.245  19.028  0.00  0.00    +0.000 NA
ATOM      7  C   UNL     1       8.834  12.367  19.940  0.00  0.00    +0.000 C 
ATOM      8  C   UNL     1       9.499  10.998  20.083  0.00  0.00    +0.000 C 
ATOM      9  C   UNL     1       9.661  10.291  18.730  0.00  0.00    +0.000 C 
ATOM     10  C   UNL     1      10.458  11.235  17.813  0.00  0.00    +0.000 C 
ATOM     11  C   UNL     1       9.813  12.626  17.709  0.00  0.00    +0.000 C 
BRANCH   6  13
ATOM     12  C   UNL     1       7.520  14.502  18.291  0.00  0.00    +0.000 C 
ATOM     13  C   UNL     1       8.932  14.560  18.883  0.00  0.00    +0.000 C 
ENDBRANCH   6  13
ENDBRANCH   5   9
ENDBRANCH   1   5
BRANCH   3  14
ATOM     14  C   UNL     1       7.046   6.495  16.945  0.00  0.00    +0.000 C 
BRANCH  14  15
ATOM     15  C   UNL     1       5.641   6.172  16.454  0.00  0.00    +0.000 C 
BRANCH  15  16
ATOM     16  C   UNL     1       4.778   5.734  17.606  0.00  0.00    +0.000 A 
ATOM     17  N   UNL     1       4.950   4.489  18.084  0.00  0.00    +0.000 NA
ATOM     18  C   UNL     1       4.189   4.124  19.132  0.00  0.00    +0.000 A 
ATOM     19  C   UNL     1       4.381   2.738  19.676  0.00  0.00    +0.000 C 
ATOM     20  C   UNL     1       3.263   4.973  19.709  0.00  0.00    +0.000 A 
ATOM     21  C   UNL     1       3.145   6.229  19.147  0.00  0.00    +0.000 A 
ATOM     22  C   UNL     1       2.202   7.247  19.713  0.00  0.00    +0.000 C 
ATOM     23  N   UNL     1       3.884   6.620  18.088  0.00  0.00    +0.000 NA
ENDBRANCH  15  16
ENDBRANCH  14  15
ENDBRANCH   3  14
TORSDOF 6
ENDMDL
MODEL 9
REMARK VINA RESULT:      -6.4      3.365      7.982
REMARK  Name = 
REMARK  9 active torsions:
REMARK  status: ('A' for Active; 'I' for Inactive)
REMARK    1  A    between atoms: C_1  and  C_2
REMARK    2  A    between atoms: C_2  and  N_3
REMARK    3  A    between atoms: C_6  and  C_7
REMARK    4  A    between atoms: C_7  and  C_8
REMARK    5  A    between atoms: N_10  and  C_11
REMARK    6  A    between atoms: C_11  and  C_12
REMARK    7  A    between atoms: C_12  and  C_13
REMARK    8  A    between atoms: C_15  and  C_16
REMARK    9  A    between atoms: C_18  and  C_19
REMARK                            x       y       z     vdW  Elec       q    Type
REMARK                         _______ _______ _______ _____ _____    ______ ____
ROOT
ATOM      1  C   UNL     1       4.407   5.749  17.362  0.00  0.00    +0.000 C 
ATOM      2  O   UNL     1       4.317   6.573  16.450  0.00  0.00    +0.000 OA
ATOM      3  N   UNL     1       5.010   4.525  17.215  0.00  0.00    +0.000 N 
ATOM      4  H   UNL     1       5.206   3.953  18.028  0.00  0.00    +0.000 HD
ENDROOT
BRANCH   1   5
ATOM      5  C   UNL     1       3.813   6.008  18.727  0.00  0.00    +0.000 C 
BRANCH   5   9
ATOM      6  N   UNL     1       1.100   4.009  20.282  0.00  0.00    +0.000 NA
ATOM      7  C   UNL     1       1.748   5.156  20.935  0.00  0.00    +0.000 C 
ATOM      8  C   UNL     1       1.663   6.419  20.078  0.00  0.00    +0.000 C 
ATOM      9  C   UNL     1       2.287   6.217  18.691  0.00  0.00    +0.000 C 
ATOM     10  C   UNL     1       1.576   5.019  18.039  0.00  0.00    +0.000 C 
ATOM     11  C   UNL     1       1.620   3.764  18.923  0.00  0.00    +0.000 C 
BRANCH   6  13
ATOM     12  C   UNL     1       2.599   2.502  21.647  0.00  0.00    +0.000 C 
ATOM     13  C   UNL     1       1.195   2.789  21.106  0.00  0.00    +0.000 C 
ENDBRANCH   6  13
ENDBRANCH   5   9
ENDBRANCH   1   5
BRANCH   3  14
ATOM     14  C   UNL     1       5.571   4.149  15.922  0.00  0.00    +0.000 C 
BRANCH  14  15
ATOM     15  C   UNL     1       7.044   4.515  15.785  0.00  0.00    +0.000 C 
BRANCH  15  16
ATOM     16  C   UNL     1       7.461   5.415  16.916  0.00  0.00    +0.000 A 
ATOM     17  N   UNL     1       7.510   6.739  16.680  0.00  0.00    +0.000 NA
ATOM     18  C   UNL     1       7.860   7.532  17.711  0.00  0.00    +0.000 A 
ATOM     19  C   UNL     1       7.910   9.010  17.458  0.00  0.00    +0.000 C 
ATOM     20  C   UNL     1       8.158   7.032  18.965  0.00  0.00    +0.000 A 
ATOM     21  C   UNL     1       8.093   5.660  19.113  0.00  0.00    +0.000 A 
ATOM     22  C   UNL     1       8.358   5.009  20.436  0.00  0.00    +0.000 C 
ATOM     23  N   UNL     1       7.760   4.838  18.096  0.00  0.00    +0.000 NA
ENDBRANCH  15  16
ENDBRANCH  14  15
ENDBRANCH   3  14
TORSDOF 6
ENDMDL
