MODEL 1
REMARK VINA RESULT:      -8.4      0.000      0.000
REMARK  Name = 
REMARK  8 active torsions:
REMARK  status: ('A' for Active; 'I' for Inactive)
REMARK    1  A    between atoms: C_1  and  C_2
REMARK    2  A    between atoms: N_4  and  C_5
REMARK    3  A    between atoms: C_8  and  C_9
REMARK    4  A    between atoms: C_9  and  C_10
REMARK    5  A    between atoms: C_10  and  N_11
REMARK    6  A    between atoms: C_14  and  O_15
REMARK    7  A    between atoms: O_15  and  C_16
REMARK    8  A    between atoms: C_20  and  C_21
REMARK                            x       y       z     vdW  Elec       q    Type
REMARK                         _______ _______ _______ _____ _____    ______ ____
ROOT
ATOM      1  N   UNL     1       7.928   7.065  17.800  0.00  0.00    +0.000 NA
ATOM      2  C   UNL     1       7.802   5.895  18.685  0.00  0.00    +0.000 C 
ATOM      3  C   UNL     1       7.363   4.650  17.915  0.00  0.00    +0.000 C 
ATOM      4  C   UNL     1       6.028   4.883  17.211  0.00  0.00    +0.000 C 
ATOM      5  C   UNL     1       6.156   6.113  16.313  0.00  0.00    +0.000 C 
ATOM      6  C   UNL     1       6.661   7.328  17.089  0.00  0.00    +0.000 C 
ENDROOT
BRANCH   1   7
ATOM      7  C   UNL     1       8.315   8.271  18.559  0.00  0.00    +0.000 C 
BRANCH   7   8
ATOM      8  C   UNL     1       8.183   9.599  17.790  0.00  0.00    +0.000 C 
BRANCH   8  12
ATOM      9  C   UNL     1      10.197  13.049  19.681  0.00  0.00    +0.000 C 
ATOM     10  C   UNL     1       9.796  13.132  18.204  0.00  0.00    +0.000 C 
ATOM     11  C   UNL     1       8.745  12.088  17.834  0.00  0.00    +0.000 C 
ATOM     12  C   UNL     1       9.221  10.669  18.177  0.00  0.00    +0.000 C 
ATOM     13  C   UNL     1       9.549  10.585  19.675  0.00  0.00    +0.000 C 
ATOM     14  C   UNL     1      10.599  11.620  20.071  0.00  0.00    +0.000 C 
BRANCH   9  18
ATOM     15  C   UNL     1       9.968  15.873  20.733  0.00  0.00    +0.000 C 
ATOM     16  C   UNL     1      11.283  15.258  20.350  0.00  0.00    +0.000 C 
ATOM     17  O   UNL     1      12.333  15.897  20.384  0.00  0.00    +0.000 OA
ATOM     18  N   UNL     1      11.309  13.953  19.958  0.00  0.00    +0.000 N 
ATOM     19  H   UNL     1      12.234  13.667  19.655  0.00  0.00    +0.000 HD
ENDBRANCH   9  18
ENDBRANCH   8  12
ENDBRANCH   7   8
ENDBRANCH   1   7
BRANCH   4  20
ATOM     20  O   UNL     1       4.979   5.131  18.163  0.00  0.00    +0.000 OA
BRANCH  20  21
ATOM     21  C   UNL     1       4.077   4.135  18.415  0.00  0.00    +0.000 A 
ATOM     22  C   UNL     1       4.191   3.007  17.598  0.00  0.00    +0.000 A 
ATOM     23  C   UNL     1       3.334   1.916  17.763  0.00  0.00    +0.000 A 
ATOM     24  C   UNL     1       2.350   1.952  18.752  0.00  0.00    +0.000 A 
ATOM     25  C   UNL     1       2.220   3.075  19.577  0.00  0.00    +0.000 A 
ATOM     26  C   UNL     1       3.087   4.164  19.393  0.00  0.00    +0.000 A 
BRANCH  25  27
ATOM     27  C   UNL     1       1.182   3.155  20.666  0.00  0.00    +0.000 C 
ATOM     28  F   UNL     1      -0.094   2.977  20.225  0.00  0.00    +0.000 F 
ATOM     29  F   UNL     1       1.378   2.223  21.638  0.00  0.00    +0.000 F 
ATOM     30  F   UNL     1       1.194   4.361  21.301  0.00  0.00    +0.000 F 
ENDBRANCH  25  27
ENDBRANCH  20  21
ENDBRANCH   4  20
TORSDOF 7
ENDMDL
MODEL 2
REMARK VINA RESULT:      -8.3      0.914      1.500
REMARK  Name = 
REMARK  8 active torsions:
REMARK  status: ('A' for Active; 'I' for Inactive)
REMARK    1  A    between atoms: C_1  and  C_2
REMARK    2  A    between atoms: N_4  and  C_5
REMARK    3  A    between atoms: C_8  and  C_9
REMARK    4  A    between atoms: C_9  and  C_10
REMARK    5  A    between atoms: C_10  and  N_11
REMARK    6  A    between atoms: C_14  and  O_15
REMARK    7  A    between atoms: O_15  and  C_16
REMARK    8  A    between atoms: C_20  and  C_21
REMARK                            x       y       z     vdW  Elec       q    Type
REMARK                         _______ _______ _______ _____ _____    ______ ____
ROOT
ATOM      1  N   UNL     1       7.444   7.495  17.253  0.00  0.00    +0.000 NA
ATOM      2  C   UNL     1       7.787   6.511  18.293  0.00  0.00    +0.000 C 
ATOM      3  C   UNL     1       7.613   5.078  17.791  0.00  0.00    +0.000 C 
ATOM      4  C   UNL     1       6.179   4.829  17.328  0.00  0.00    +0.000 C 
ATOM      5  C   UNL     1       5.819   5.869  16.268  0.00  0.00    +0.000 C 
ATOM      6  C   UNL     1       6.065   7.291  16.766  0.00  0.00    +0.000 C 
ENDROOT
BRANCH   1   7
ATOM      7  C   UNL     1       7.578   8.876  17.759  0.00  0.00    +0.000 C 
BRANCH   7   8
ATOM      8  C   UNL     1       8.882   9.167  18.526  0.00  0.00    +0.000 C 
BRANCH   8  12
ATOM      9  C   UNL     1      10.208  13.379  18.716  0.00  0.00    +0.000 C 
ATOM     10  C   UNL     1      10.659  12.402  19.806  0.00  0.00    +0.000 C 
ATOM     11  C   UNL     1      10.505  10.945  19.373  0.00  0.00    +0.000 C 
ATOM     12  C   UNL     1       9.063  10.638  18.946  0.00  0.00    +0.000 C 
ATOM     13  C   UNL     1       8.653  11.580  17.804  0.00  0.00    +0.000 C 
ATOM     14  C   UNL     1       8.798  13.043  18.213  0.00  0.00    +0.000 C 
BRANCH   9  18
ATOM     15  C   UNL     1      12.150  15.550  17.907  0.00  0.00    +0.000 C 
ATOM     16  C   UNL     1      11.110  15.752  18.972  0.00  0.00    +0.000 C 
ATOM     17  O   UNL     1      11.038  16.795  19.619  0.00  0.00    +0.000 OA
ATOM     18  N   UNL     1      10.223  14.748  19.223  0.00  0.00    +0.000 N 
ATOM     19  H   UNL     1       9.617  14.966  20.007  0.00  0.00    +0.000 HD
ENDBRANCH   9  18
ENDBRANCH   8  12
ENDBRANCH   7   8
ENDBRANCH   1   7
BRANCH   4  20
ATOM     20  O   UNL     1       5.253   4.964  18.420  0.00  0.00    +0.000 OA
BRANCH  20  21
ATOM     21  C   UNL     1       4.188   4.111  18.483  0.00  0.00    +0.000 A 
ATOM     22  C   UNL     1       4.190   3.083  17.535  0.00  0.00    +0.000 A 
ATOM     23  C   UNL     1       3.160   2.140  17.502  0.00  0.00    +0.000 A 
ATOM     24  C   UNL     1       2.115   2.222  18.423  0.00  0.00    +0.000 A 
ATOM     25  C   UNL     1       2.096   3.246  19.377  0.00  0.00    +0.000 A 
ATOM     26  C   UNL     1       3.136   4.188  19.392  0.00  0.00    +0.000 A 
BRANCH  25  27
ATOM     27  C   UNL     1       0.996   3.370  20.399  0.00  0.00    +0.000 C 
ATOM     28  F   UNL     1       0.772   4.647  20.816  0.00  0.00    +0.000 F 
ATOM     29  F   UNL     1      -0.198   2.911  19.934  0.00  0.00    +0.000 F 
ATOM     30  F   UNL     1       1.256   2.647  21.526  0.00  0.00    +0.000 F 
ENDBRANCH  25  27
ENDBRANCH  20  21
ENDBRANCH   4  20
TORSDOF 7
ENDMDL
MODEL 3
REMARK VINA RESULT:      -8.3      1.199      1.802
REMARK  Name = 
REMARK  8 active torsions:
REMARK  status: ('A' for Active; 'I' for Inactive)
REMARK    1  A    between atoms: C_1  and  C_2
REMARK    2  A    between atoms: N_4  and  C_5
REMARK    3  A    between atoms: C_8  and  C_9
REMARK    4  A    between atoms: C_9  and  C_10
REMARK    5  A    between atoms: C_10  and  N_11
REMARK    6  A    between atoms: C_14  and  O_15
REMARK    7  A    between atoms: O_15  and  C_16
REMARK    8  A    between atoms: C_20  and  C_21
REMARK                            x       y       z     vdW  Elec       q    Type
REMARK                         _______ _______ _______ _____ _____    ______ ____
ROOT
ATOM      1  N   UNL     1       7.744   6.832  18.038  0.00  0.00    +0.000 NA
ATOM      2  C   UNL     1       7.054   5.987  19.025  0.00  0.00    +0.000 C 
ATOM      3  C   UNL     1       6.313   4.830  18.357  0.00  0.00    +0.000 C 
ATOM      4  C   UNL     1       5.289   5.346  17.346  0.00  0.00    +0.000 C 
ATOM      5  C   UNL     1       6.006   6.244  16.338  0.00  0.00    +0.000 C 
ATOM      6  C   UNL     1       6.796   7.351  17.032  0.00  0.00    +0.000 C 
ENDROOT
BRANCH   1   7
ATOM      7  C   UNL     1       8.426   7.968  18.690  0.00  0.00    +0.000 C 
BRANCH   7   8
ATOM      8  C   UNL     1       8.251   9.327  17.986  0.00  0.00    +0.000 C 
BRANCH   8  12
ATOM      9  C   UNL     1      10.031  12.988  19.709  0.00  0.00    +0.000 C 
ATOM     10  C   UNL     1       9.996  12.816  18.186  0.00  0.00    +0.000 C 
ATOM     11  C   UNL     1       8.983  11.761  17.750  0.00  0.00    +0.000 C 
ATOM     12  C   UNL     1       9.251  10.412  18.432  0.00  0.00    +0.000 C 
ATOM     13  C   UNL     1       9.210  10.589  19.957  0.00  0.00    +0.000 C 
ATOM     14  C   UNL     1      10.216  11.641  20.419  0.00  0.00    +0.000 C 
BRANCH   9  18
ATOM     15  C   UNL     1       9.907  16.009  19.739  0.00  0.00    +0.000 C 
ATOM     16  C   UNL     1      11.164  15.248  20.055  0.00  0.00    +0.000 C 
ATOM     17  O   UNL     1      12.229  15.820  20.279  0.00  0.00    +0.000 OA
ATOM     18  N   UNL     1      11.115  13.887  20.094  0.00  0.00    +0.000 N 
ATOM     19  H   UNL     1      12.032  13.480  20.244  0.00  0.00    +0.000 HD
ENDBRANCH   9  18
ENDBRANCH   8  12
ENDBRANCH   7   8
ENDBRANCH   1   7
BRANCH   4  20
ATOM     20  O   UNL     1       4.271   6.125  17.996  0.00  0.00    +0.000 OA
BRANCH  20  21
ATOM     21  C   UNL     1       3.301   5.473  18.705  0.00  0.00    +0.000 A 
ATOM     22  C   UNL     1       2.737   6.202  19.755  0.00  0.00    +0.000 A 
ATOM     23  C   UNL     1       1.729   5.650  20.549  0.00  0.00    +0.000 A 
ATOM     24  C   UNL     1       1.279   4.353  20.293  0.00  0.00    +0.000 A 
ATOM     25  C   UNL     1       1.834   3.608  19.247  0.00  0.00    +0.000 A 
ATOM     26  C   UNL     1       2.850   4.178  18.464  0.00  0.00    +0.000 A 
BRANCH  25  27
ATOM     27  C   UNL     1       1.373   2.211  18.924  0.00  0.00    +0.000 C 
ATOM     28  F   UNL     1       2.042   1.635  17.887  0.00  0.00    +0.000 F 
ATOM     29  F   UNL     1       1.514   1.362  19.980  0.00  0.00    +0.000 F 
ATOM     30  F   UNL     1       0.053   2.168  18.589  0.00  0.00    +0.000 F 
ENDBRANCH  25  27
ENDBRANCH  20  21
ENDBRANCH   4  20
TORSDOF 7
ENDMDL
MODEL 4
REMARK VINA RESULT:      -8.2      1.110      1.686
REMARK  Name = 
REMARK  8 active torsions:
REMARK  status: ('A' for Active; 'I' for Inactive)
REMARK    1  A    between atoms: C_1  and  C_2
REMARK    2  A    between atoms: N_4  and  C_5
REMARK    3  A    between atoms: C_8  and  C_9
REMARK    4  A    between atoms: C_9  and  C_10
REMARK    5  A    between atoms: C_10  and  N_11
REMARK    6  A    between atoms: C_14  and  O_15
REMARK    7  A    between atoms: O_15  and  C_16
REMARK    8  A    between atoms: C_20  and  C_21
REMARK                            x       y       z     vdW  Elec       q    Type
REMARK                         _______ _______ _______ _____ _____    ______ ____
ROOT
ATOM      1  N   UNL     1       7.850   6.964  17.946  0.00  0.00    +0.000 NA
ATOM      2  C   UNL     1       7.378   5.974  18.928  0.00  0.00    +0.000 C 
ATOM      3  C   UNL     1       6.730   4.769  18.247  0.00  0.00    +0.000 C 
ATOM      4  C   UNL     1       5.552   5.200  17.375  0.00  0.00    +0.000 C 
ATOM      5  C   UNL     1       6.042   6.246  16.373  0.00  0.00    +0.000 C 
ATOM      6  C   UNL     1       6.747   7.407  17.071  0.00  0.00    +0.000 C 
ENDROOT
BRANCH   1   7
ATOM      7  C   UNL     1       8.440   8.141  18.614  0.00  0.00    +0.000 C 
BRANCH   7   8
ATOM      8  C   UNL     1       8.187   9.487  17.911  0.00  0.00    +0.000 C 
BRANCH   8  12
ATOM      9  C   UNL     1      10.517  12.943  19.382  0.00  0.00    +0.000 C 
ATOM     10  C   UNL     1      10.391  11.695  20.262  0.00  0.00    +0.000 C 
ATOM     11  C   UNL     1       9.962  10.467  19.461  0.00  0.00    +0.000 C 
ATOM     12  C   UNL     1       8.649  10.723  18.708  0.00  0.00    +0.000 C 
ATOM     13  C   UNL     1       8.816  11.933  17.777  0.00  0.00    +0.000 C 
ATOM     14  C   UNL     1       9.246  13.174  18.555  0.00  0.00    +0.000 C 
BRANCH   9  18
ATOM     15  C   UNL     1      12.121  15.369  18.555  0.00  0.00    +0.000 C 
ATOM     16  C   UNL     1      11.551  15.209  19.936  0.00  0.00    +0.000 C 
ATOM     17  O   UNL     1      11.765  16.030  20.826  0.00  0.00    +0.000 OA
ATOM     18  N   UNL     1      10.776  14.121  20.205  0.00  0.00    +0.000 N 
ATOM     19  H   UNL     1      10.508  14.079  21.182  0.00  0.00    +0.000 HD
ENDBRANCH   9  18
ENDBRANCH   8  12
ENDBRANCH   7   8
ENDBRANCH   1   7
BRANCH   4  20
ATOM     20  O   UNL     1       4.511   5.794  18.169  0.00  0.00    +0.000 OA
BRANCH  20  21
ATOM     21  C   UNL     1       3.479   5.003  18.589  0.00  0.00    +0.000 A 
ATOM     22  C   UNL     1       2.508   4.726  17.623  0.00  0.00    +0.000 A 
ATOM     23  C   UNL     1       1.408   3.920  17.925  0.00  0.00    +0.000 A 
ATOM     24  C   UNL     1       1.272   3.385  19.207  0.00  0.00    +0.000 A 
ATOM     25  C   UNL     1       2.234   3.655  20.188  0.00  0.00    +0.000 A 
ATOM     26  C   UNL     1       3.330   4.471  19.867  0.00  0.00    +0.000 A 
BRANCH  25  27
ATOM     27  C   UNL     1       2.138   3.091  21.582  0.00  0.00    +0.000 C 
ATOM     28  F   UNL     1       3.059   2.124  21.849  0.00  0.00    +0.000 F 
ATOM     29  F   UNL     1       2.304   4.045  22.539  0.00  0.00    +0.000 F 
ATOM     30  F   UNL     1       0.920   2.528  21.827  0.00  0.00    +0.000 F 
ENDBRANCH  25  27
ENDBRANCH  20  21
ENDBRANCH   4  20
TORSDOF 7
ENDMDL
MODEL 5
REMARK VINA RESULT:      -8.1      1.125      1.443
REMARK  Name = 
REMARK  8 active torsions:
REMARK  status: ('A' for Active; 'I' for Inactive)
REMARK    1  A    between atoms: C_1  and  C_2
REMARK    2  A    between atoms: N_4  and  C_5
REMARK    3  A    between atoms: C_8  and  C_9
REMARK    4  A    between atoms: C_9  and  C_10
REMARK    5  A    between atoms: C_10  and  N_11
REMARK    6  A    between atoms: C_14  and  O_15
REMARK    7  A    between atoms: O_15  and  C_16
REMARK    8  A    between atoms: C_20  and  C_21
REMARK                            x       y       z     vdW  Elec       q    Type
REMARK                         _______ _______ _______ _____ _____    ______ ____
ROOT
ATOM      1  N   UNL     1       8.160   7.708  17.889  0.00  0.00    +0.000 NA
ATOM      2  C   UNL     1       7.903   6.985  19.146  0.00  0.00    +0.000 C 
ATOM      3  C   UNL     1       7.802   5.478  18.918  0.00  0.00    +0.000 C 
ATOM      4  C   UNL     1       6.692   5.147  17.923  0.00  0.00    +0.000 C 
ATOM      5  C   UNL     1       6.948   5.919  16.629  0.00  0.00    +0.000 C 
ATOM      6  C   UNL     1       7.115   7.415  16.889  0.00  0.00    +0.000 C 
ENDROOT
BRANCH   1   7
ATOM      7  C   UNL     1       8.218   9.166  18.114  0.00  0.00    +0.000 C 
BRANCH   7   8
ATOM      8  C   UNL     1       9.204   9.621  19.207  0.00  0.00    +0.000 C 
BRANCH   8  12
ATOM      9  C   UNL     1      10.702  13.756  18.771  0.00  0.00    +0.000 C 
ATOM     10  C   UNL     1      10.164  13.020  17.539  0.00  0.00    +0.000 C 
ATOM     11  C   UNL     1       9.296  11.822  17.919  0.00  0.00    +0.000 C 
ATOM     12  C   UNL     1      10.056  10.848  18.832  0.00  0.00    +0.000 C 
ATOM     13  C   UNL     1      10.524  11.587  20.095  0.00  0.00    +0.000 C 
ATOM     14  C   UNL     1      11.394  12.790  19.741  0.00  0.00    +0.000 C 
BRANCH   9  18
ATOM     15  C   UNL     1      10.137  16.724  18.660  0.00  0.00    +0.000 C 
ATOM     16  C   UNL     1      11.444  16.133  18.216  0.00  0.00    +0.000 C 
ATOM     17  O   UNL     1      12.333  16.823  17.720  0.00  0.00    +0.000 OA
ATOM     18  N   UNL     1      11.647  14.794  18.370  0.00  0.00    +0.000 N 
ATOM     19  H   UNL     1      12.530  14.496  17.971  0.00  0.00    +0.000 HD
ENDBRANCH   9  18
ENDBRANCH   8  12
ENDBRANCH   7   8
ENDBRANCH   1   7
BRANCH   4  20
ATOM     20  O   UNL     1       5.407   5.542  18.433  0.00  0.00    +0.000 OA
BRANCH  20  21
ATOM     21  C   UNL     1       4.440   4.587  18.575  0.00  0.00    +0.000 A 
ATOM     22  C   UNL     1       4.546   3.495  17.708  0.00  0.00    +0.000 A 
ATOM     23  C   UNL     1       3.624   2.448  17.761  0.00  0.00    +0.000 A 
ATOM     24  C   UNL     1       2.581   2.489  18.689  0.00  0.00    +0.000 A 
ATOM     25  C   UNL     1       2.458   3.575  19.562  0.00  0.00    +0.000 A 
ATOM     26  C   UNL     1       3.392   4.621  19.491  0.00  0.00    +0.000 A 
BRANCH  25  27
ATOM     27  C   UNL     1       1.358   3.659  20.588  0.00  0.00    +0.000 C 
ATOM     28  F   UNL     1       1.708   3.174  21.812  0.00  0.00    +0.000 F 
ATOM     29  F   UNL     1       0.940   4.938  20.796  0.00  0.00    +0.000 F 
ATOM     30  F   UNL     1       0.248   2.963  20.212  0.00  0.00    +0.000 F 
ENDBRANCH  25  27
ENDBRANCH  20  21
ENDBRANCH   4  20
TORSDOF 7
ENDMDL
MODEL 6
REMARK VINA RESULT:      -8.1      0.912      1.273
REMARK  Name = 
REMARK  8 active torsions:
REMARK  status: ('A' for Active; 'I' for Inactive)
REMARK    1  A    between atoms: C_1  and  C_2
REMARK    2  A    between atoms: N_4  and  C_5
REMARK    3  A    between atoms: C_8  and  C_9
REMARK    4  A    between atoms: C_9  and  C_10
REMARK    5  A    between atoms: C_10  and  N_11
REMARK    6  A    between atoms: C_14  and  O_15
REMARK    7  A    between atoms: O_15  and  C_16
REMARK    8  A    between atoms: C_20  and  C_21
REMARK                            x       y       z     vdW  Elec       q    Type
REMARK                         _______ _______ _______ _____ _____    ______ ____
ROOT
ATOM      1  N   UNL     1       7.598   7.465  17.258  0.00  0.00    +0.000 NA
ATOM      2  C   UNL     1       7.696   6.496  18.362  0.00  0.00    +0.000 C 
ATOM      3  C   UNL     1       7.369   5.078  17.899  0.00  0.00    +0.000 C 
ATOM      4  C   UNL     1       5.964   5.006  17.303  0.00  0.00    +0.000 C 
ATOM      5  C   UNL     1       5.858   6.031  16.174  0.00  0.00    +0.000 C 
ATOM      6  C   UNL     1       6.256   7.429  16.642  0.00  0.00    +0.000 C 
ENDROOT
BRANCH   1   7
ATOM      7  C   UNL     1       7.878   8.837  17.724  0.00  0.00    +0.000 C 
BRANCH   7   8
ATOM      8  C   UNL     1       8.904   8.942  18.869  0.00  0.00    +0.000 C 
BRANCH   8  12
ATOM      9  C   UNL     1       9.362  13.247  19.760  0.00  0.00    +0.000 C 
ATOM     10  C   UNL     1       9.496  12.763  18.312  0.00  0.00    +0.000 C 
ATOM     11  C   UNL     1       8.884  11.378  18.110  0.00  0.00    +0.000 C 
ATOM     12  C   UNL     1       9.494  10.351  19.073  0.00  0.00    +0.000 C 
ATOM     13  C   UNL     1       9.286  10.817  20.522  0.00  0.00    +0.000 C 
ATOM     14  C   UNL     1       9.890  12.200  20.751  0.00  0.00    +0.000 C 
BRANCH   9  18
ATOM     15  C   UNL     1      12.274  13.718  19.097  0.00  0.00    +0.000 C 
ATOM     16  C   UNL     1      11.415  14.762  19.753  0.00  0.00    +0.000 C 
ATOM     17  O   UNL     1      11.873  15.844  20.114  0.00  0.00    +0.000 OA
ATOM     18  N   UNL     1      10.093  14.497  19.948  0.00  0.00    +0.000 N 
ATOM     19  H   UNL     1       9.630  15.239  20.461  0.00  0.00    +0.000 HD
ENDBRANCH   9  18
ENDBRANCH   8  12
ENDBRANCH   7   8
ENDBRANCH   1   7
BRANCH   4  20
ATOM     20  O   UNL     1       4.968   5.322  18.290  0.00  0.00    +0.000 OA
BRANCH  20  21
ATOM     21  C   UNL     1       4.019   4.384  18.584  0.00  0.00    +0.000 A 
ATOM     22  C   UNL     1       3.577   3.622  17.499  0.00  0.00    +0.000 A 
ATOM     23  C   UNL     1       2.616   2.624  17.671  0.00  0.00    +0.000 A 
ATOM     24  C   UNL     1       2.086   2.383  18.940  0.00  0.00    +0.000 A 
ATOM     25  C   UNL     1       2.515   3.139  20.037  0.00  0.00    +0.000 A 
ATOM     26  C   UNL     1       3.478   4.142  19.843  0.00  0.00    +0.000 A 
BRANCH  25  27
ATOM     27  C   UNL     1       1.982   2.909  21.427  0.00  0.00    +0.000 C 
ATOM     28  F   UNL     1       2.417   1.752  21.999  0.00  0.00    +0.000 F 
ATOM     29  F   UNL     1       2.328   3.906  22.287  0.00  0.00    +0.000 F 
ATOM     30  F   UNL     1       0.620   2.853  21.455  0.00  0.00    +0.000 F 
ENDBRANCH  25  27
ENDBRANCH  20  21
ENDBRANCH   4  20
TORSDOF 7
ENDMDL
MODEL 7
REMARK VINA RESULT:      -8.0      6.547      8.156
REMARK  Name = 
REMARK  8 active torsions:
REMARK  status: ('A' for Active; 'I' for Inactive)
REMARK    1  A    between atoms: C_1  and  C_2
REMARK    2  A    between atoms: N_4  and  C_5
REMARK    3  A    between atoms: C_8  and  C_9
REMARK    4  A    between atoms: C_9  and  C_10
REMARK    5  A    between atoms: C_10  and  N_11
REMARK    6  A    between atoms: C_14  and  O_15
REMARK    7  A    between atoms: O_15  and  C_16
REMARK    8  A    between atoms: C_20  and  C_21
REMARK                            x       y       z     vdW  Elec       q    Type
REMARK                         _______ _______ _______ _____ _____    ______ ____
ROOT
ATOM      1  N   UNL     1       2.017   3.775  19.605  0.00  0.00    +0.000 NA
ATOM      2  C   UNL     1       1.583   3.962  18.211  0.00  0.00    +0.000 C 
ATOM      3  C   UNL     1       2.258   2.964  17.271  0.00  0.00    +0.000 C 
ATOM      4  C   UNL     1       3.779   3.093  17.336  0.00  0.00    +0.000 C 
ATOM      5  C   UNL     1       4.223   2.923  18.789  0.00  0.00    +0.000 C 
ATOM      6  C   UNL     1       3.485   3.883  19.720  0.00  0.00    +0.000 C 
ENDROOT
BRANCH   1   7
ATOM      7  C   UNL     1       1.389   4.768  20.499  0.00  0.00    +0.000 C 
BRANCH   7   8
ATOM      8  C   UNL     1       2.153   6.098  20.639  0.00  0.00    +0.000 C 
BRANCH   8  12
ATOM      9  C   UNL     1       1.101  10.217  19.427  0.00  0.00    +0.000 C 
ATOM     10  C   UNL     1       0.395   9.586  20.633  0.00  0.00    +0.000 C 
ATOM     11  C   UNL     1       1.160   8.385  21.184  0.00  0.00    +0.000 C 
ATOM     12  C   UNL     1       1.401   7.329  20.097  0.00  0.00    +0.000 C 
ATOM     13  C   UNL     1       2.173   7.960  18.928  0.00  0.00    +0.000 C 
ATOM     14  C   UNL     1       1.428   9.165  18.359  0.00  0.00    +0.000 C 
BRANCH   9  18
ATOM     15  C   UNL     1       1.968  13.042  18.794  0.00  0.00    +0.000 C 
ATOM     16  C   UNL     1       0.556  12.568  18.600  0.00  0.00    +0.000 C 
ATOM     17  O   UNL     1      -0.339  13.327  18.233  0.00  0.00    +0.000 OA
ATOM     18  N   UNL     1       0.265  11.258  18.836  0.00  0.00    +0.000 N 
ATOM     19  H   UNL     1      -0.727  11.067  18.744  0.00  0.00    +0.000 HD
ENDBRANCH   9  18
ENDBRANCH   8  12
ENDBRANCH   7   8
ENDBRANCH   1   7
BRANCH   4  20
ATOM     20  O   UNL     1       4.207   4.390  16.885  0.00  0.00    +0.000 OA
BRANCH  20  21
ATOM     21  C   UNL     1       5.174   4.460  15.922  0.00  0.00    +0.000 A 
ATOM     22  C   UNL     1       6.337   5.141  16.292  0.00  0.00    +0.000 A 
ATOM     23  C   UNL     1       7.403   5.273  15.399  0.00  0.00    +0.000 A 
ATOM     24  C   UNL     1       7.308   4.721  14.121  0.00  0.00    +0.000 A 
ATOM     25  C   UNL     1       6.149   4.038  13.732  0.00  0.00    +0.000 A 
ATOM     26  C   UNL     1       5.086   3.920  14.642  0.00  0.00    +0.000 A 
BRANCH  25  27
ATOM     27  C   UNL     1       6.005   3.415  12.369  0.00  0.00    +0.000 C 
ATOM     28  F   UNL     1       7.134   3.480  11.610  0.00  0.00    +0.000 F 
ATOM     29  F   UNL     1       5.670   2.096  12.434  0.00  0.00    +0.000 F 
ATOM     30  F   UNL     1       5.023   4.009  11.632  0.00  0.00    +0.000 F 
ENDBRANCH  25  27
ENDBRANCH  20  21
ENDBRANCH   4  20
TORSDOF 7
ENDMDL
MODEL 8
REMARK VINA RESULT:      -8.0      0.883      1.221
REMARK  Name = 
REMARK  8 active torsions:
REMARK  status: ('A' for Active; 'I' for Inactive)
REMARK    1  A    between atoms: C_1  and  C_2
REMARK    2  A    between atoms: N_4  and  C_5
REMARK    3  A    between atoms: C_8  and  C_9
REMARK    4  A    between atoms: C_9  and  C_10
REMARK    5  A    between atoms: C_10  and  N_11
REMARK    6  A    between atoms: C_14  and  O_15
REMARK    7  A    between atoms: O_15  and  C_16
REMARK    8  A    between atoms: C_20  and  C_21
REMARK                            x       y       z     vdW  Elec       q    Type
REMARK                         _______ _______ _______ _____ _____    ______ ____
ROOT
ATOM      1  N   UNL     1       7.698   7.511  17.292  0.00  0.00    +0.000 NA
ATOM      2  C   UNL     1       7.930   6.546  18.379  0.00  0.00    +0.000 C 
ATOM      3  C   UNL     1       7.685   5.110  17.920  0.00  0.00    +0.000 C 
ATOM      4  C   UNL     1       6.259   4.936  17.401  0.00  0.00    +0.000 C 
ATOM      5  C   UNL     1       6.014   5.956  16.290  0.00  0.00    +0.000 C 
ATOM      6  C   UNL     1       6.331   7.378  16.751  0.00  0.00    +0.000 C 
ENDROOT
BRANCH   1   7
ATOM      7  C   UNL     1       7.900   8.898  17.757  0.00  0.00    +0.000 C 
BRANCH   7   8
ATOM      8  C   UNL     1       8.749   9.043  19.035  0.00  0.00    +0.000 C 
BRANCH   8  12
ATOM      9  C   UNL     1       9.974  13.266  19.481  0.00  0.00    +0.000 C 
ATOM     10  C   UNL     1      10.030  12.611  18.096  0.00  0.00    +0.000 C 
ATOM     11  C   UNL     1       9.178  11.346  18.023  0.00  0.00    +0.000 C 
ATOM     12  C   UNL     1       9.583  10.336  19.106  0.00  0.00    +0.000 C 
ATOM     13  C   UNL     1       9.451  10.987  20.492  0.00  0.00    +0.000 C 
ATOM     14  C   UNL     1      10.295  12.255  20.590  0.00  0.00    +0.000 C 
BRANCH   9  18
ATOM     15  C   UNL     1      10.847  15.013  17.174  0.00  0.00    +0.000 C 
ATOM     16  C   UNL     1      11.421  15.152  18.555  0.00  0.00    +0.000 C 
ATOM     17  O   UNL     1      12.328  15.944  18.804  0.00  0.00    +0.000 OA
ATOM     18  N   UNL     1      10.918  14.377  19.557  0.00  0.00    +0.000 N 
ATOM     19  H   UNL     1      11.427  14.502  20.425  0.00  0.00    +0.000 HD
ENDBRANCH   9  18
ENDBRANCH   8  12
ENDBRANCH   7   8
ENDBRANCH   1   7
BRANCH   4  20
ATOM     20  O   UNL     1       5.298   5.170  18.445  0.00  0.00    +0.000 OA
BRANCH  20  21
ATOM     21  C   UNL     1       4.276   4.277  18.604  0.00  0.00    +0.000 A 
ATOM     22  C   UNL     1       4.378   3.111  17.839  0.00  0.00    +0.000 A 
ATOM     23  C   UNL     1       3.401   2.116  17.920  0.00  0.00    +0.000 A 
ATOM     24  C   UNL     1       2.308   2.285  18.772  0.00  0.00    +0.000 A 
ATOM     25  C   UNL     1       2.190   3.447  19.543  0.00  0.00    +0.000 A 
ATOM     26  C   UNL     1       3.179   4.439  19.444  0.00  0.00    +0.000 A 
BRANCH  25  27
ATOM     27  C   UNL     1       1.036   3.670  20.486  0.00  0.00    +0.000 C 
ATOM     28  F   UNL     1       0.781   4.983  20.744  0.00  0.00    +0.000 F 
ATOM     29  F   UNL     1      -0.128   3.146  20.014  0.00  0.00    +0.000 F 
ATOM     30  F   UNL     1       1.241   3.083  21.699  0.00  0.00    +0.000 F 
ENDBRANCH  25  27
ENDBRANCH  20  21
ENDBRANCH   4  20
TORSDOF 7
ENDMDL
MODEL 9
REMARK VINA RESULT:      -8.0      1.349      1.957
REMARK  Name = 
REMARK  8 active torsions:
REMARK  status: ('A' for Active; 'I' for Inactive)
REMARK    1  A    between atoms: C_1  and  C_2
REMARK    2  A    between atoms: N_4  and  C_5
REMARK    3  A    between atoms: C_8  and  C_9
REMARK    4  A    between atoms: C_9  and  C_10
REMARK    5  A    between atoms: C_10  and  N_11
REMARK    6  A    between atoms: C_14  and  O_15
REMARK    7  A    between atoms: O_15  and  C_16
REMARK    8  A    between atoms: C_20  and  C_21
REMARK                            x       y       z     vdW  Elec       q    Type
REMARK                         _______ _______ _______ _____ _____    ______ ____
ROOT
ATOM      1  N   UNL     1       7.538   6.571  17.244  0.00  0.00    +0.000 NA
ATOM      2  C   UNL     1       6.733   6.288  18.443  0.00  0.00    +0.000 C 
ATOM      3  C   UNL     1       6.268   4.833  18.479  0.00  0.00    +0.000 C 
ATOM      4  C   UNL     1       5.444   4.490  17.239  0.00  0.00    +0.000 C 
ATOM      5  C   UNL     1       6.274   4.810  15.996  0.00  0.00    +0.000 C 
ATOM      6  C   UNL     1       6.786   6.248  16.015  0.00  0.00    +0.000 C 
ENDROOT
BRANCH   1   7
ATOM      7  C   UNL     1       7.950   7.988  17.200  0.00  0.00    +0.000 C 
BRANCH   7   8
ATOM      8  C   UNL     1       8.338   8.599  18.560  0.00  0.00    +0.000 C 
BRANCH   8  12
ATOM      9  C   UNL     1       9.541  12.823  19.058  0.00  0.00    +0.000 C 
ATOM     10  C   UNL     1       9.037  12.343  17.693  0.00  0.00    +0.000 C 
ATOM     11  C   UNL     1       8.259  11.033  17.795  0.00  0.00    +0.000 C 
ATOM     12  C   UNL     1       9.098   9.937  18.468  0.00  0.00    +0.000 C 
ATOM     13  C   UNL     1       9.534  10.406  19.864  0.00  0.00    +0.000 C 
ATOM     14  C   UNL     1      10.314  11.716  19.789  0.00  0.00    +0.000 C 
BRANCH   9  18
ATOM     15  C   UNL     1       8.663  15.714  19.159  0.00  0.00    +0.000 C 
ATOM     16  C   UNL     1      10.076  15.309  18.849  0.00  0.00    +0.000 C 
ATOM     17  O   UNL     1      10.938  16.135  18.555  0.00  0.00    +0.000 OA
ATOM     18  N   UNL     1      10.407  13.988  18.900  0.00  0.00    +0.000 N 
ATOM     19  H   UNL     1      11.363  13.826  18.603  0.00  0.00    +0.000 HD
ENDBRANCH   9  18
ENDBRANCH   8  12
ENDBRANCH   7   8
ENDBRANCH   1   7
BRANCH   4  20
ATOM     20  O   UNL     1       4.240   5.273  17.187  0.00  0.00    +0.000 OA
BRANCH  20  21
ATOM     21  C   UNL     1       3.366   5.197  18.235  0.00  0.00    +0.000 A 
ATOM     22  C   UNL     1       3.091   6.411  18.871  0.00  0.00    +0.000 A 
ATOM     23  C   UNL     1       2.205   6.468  19.950  0.00  0.00    +0.000 A 
ATOM     24  C   UNL     1       1.588   5.301  20.402  0.00  0.00    +0.000 A 
ATOM     25  C   UNL     1       1.854   4.076  19.778  0.00  0.00    +0.000 A 
ATOM     26  C   UNL     1       2.751   4.038  18.699  0.00  0.00    +0.000 A 
BRANCH  25  27
ATOM     27  C   UNL     1       1.203   2.792  20.221  0.00  0.00    +0.000 C 
ATOM     28  F   UNL     1       0.876   2.767  21.543  0.00  0.00    +0.000 F 
ATOM     29  F   UNL     1       0.051   2.534  19.543  0.00  0.00    +0.000 F 
ATOM     30  F   UNL     1       2.005   1.709  20.013  0.00  0.00    +0.000 F 
ENDBRANCH  25  27
ENDBRANCH  20  21
ENDBRANCH   4  20
TORSDOF 7
ENDMDL
