MODEL 1
REMARK VINA RESULT:      -6.9      0.000      0.000
REMARK  Name = 
REMARK  7 active torsions:
REMARK  status: ('A' for Active; 'I' for Inactive)
REMARK    1  A    between atoms: C_1  and  O_2
REMARK    2  A    between atoms: O_2  and  C_3
REMARK    3  A    between atoms: C_8  and  N_9
REMARK    4  A    between atoms: N_12  and  C_13
REMARK    5  A    between atoms: C_14  and  C_15
REMARK    6  A    between atoms: N_16  and  C_17
REMARK    7  A    between atoms: N_25  and  C_26
REMARK                            x       y       z     vdW  Elec       q    Type
REMARK                         _______ _______ _______ _____ _____    ______ ____
ROOT
ATOM      1  N   UNL     1       2.137   7.834  20.676  0.00  0.00    +0.000 N 
ATOM      2  C   UNL     1       1.059   8.711  20.748  0.00  0.00    +0.000 C 
ATOM      3  O   UNL     1      -0.051   8.464  20.288  0.00  0.00    +0.000 OA
ATOM      4  N   UNL     1       1.406   9.924  21.331  0.00  0.00    +0.000 N 
ATOM      5  H   UNL     1       3.056   8.255  20.663  0.00  0.00    +0.000 HD
ATOM      6  H   UNL     1       2.377  10.173  21.235  0.00  0.00    +0.000 HD
ENDROOT
BRANCH   4   7
ATOM      7  C   UNL     1       0.538  10.988  21.413  0.00  0.00    +0.000 A 
ATOM      8  C   UNL     1      -0.519  11.171  22.236  0.00  0.00    +0.000 A 
ATOM      9  C   UNL     1      -1.039  10.312  23.334  0.00  0.00    +0.000 C 
ATOM     10  N   UNL     1      -1.164  12.358  21.869  0.00  0.00    +0.000 N 
ATOM     11  C   UNL     1      -0.472  12.932  20.769  0.00  0.00    +0.000 A 
ATOM     12  O   UNL     1      -0.723  13.947  20.140  0.00  0.00    +0.000 OA
ATOM     13  N   UNL     1       0.634  12.070  20.563  0.00  0.00    +0.000 N 
ATOM     14  C   UNL     1       1.586  12.266  19.503  0.00  0.00    +0.000 C 
BRANCH  10  15
ATOM     15  C   UNL     1      -2.306  12.967  22.442  0.00  0.00    +0.000 A 
ATOM     16  C   UNL     1      -2.166  13.816  23.551  0.00  0.00    +0.000 A 
ATOM     17  C   UNL     1      -3.288  14.425  24.121  0.00  0.00    +0.000 A 
ATOM     18  C   UNL     1      -4.559  14.155  23.617  0.00  0.00    +0.000 A 
ATOM     19  C   UNL     1      -4.709  13.291  22.537  0.00  0.00    +0.000 A 
ATOM     20  C   UNL     1      -3.584  12.713  21.942  0.00  0.00    +0.000 A 
ENDBRANCH  10  15
ENDBRANCH   4   7
BRANCH   1  26
ATOM     21  C   UNL     1       1.461   4.222  19.928  0.00  0.00    +0.000 A 
ATOM     22  C   UNL     1       1.847   4.161  18.588  0.00  0.00    +0.000 A 
ATOM     23  C   UNL     1       2.338   5.303  17.949  0.00  0.00    +0.000 A 
ATOM     24  C   UNL     1       2.454   6.505  18.651  0.00  0.00    +0.000 A 
ATOM     25 CL   UNL     1       3.033   7.896  17.803  0.00  0.00    +0.000 Cl
ATOM     26  C   UNL     1       2.043   6.592  19.988  0.00  0.00    +0.000 A 
ATOM     27  C   UNL     1       1.549   5.440  20.617  0.00  0.00    +0.000 A 
BRANCH  21  29
ATOM     28  C   UNL     1       1.812   2.713  21.735  0.00  0.00    +0.000 C 
ATOM     29  O   UNL     1       0.991   3.168  20.666  0.00  0.00    +0.000 OA
ENDBRANCH  21  29
ENDBRANCH   1  26
TORSDOF 4
ENDMDL
MODEL 2
REMARK VINA RESULT:      -6.9      3.024      9.618
REMARK  Name = 
REMARK  7 active torsions:
REMARK  status: ('A' for Active; 'I' for Inactive)
REMARK    1  A    between atoms: C_1  and  O_2
REMARK    2  A    between atoms: O_2  and  C_3
REMARK    3  A    between atoms: C_8  and  N_9
REMARK    4  A    between atoms: N_12  and  C_13
REMARK    5  A    between atoms: C_14  and  C_15
REMARK    6  A    between atoms: N_16  and  C_17
REMARK    7  A    between atoms: N_25  and  C_26
REMARK                            x       y       z     vdW  Elec       q    Type
REMARK                         _______ _______ _______ _____ _____    ______ ____
ROOT
ATOM      1  N   UNL     1      -0.001   8.098  21.032  0.00  0.00    +0.000 N 
ATOM      2  C   UNL     1       1.240   7.627  20.616  0.00  0.00    +0.000 C 
ATOM      3  O   UNL     1       2.182   8.356  20.322  0.00  0.00    +0.000 OA
ATOM      4  N   UNL     1       1.264   6.242  20.498  0.00  0.00    +0.000 N 
ATOM      5  H   UNL     1      -0.795   7.508  20.826  0.00  0.00    +0.000 HD
ATOM      6  H   UNL     1       0.369   5.822  20.311  0.00  0.00    +0.000 HD
ENDROOT
BRANCH   4   7
ATOM      7  C   UNL     1       2.345   5.554  19.998  0.00  0.00    +0.000 A 
ATOM      8  C   UNL     1       3.123   5.840  18.930  0.00  0.00    +0.000 A 
ATOM      9  C   UNL     1       3.087   7.001  18.000  0.00  0.00    +0.000 C 
ATOM     10  N   UNL     1       4.028   4.786  18.749  0.00  0.00    +0.000 N 
ATOM     11  C   UNL     1       3.796   3.808  19.752  0.00  0.00    +0.000 A 
ATOM     12  O   UNL     1       4.350   2.735  19.931  0.00  0.00    +0.000 OA
ATOM     13  N   UNL     1       2.774   4.369  20.558  0.00  0.00    +0.000 N 
ATOM     14  C   UNL     1       2.204   3.678  21.683  0.00  0.00    +0.000 C 
BRANCH  10  15
ATOM     15  C   UNL     1       5.042   4.639  17.772  0.00  0.00    +0.000 A 
ATOM     16  C   UNL     1       4.722   4.152  16.496  0.00  0.00    +0.000 A 
ATOM     17  C   UNL     1       5.716   4.007  15.524  0.00  0.00    +0.000 A 
ATOM     18  C   UNL     1       7.042   4.305  15.834  0.00  0.00    +0.000 A 
ATOM     19  C   UNL     1       7.373   4.760  17.107  0.00  0.00    +0.000 A 
ATOM     20  C   UNL     1       6.372   4.942  18.066  0.00  0.00    +0.000 A 
ENDBRANCH  10  15
ENDBRANCH   4   7
BRANCH   1  26
ATOM     21  C   UNL     1      -0.921  11.581  19.990  0.00  0.00    +0.000 A 
ATOM     22  C   UNL     1      -0.886  12.235  21.223  0.00  0.00    +0.000 A 
ATOM     23  C   UNL     1      -0.547  11.529  22.380  0.00  0.00    +0.000 A 
ATOM     24  C   UNL     1      -0.232  10.170  22.306  0.00  0.00    +0.000 A 
ATOM     25 CL   UNL     1       0.145   9.336  23.773  0.00  0.00    +0.000 Cl
ATOM     26  C   UNL     1      -0.292   9.491  21.082  0.00  0.00    +0.000 A 
ATOM     27  C   UNL     1      -0.636  10.210  19.928  0.00  0.00    +0.000 A 
BRANCH  21  29
ATOM     28  C   UNL     1      -1.951  11.393  17.853  0.00  0.00    +0.000 C 
ATOM     29  O   UNL     1      -1.213  12.170  18.789  0.00  0.00    +0.000 OA
ENDBRANCH  21  29
ENDBRANCH   1  26
TORSDOF 4
ENDMDL
MODEL 3
REMARK VINA RESULT:      -6.4      1.840      2.354
REMARK  Name = 
REMARK  7 active torsions:
REMARK  status: ('A' for Active; 'I' for Inactive)
REMARK    1  A    between atoms: C_1  and  O_2
REMARK    2  A    between atoms: O_2  and  C_3
REMARK    3  A    between atoms: C_8  and  N_9
REMARK    4  A    between atoms: N_12  and  C_13
REMARK    5  A    between atoms: C_14  and  C_15
REMARK    6  A    between atoms: N_16  and  C_17
REMARK    7  A    between atoms: N_25  and  C_26
REMARK                            x       y       z     vdW  Elec       q    Type
REMARK                         _______ _______ _______ _____ _____    ______ ____
ROOT
ATOM      1  N   UNL     1       2.591   7.500  17.519  0.00  0.00    +0.000 N 
ATOM      2  C   UNL     1       2.171   8.368  18.521  0.00  0.00    +0.000 C 
ATOM      3  O   UNL     1       2.189   8.088  19.716  0.00  0.00    +0.000 OA
ATOM      4  N   UNL     1       1.660   9.555  18.010  0.00  0.00    +0.000 N 
ATOM      5  H   UNL     1       2.151   7.614  16.616  0.00  0.00    +0.000 HD
ATOM      6  H   UNL     1       1.277   9.481  17.082  0.00  0.00    +0.000 HD
ENDROOT
BRANCH   4   7
ATOM      7  C   UNL     1       1.083  10.521  18.801  0.00  0.00    +0.000 A 
ATOM      8  C   UNL     1       0.002  10.435  19.609  0.00  0.00    +0.000 A 
ATOM      9  C   UNL     1      -0.863   9.269  19.932  0.00  0.00    +0.000 C 
ATOM     10  N   UNL     1      -0.269  11.710  20.120  0.00  0.00    +0.000 N 
ATOM     11  C   UNL     1       0.689  12.623  19.604  0.00  0.00    +0.000 A 
ATOM     12  O   UNL     1       0.789  13.825  19.784  0.00  0.00    +0.000 OA
ATOM     13  N   UNL     1       1.562  11.814  18.834  0.00  0.00    +0.000 N 
ATOM     14  C   UNL     1       2.670  12.354  18.092  0.00  0.00    +0.000 C 
BRANCH  10  15
ATOM     15  C   UNL     1      -1.291  12.115  21.013  0.00  0.00    +0.000 A 
ATOM     16  C   UNL     1      -1.092  12.015  22.398  0.00  0.00    +0.000 A 
ATOM     17  C   UNL     1      -2.093  12.415  23.287  0.00  0.00    +0.000 A 
ATOM     18  C   UNL     1      -3.315  12.875  22.799  0.00  0.00    +0.000 A 
ATOM     19  C   UNL     1      -3.531  12.949  21.427  0.00  0.00    +0.000 A 
ATOM     20  C   UNL     1      -2.515  12.586  20.538  0.00  0.00    +0.000 A 
ENDBRANCH  10  15
ENDBRANCH   4   7
BRANCH   1  26
ATOM     21  C   UNL     1       2.530   3.869  18.455  0.00  0.00    +0.000 A 
ATOM     22  C   UNL     1       3.886   3.555  18.352  0.00  0.00    +0.000 A 
ATOM     23  C   UNL     1       4.807   4.542  17.990  0.00  0.00    +0.000 A 
ATOM     24  C   UNL     1       4.376   5.847  17.741  0.00  0.00    +0.000 A 
ATOM     25 CL   UNL     1       5.552   7.021  17.262  0.00  0.00    +0.000 Cl
ATOM     26  C   UNL     1       3.015   6.173  17.810  0.00  0.00    +0.000 A 
ATOM     27  C   UNL     1       2.100   5.173  18.171  0.00  0.00    +0.000 A 
BRANCH  21  29
ATOM     28  C   UNL     1       0.968   3.181  20.114  0.00  0.00    +0.000 C 
ATOM     29  O   UNL     1       1.541   2.997  18.825  0.00  0.00    +0.000 OA
ENDBRANCH  21  29
ENDBRANCH   1  26
TORSDOF 4
ENDMDL
MODEL 4
REMARK VINA RESULT:      -6.4      2.784      9.536
REMARK  Name = 
REMARK  7 active torsions:
REMARK  status: ('A' for Active; 'I' for Inactive)
REMARK    1  A    between atoms: C_1  and  O_2
REMARK    2  A    between atoms: O_2  and  C_3
REMARK    3  A    between atoms: C_8  and  N_9
REMARK    4  A    between atoms: N_12  and  C_13
REMARK    5  A    between atoms: C_14  and  C_15
REMARK    6  A    between atoms: N_16  and  C_17
REMARK    7  A    between atoms: N_25  and  C_26
REMARK                            x       y       z     vdW  Elec       q    Type
REMARK                         _______ _______ _______ _____ _____    ______ ____
ROOT
ATOM      1  N   UNL     1       0.043   8.256  20.880  0.00  0.00    +0.000 N 
ATOM      2  C   UNL     1       1.283   7.743  20.516  0.00  0.00    +0.000 C 
ATOM      3  O   UNL     1       2.261   8.439  20.262  0.00  0.00    +0.000 OA
ATOM      4  N   UNL     1       1.266   6.358  20.398  0.00  0.00    +0.000 N 
ATOM      5  H   UNL     1      -0.762   7.693  20.640  0.00  0.00    +0.000 HD
ATOM      6  H   UNL     1       0.365   5.967  20.173  0.00  0.00    +0.000 HD
ENDROOT
BRANCH   4   7
ATOM      7  C   UNL     1       2.343   5.633  19.944  0.00  0.00    +0.000 A 
ATOM      8  C   UNL     1       3.152   5.872  18.888  0.00  0.00    +0.000 A 
ATOM      9  C   UNL     1       3.164   7.007  17.927  0.00  0.00    +0.000 C 
ATOM     10  N   UNL     1       4.037   4.794  18.758  0.00  0.00    +0.000 N 
ATOM     11  C   UNL     1       3.760   3.849  19.782  0.00  0.00    +0.000 A 
ATOM     12  O   UNL     1       4.284   2.770  20.002  0.00  0.00    +0.000 OA
ATOM     13  N   UNL     1       2.731   4.455  20.546  0.00  0.00    +0.000 N 
ATOM     14  C   UNL     1       2.118   3.807  21.675  0.00  0.00    +0.000 C 
BRANCH  10  15
ATOM     15  C   UNL     1       5.071   4.598  17.811  0.00  0.00    +0.000 A 
ATOM     16  C   UNL     1       6.392   4.943  18.133  0.00  0.00    +0.000 A 
ATOM     17  C   UNL     1       7.420   4.749  17.205  0.00  0.00    +0.000 A 
ATOM     18  C   UNL     1       7.128   4.252  15.936  0.00  0.00    +0.000 A 
ATOM     19  C   UNL     1       5.816   3.937  15.598  0.00  0.00    +0.000 A 
ATOM     20  C   UNL     1       4.795   4.093  16.539  0.00  0.00    +0.000 A 
ENDBRANCH  10  15
ENDBRANCH   4   7
BRANCH   1  26
ATOM     21  C   UNL     1      -0.581  11.727  22.155  0.00  0.00    +0.000 A 
ATOM     22  C   UNL     1      -0.659  12.432  20.953  0.00  0.00    +0.000 A 
ATOM     23  C   UNL     1      -0.520  11.758  19.737  0.00  0.00    +0.000 A 
ATOM     24  C   UNL     1      -0.314  10.376  19.719  0.00  0.00    +0.000 A 
ATOM     25 CL   UNL     1      -0.113   9.597  18.189  0.00  0.00    +0.000 Cl
ATOM     26  C   UNL     1      -0.202   9.658  20.917  0.00  0.00    +0.000 A 
ATOM     27  C   UNL     1      -0.339  10.346  22.131  0.00  0.00    +0.000 A 
BRANCH  21  29
ATOM     28  C   UNL     1      -1.386  13.530  23.484  0.00  0.00    +0.000 C 
ATOM     29  O   UNL     1      -0.725  12.272  23.403  0.00  0.00    +0.000 OA
ENDBRANCH  21  29
ENDBRANCH   1  26
TORSDOF 4
ENDMDL
MODEL 5
REMARK VINA RESULT:      -6.3      3.652      9.193
REMARK  Name = 
REMARK  7 active torsions:
REMARK  status: ('A' for Active; 'I' for Inactive)
REMARK    1  A    between atoms: C_1  and  O_2
REMARK    2  A    between atoms: O_2  and  C_3
REMARK    3  A    between atoms: C_8  and  N_9
REMARK    4  A    between atoms: N_12  and  C_13
REMARK    5  A    between atoms: C_14  and  C_15
REMARK    6  A    between atoms: N_16  and  C_17
REMARK    7  A    between atoms: N_25  and  C_26
REMARK                            x       y       z     vdW  Elec       q    Type
REMARK                         _______ _______ _______ _____ _____    ______ ____
ROOT
ATOM      1  N   UNL     1      -4.506  13.835  20.084  0.00  0.00    +0.000 N 
ATOM      2  C   UNL     1      -3.487  12.930  20.362  0.00  0.00    +0.000 C 
ATOM      3  O   UNL     1      -3.501  12.160  21.317  0.00  0.00    +0.000 OA
ATOM      4  N   UNL     1      -2.420  13.051  19.479  0.00  0.00    +0.000 N 
ATOM      5  H   UNL     1      -4.234  14.678  19.597  0.00  0.00    +0.000 HD
ATOM      6  H   UNL     1      -2.315  13.966  19.071  0.00  0.00    +0.000 HD
ENDROOT
BRANCH   4   7
ATOM      7  C   UNL     1      -1.251  12.340  19.618  0.00  0.00    +0.000 A 
ATOM      8  C   UNL     1      -0.905  11.146  19.085  0.00  0.00    +0.000 A 
ATOM      9  C   UNL     1      -1.652  10.262  18.151  0.00  0.00    +0.000 C 
ATOM     10  N   UNL     1       0.342  10.776  19.604  0.00  0.00    +0.000 N 
ATOM     11  C   UNL     1       0.784  11.788  20.497  0.00  0.00    +0.000 A 
ATOM     12  O   UNL     1       1.800  11.838  21.170  0.00  0.00    +0.000 OA
ATOM     13  N   UNL     1      -0.220  12.786  20.419  0.00  0.00    +0.000 N 
ATOM     14  C   UNL     1      -0.185  13.988  21.208  0.00  0.00    +0.000 C 
BRANCH  10  15
ATOM     15  C   UNL     1       1.112   9.619  19.334  0.00  0.00    +0.000 A 
ATOM     16  C   UNL     1       1.726   9.461  18.083  0.00  0.00    +0.000 A 
ATOM     17  C   UNL     1       2.492   8.324  17.809  0.00  0.00    +0.000 A 
ATOM     18  C   UNL     1       2.613   7.319  18.767  0.00  0.00    +0.000 A 
ATOM     19  C   UNL     1       1.983   7.454  20.000  0.00  0.00    +0.000 A 
ATOM     20  C   UNL     1       1.250   8.609  20.287  0.00  0.00    +0.000 A 
ENDBRANCH  10  15
ENDBRANCH   4   7
BRANCH   1  26
ATOM     21  C   UNL     1      -6.713  14.990  22.888  0.00  0.00    +0.000 A 
ATOM     22  C   UNL     1      -7.875  14.267  22.613  0.00  0.00    +0.000 A 
ATOM     23  C   UNL     1      -7.916  13.397  21.520  0.00  0.00    +0.000 A 
ATOM     24  C   UNL     1      -6.793  13.241  20.705  0.00  0.00    +0.000 A 
ATOM     25 CL   UNL     1      -6.909  12.180  19.344  0.00  0.00    +0.000 Cl
ATOM     26  C   UNL     1      -5.628  13.982  20.947  0.00  0.00    +0.000 A 
ATOM     27  C   UNL     1      -5.600  14.853  22.045  0.00  0.00    +0.000 A 
BRANCH  21  29
ATOM     28  C   UNL     1      -5.259  16.441  24.090  0.00  0.00    +0.000 C 
ATOM     29  O   UNL     1      -6.544  15.849  23.941  0.00  0.00    +0.000 OA
ENDBRANCH  21  29
ENDBRANCH   1  26
TORSDOF 4
ENDMDL
MODEL 6
REMARK VINA RESULT:      -6.3      2.223      2.752
REMARK  Name = 
REMARK  7 active torsions:
REMARK  status: ('A' for Active; 'I' for Inactive)
REMARK    1  A    between atoms: C_1  and  O_2
REMARK    2  A    between atoms: O_2  and  C_3
REMARK    3  A    between atoms: C_8  and  N_9
REMARK    4  A    between atoms: N_12  and  C_13
REMARK    5  A    between atoms: C_14  and  C_15
REMARK    6  A    between atoms: N_16  and  C_17
REMARK    7  A    between atoms: N_25  and  C_26
REMARK                            x       y       z     vdW  Elec       q    Type
REMARK                         _______ _______ _______ _____ _____    ______ ____
ROOT
ATOM      1  N   UNL     1       2.389   8.097  17.970  0.00  0.00    +0.000 N 
ATOM      2  C   UNL     1       1.582   8.925  18.743  0.00  0.00    +0.000 C 
ATOM      3  O   UNL     1       1.312   8.707  19.920  0.00  0.00    +0.000 OA
ATOM      4  N   UNL     1       1.058   9.983  18.009  0.00  0.00    +0.000 N 
ATOM      5  H   UNL     1       2.204   8.093  16.977  0.00  0.00    +0.000 HD
ATOM      6  H   UNL     1       0.962   9.802  17.023  0.00  0.00    +0.000 HD
ENDROOT
BRANCH   4   7
ATOM      7  C   UNL     1       0.145  10.871  18.528  0.00  0.00    +0.000 A 
ATOM      8  C   UNL     1       0.327  11.849  19.445  0.00  0.00    +0.000 A 
ATOM      9  C   UNL     1       1.566  12.299  20.134  0.00  0.00    +0.000 C 
ATOM     10  N   UNL     1      -0.920  12.415  19.739  0.00  0.00    +0.000 N 
ATOM     11  C   UNL     1      -1.914  11.756  18.967  0.00  0.00    +0.000 A 
ATOM     12  O   UNL     1      -3.121  11.931  18.947  0.00  0.00    +0.000 OA
ATOM     13  N   UNL     1      -1.186  10.839  18.168  0.00  0.00    +0.000 N 
ATOM     14  C   UNL     1      -1.822   9.928  17.255  0.00  0.00    +0.000 C 
BRANCH  10  15
ATOM     15  C   UNL     1      -1.232  13.473  20.626  0.00  0.00    +0.000 A 
ATOM     16  C   UNL     1      -1.596  13.193  21.952  0.00  0.00    +0.000 A 
ATOM     17  C   UNL     1      -1.902  14.232  22.836  0.00  0.00    +0.000 A 
ATOM     18  C   UNL     1      -1.891  15.552  22.390  0.00  0.00    +0.000 A 
ATOM     19  C   UNL     1      -1.562  15.836  21.068  0.00  0.00    +0.000 A 
ATOM     20  C   UNL     1      -1.217  14.801  20.195  0.00  0.00    +0.000 A 
ENDBRANCH  10  15
ENDBRANCH   4   7
BRANCH   1  26
ATOM     21  C   UNL     1       2.884   5.054  20.106  0.00  0.00    +0.000 A 
ATOM     22  C   UNL     1       3.958   4.452  19.449  0.00  0.00    +0.000 A 
ATOM     23  C   UNL     1       4.518   5.059  18.321  0.00  0.00    +0.000 A 
ATOM     24  C   UNL     1       4.011   6.274  17.854  0.00  0.00    +0.000 A 
ATOM     25 CL   UNL     1       4.716   6.963  16.433  0.00  0.00    +0.000 Cl
ATOM     26  C   UNL     1       2.913   6.877  18.482  0.00  0.00    +0.000 A 
ATOM     27  C   UNL     1       2.359   6.256  19.611  0.00  0.00    +0.000 A 
BRANCH  21  29
ATOM     28  C   UNL     1       1.491   3.389  21.081  0.00  0.00    +0.000 C 
ATOM     29  O   UNL     1       2.271   4.570  21.230  0.00  0.00    +0.000 OA
ENDBRANCH  21  29
ENDBRANCH   1  26
TORSDOF 4
ENDMDL
MODEL 7
REMARK VINA RESULT:      -6.2      1.951      2.554
REMARK  Name = 
REMARK  7 active torsions:
REMARK  status: ('A' for Active; 'I' for Inactive)
REMARK    1  A    between atoms: C_1  and  O_2
REMARK    2  A    between atoms: O_2  and  C_3
REMARK    3  A    between atoms: C_8  and  N_9
REMARK    4  A    between atoms: N_12  and  C_13
REMARK    5  A    between atoms: C_14  and  C_15
REMARK    6  A    between atoms: N_16  and  C_17
REMARK    7  A    between atoms: N_25  and  C_26
REMARK                            x       y       z     vdW  Elec       q    Type
REMARK                         _______ _______ _______ _____ _____    ______ ____
ROOT
ATOM      1  N   UNL     1       2.705   7.816  17.472  0.00  0.00    +0.000 N 
ATOM      2  C   UNL     1       2.183   8.649  18.455  0.00  0.00    +0.000 C 
ATOM      3  O   UNL     1       2.076   8.329  19.634  0.00  0.00    +0.000 OA
ATOM      4  N   UNL     1       1.726   9.855  17.935  0.00  0.00    +0.000 N 
ATOM      5  H   UNL     1       2.362   7.962  16.533  0.00  0.00    +0.000 HD
ATOM      6  H   UNL     1       1.442   9.814  16.969  0.00  0.00    +0.000 HD
ENDROOT
BRANCH   4   7
ATOM      7  C   UNL     1       1.069  10.795  18.693  0.00  0.00    +0.000 A 
ATOM      8  C   UNL     1      -0.086  10.682  19.387  0.00  0.00    +0.000 A 
ATOM      9  C   UNL     1      -0.973   9.504  19.586  0.00  0.00    +0.000 C 
ATOM     10  N   UNL     1      -0.413  11.940  19.908  0.00  0.00    +0.000 N 
ATOM     11  C   UNL     1       0.588  12.870  19.519  0.00  0.00    +0.000 A 
ATOM     12  O   UNL     1       0.664  14.066  19.745  0.00  0.00    +0.000 OA
ATOM     13  N   UNL     1       1.537  12.087  18.814  0.00  0.00    +0.000 N 
ATOM     14  C   UNL     1       2.710  12.652  18.204  0.00  0.00    +0.000 C 
BRANCH  10  15
ATOM     15  C   UNL     1      -1.520  12.314  20.707  0.00  0.00    +0.000 A 
ATOM     16  C   UNL     1      -2.689  12.801  20.103  0.00  0.00    +0.000 A 
ATOM     17  C   UNL     1      -3.788  13.169  20.885  0.00  0.00    +0.000 A 
ATOM     18  C   UNL     1      -3.711  13.096  22.274  0.00  0.00    +0.000 A 
ATOM     19  C   UNL     1      -2.544  12.643  22.883  0.00  0.00    +0.000 A 
ATOM     20  C   UNL     1      -1.460  12.238  22.100  0.00  0.00    +0.000 A 
ENDBRANCH  10  15
ENDBRANCH   4   7
BRANCH   1  26
ATOM     21  C   UNL     1       2.565   4.195  18.438  0.00  0.00    +0.000 A 
ATOM     22  C   UNL     1       3.907   3.839  18.294  0.00  0.00    +0.000 A 
ATOM     23  C   UNL     1       4.845   4.795  17.895  0.00  0.00    +0.000 A 
ATOM     24  C   UNL     1       4.446   6.111  17.650  0.00  0.00    +0.000 A 
ATOM     25 CL   UNL     1       5.641   7.245  17.124  0.00  0.00    +0.000 Cl
ATOM     26  C   UNL     1       3.098   6.478  17.760  0.00  0.00    +0.000 A 
ATOM     27  C   UNL     1       2.166   5.509  18.157  0.00  0.00    +0.000 A 
BRANCH  21  29
ATOM     28  C   UNL     1       1.878   1.970  18.933  0.00  0.00    +0.000 C 
ATOM     29  O   UNL     1       1.563   3.356  18.845  0.00  0.00    +0.000 OA
ENDBRANCH  21  29
ENDBRANCH   1  26
TORSDOF 4
ENDMDL
MODEL 8
REMARK VINA RESULT:      -6.2      3.373      9.586
REMARK  Name = 
REMARK  7 active torsions:
REMARK  status: ('A' for Active; 'I' for Inactive)
REMARK    1  A    between atoms: C_1  and  O_2
REMARK    2  A    between atoms: O_2  and  C_3
REMARK    3  A    between atoms: C_8  and  N_9
REMARK    4  A    between atoms: N_12  and  C_13
REMARK    5  A    between atoms: C_14  and  C_15
REMARK    6  A    between atoms: N_16  and  C_17
REMARK    7  A    between atoms: N_25  and  C_26
REMARK                            x       y       z     vdW  Elec       q    Type
REMARK                         _______ _______ _______ _____ _____    ______ ____
ROOT
ATOM      1  N   UNL     1       0.659   9.417  19.950  0.00  0.00    +0.000 N 
ATOM      2  C   UNL     1       1.429   8.582  19.148  0.00  0.00    +0.000 C 
ATOM      3  O   UNL     1       1.515   8.698  17.929  0.00  0.00    +0.000 OA
ATOM      4  N   UNL     1       2.027   7.559  19.874  0.00  0.00    +0.000 N 
ATOM      5  H   UNL     1       0.301   9.011  20.804  0.00  0.00    +0.000 HD
ATOM      6  H   UNL     1       1.535   7.298  20.713  0.00  0.00    +0.000 HD
ENDROOT
BRANCH   4   7
ATOM      7  C   UNL     1       2.746   6.546  19.283  0.00  0.00    +0.000 A 
ATOM      8  C   UNL     1       3.691   6.615  18.318  0.00  0.00    +0.000 A 
ATOM      9  C   UNL     1       4.279   7.799  17.637  0.00  0.00    +0.000 C 
ATOM     10  N   UNL     1       4.054   5.310  17.962  0.00  0.00    +0.000 N 
ATOM     11  C   UNL     1       3.298   4.396  18.744  0.00  0.00    +0.000 A 
ATOM     12  O   UNL     1       3.298   3.176  18.725  0.00  0.00    +0.000 OA
ATOM     13  N   UNL     1       2.540   5.222  19.611  0.00  0.00    +0.000 N 
ATOM     14  C   UNL     1       1.594   4.693  20.557  0.00  0.00    +0.000 C 
BRANCH  10  15
ATOM     15  C   UNL     1       5.008   4.879  17.010  0.00  0.00    +0.000 A 
ATOM     16  C   UNL     1       6.362   4.781  17.366  0.00  0.00    +0.000 A 
ATOM     17  C   UNL     1       7.310   4.352  16.433  0.00  0.00    +0.000 A 
ATOM     18  C   UNL     1       6.920   4.061  15.128  0.00  0.00    +0.000 A 
ATOM     19  C   UNL     1       5.584   4.184  14.757  0.00  0.00    +0.000 A 
ATOM     20  C   UNL     1       4.631   4.575  15.701  0.00  0.00    +0.000 A 
ENDBRANCH  10  15
ENDBRANCH   4   7
BRANCH   1  26
ATOM     21  C   UNL     1      -2.039  11.168  18.022  0.00  0.00    +0.000 A 
ATOM     22  C   UNL     1      -1.756  12.499  18.336  0.00  0.00    +0.000 A 
ATOM     23  C   UNL     1      -0.674  12.807  19.164  0.00  0.00    +0.000 A 
ATOM     24  C   UNL     1       0.134  11.787  19.673  0.00  0.00    +0.000 A 
ATOM     25 CL   UNL     1       1.438  12.221  20.723  0.00  0.00    +0.000 Cl
ATOM     26  C   UNL     1      -0.155  10.444  19.394  0.00  0.00    +0.000 A 
ATOM     27  C   UNL     1      -1.245  10.148  18.564  0.00  0.00    +0.000 A 
BRANCH  21  29
ATOM     28  C   UNL     1      -2.784  10.719  15.807  0.00  0.00    +0.000 C 
ATOM     29  O   UNL     1      -3.053  10.746  17.204  0.00  0.00    +0.000 OA
ENDBRANCH  21  29
ENDBRANCH   1  26
TORSDOF 4
ENDMDL
MODEL 9
REMARK VINA RESULT:      -6.2      3.292      9.738
REMARK  Name = 
REMARK  7 active torsions:
REMARK  status: ('A' for Active; 'I' for Inactive)
REMARK    1  A    between atoms: C_1  and  O_2
REMARK    2  A    between atoms: O_2  and  C_3
REMARK    3  A    between atoms: C_8  and  N_9
REMARK    4  A    between atoms: N_12  and  C_13
REMARK    5  A    between atoms: C_14  and  C_15
REMARK    6  A    between atoms: N_16  and  C_17
REMARK    7  A    between atoms: N_25  and  C_26
REMARK                            x       y       z     vdW  Elec       q    Type
REMARK                         _______ _______ _______ _____ _____    ______ ____
ROOT
ATOM      1  N   UNL     1       1.332   8.283  21.098  0.00  0.00    +0.000 N 
ATOM      2  C   UNL     1       1.932   7.676  20.000  0.00  0.00    +0.000 C 
ATOM      3  O   UNL     1       1.825   8.089  18.850  0.00  0.00    +0.000 OA
ATOM      4  N   UNL     1       2.601   6.507  20.345  0.00  0.00    +0.000 N 
ATOM      5  H   UNL     1       1.102   7.677  21.874  0.00  0.00    +0.000 HD
ATOM      6  H   UNL     1       2.241   6.045  21.165  0.00  0.00    +0.000 HD
ENDROOT
BRANCH   4   7
ATOM      7  C   UNL     1       3.178   5.675  19.415  0.00  0.00    +0.000 A 
ATOM      8  C   UNL     1       4.060   5.968  18.433  0.00  0.00    +0.000 A 
ATOM      9  C   UNL     1       4.714   7.258  18.086  0.00  0.00    +0.000 C 
ATOM     10  N   UNL     1       4.272   4.813  17.671  0.00  0.00    +0.000 N 
ATOM     11  C   UNL     1       3.484   3.760  18.209  0.00  0.00    +0.000 A 
ATOM     12  O   UNL     1       3.364   2.608  17.825  0.00  0.00    +0.000 OA
ATOM     13  N   UNL     1       2.867   4.333  19.349  0.00  0.00    +0.000 N 
ATOM     14  C   UNL     1       1.939   3.609  20.176  0.00  0.00    +0.000 C 
BRANCH  10  15
ATOM     15  C   UNL     1       5.115   4.626  16.549  0.00  0.00    +0.000 A 
ATOM     16  C   UNL     1       6.508   4.697  16.699  0.00  0.00    +0.000 A 
ATOM     17  C   UNL     1       7.348   4.510  15.597  0.00  0.00    +0.000 A 
ATOM     18  C   UNL     1       6.802   4.295  14.333  0.00  0.00    +0.000 A 
ATOM     19  C   UNL     1       5.421   4.253  14.171  0.00  0.00    +0.000 A 
ATOM     20  C   UNL     1       4.582   4.400  15.279  0.00  0.00    +0.000 A 
ENDBRANCH  10  15
ENDBRANCH   4   7
BRANCH   1  26
ATOM     21  C   UNL     1      -0.687  11.042  19.558  0.00  0.00    +0.000 A 
ATOM     22  C   UNL     1      -1.237  11.626  20.701  0.00  0.00    +0.000 A 
ATOM     23  C   UNL     1      -0.927  11.117  21.964  0.00  0.00    +0.000 A 
ATOM     24  C   UNL     1      -0.059  10.030  22.090  0.00  0.00    +0.000 A 
ATOM     25 CL   UNL     1       0.262   9.415  23.674  0.00  0.00    +0.000 Cl
ATOM     26  C   UNL     1       0.477   9.412  20.952  0.00  0.00    +0.000 A 
ATOM     27  C   UNL     1       0.156   9.930  19.689  0.00  0.00    +0.000 A 
BRANCH  21  29
ATOM     28  C   UNL     1      -1.941  10.831  17.546  0.00  0.00    +0.000 C 
ATOM     29  O   UNL     1      -0.896  11.467  18.273  0.00  0.00    +0.000 OA
ENDBRANCH  21  29
ENDBRANCH   1  26
TORSDOF 4
ENDMDL
