MODEL 1
REMARK VINA RESULT:      -7.4      0.000      0.000
REMARK  Name = 
REMARK  4 active torsions:
REMARK  status: ('A' for Active; 'I' for Inactive)
REMARK    1  A    between atoms: C_1  and  N_2
REMARK    2  A    between atoms: C_6  and  S_7
REMARK    3  A    between atoms: S_7  and  C_8
REMARK    4  A    between atoms: C_8  and  C_9
REMARK                            x       y       z     vdW  Elec       q    Type
REMARK                         _______ _______ _______ _____ _____    ______ ____
ROOT
ATOM      1  C   UNL     1       4.489   5.292  16.518  0.00  0.00    +0.000 C 
ATOM      2  O   UNL     1       4.544   6.516  16.648  0.00  0.00    +0.000 OA
ATOM      3  N   UNL     1       3.547   4.533  17.224  0.00  0.00    +0.000 N 
ATOM      4  C   UNL     1       3.418   3.075  17.096  0.00  0.00    +0.000 C 
ATOM      5  C   UNL     1       2.179   2.474  17.769  0.00  0.00    +0.000 C 
ATOM      6  C   UNL     1       2.108   2.954  19.194  0.00  0.00    +0.000 A 
ATOM      7  C   UNL     1       1.710   2.123  20.244  0.00  0.00    +0.000 A 
ATOM      8  C   UNL     1       1.676   2.619  21.547  0.00  0.00    +0.000 A 
ATOM      9  C   UNL     1       2.026   3.944  21.803  0.00  0.00    +0.000 A 
ATOM     10  C   UNL     1       2.401   4.784  20.754  0.00  0.00    +0.000 A 
ATOM     11  C   UNL     1       2.445   4.296  19.444  0.00  0.00    +0.000 A 
ATOM     12  C   UNL     1       2.772   5.203  18.278  0.00  0.00    +0.000 C 
ENDROOT
BRANCH   1  13
ATOM     13  C   UNL     1       5.413   4.533  15.541  0.00  0.00    +0.000 C 
BRANCH  13  14
ATOM     14  S   UNL     1       7.122   5.225  15.540  0.00  0.00    +0.000 S 
BRANCH  14  20
ATOM     15  C   UNL     1       7.613   7.975  17.357  0.00  0.00    +0.000 C 
ATOM     16  N   UNL     1       7.666   6.628  17.862  0.00  0.00    +0.000 N 
ATOM     17  C   UNL     1       7.927   6.325  19.169  0.00  0.00    +0.000 A 
ATOM     18  N   UNL     1       7.895   5.020  19.330  0.00  0.00    +0.000 NA
ATOM     19  N   UNL     1       7.609   4.453  18.107  0.00  0.00    +0.000 NA
ATOM     20  C   UNL     1       7.477   5.426  17.221  0.00  0.00    +0.000 A 
ENDBRANCH  14  20
ENDBRANCH  13  14
ENDBRANCH   1  13
TORSDOF 3
ENDMDL
MODEL 2
REMARK VINA RESULT:      -7.2      2.854      5.965
REMARK  Name = 
REMARK  4 active torsions:
REMARK  status: ('A' for Active; 'I' for Inactive)
REMARK    1  A    between atoms: C_1  and  N_2
REMARK    2  A    between atoms: C_6  and  S_7
REMARK    3  A    between atoms: S_7  and  C_8
REMARK    4  A    between atoms: C_8  and  C_9
REMARK                            x       y       z     vdW  Elec       q    Type
REMARK                         _______ _______ _______ _____ _____    ______ ____
ROOT
ATOM      1  C   UNL     1       2.689   6.444  19.295  0.00  0.00    +0.000 C 
ATOM      2  O   UNL     1       1.911   7.212  18.726  0.00  0.00    +0.000 OA
ATOM      3  N   UNL     1       3.982   6.230  18.800  0.00  0.00    +0.000 N 
ATOM      4  C   UNL     1       4.961   5.343  19.445  0.00  0.00    +0.000 C 
ATOM      5  C   UNL     1       6.384   5.434  18.881  0.00  0.00    +0.000 C 
ATOM      6  C   UNL     1       6.333   5.275  17.385  0.00  0.00    +0.000 A 
ATOM      7  C   UNL     1       7.294   4.547  16.678  0.00  0.00    +0.000 A 
ATOM      8  C   UNL     1       7.188   4.423  15.292  0.00  0.00    +0.000 A 
ATOM      9  C   UNL     1       6.136   5.033  14.611  0.00  0.00    +0.000 A 
ATOM     10  C   UNL     1       5.189   5.781  15.311  0.00  0.00    +0.000 A 
ATOM     11  C   UNL     1       5.280   5.907  16.701  0.00  0.00    +0.000 A 
ATOM     12  C   UNL     1       4.314   6.774  17.476  0.00  0.00    +0.000 C 
ENDROOT
BRANCH   1  13
ATOM     13  C   UNL     1       2.307   5.717  20.602  0.00  0.00    +0.000 C 
BRANCH  13  14
ATOM     14  S   UNL     1       1.074   4.379  20.304  0.00  0.00    +0.000 S 
BRANCH  14  20
ATOM     15  C   UNL     1       3.621   2.237  20.478  0.00  0.00    +0.000 C 
ATOM     16  N   UNL     1       2.884   2.553  19.282  0.00  0.00    +0.000 N 
ATOM     17  C   UNL     1       3.153   1.996  18.063  0.00  0.00    +0.000 A 
ATOM     18  N   UNL     1       2.309   2.466  17.171  0.00  0.00    +0.000 NA
ATOM     19  N   UNL     1       1.469   3.350  17.813  0.00  0.00    +0.000 NA
ATOM     20  C   UNL     1       1.822   3.404  19.087  0.00  0.00    +0.000 A 
ENDBRANCH  14  20
ENDBRANCH  13  14
ENDBRANCH   1  13
TORSDOF 3
ENDMDL
MODEL 3
REMARK VINA RESULT:      -7.2      2.797      3.872
REMARK  Name = 
REMARK  4 active torsions:
REMARK  status: ('A' for Active; 'I' for Inactive)
REMARK    1  A    between atoms: C_1  and  N_2
REMARK    2  A    between atoms: C_6  and  S_7
REMARK    3  A    between atoms: S_7  and  C_8
REMARK    4  A    between atoms: C_8  and  C_9
REMARK                            x       y       z     vdW  Elec       q    Type
REMARK                         _______ _______ _______ _____ _____    ______ ____
ROOT
ATOM      1  C   UNL     1       6.223   4.899  18.024  0.00  0.00    +0.000 C 
ATOM      2  O   UNL     1       7.162   4.444  18.681  0.00  0.00    +0.000 OA
ATOM      3  N   UNL     1       4.952   5.052  18.594  0.00  0.00    +0.000 N 
ATOM      4  C   UNL     1       3.800   5.607  17.871  0.00  0.00    +0.000 C 
ATOM      5  C   UNL     1       2.575   5.908  18.741  0.00  0.00    +0.000 C 
ATOM      6  C   UNL     1       2.235   4.688  19.554  0.00  0.00    +0.000 A 
ATOM      7  C   UNL     1       0.915   4.290  19.788  0.00  0.00    +0.000 A 
ATOM      8  C   UNL     1       0.660   3.142  20.538  0.00  0.00    +0.000 A 
ATOM      9  C   UNL     1       1.716   2.399  21.065  0.00  0.00    +0.000 A 
ATOM     10  C   UNL     1       3.033   2.807  20.855  0.00  0.00    +0.000 A 
ATOM     11  C   UNL     1       3.302   3.953  20.098  0.00  0.00    +0.000 A 
ATOM     12  C   UNL     1       4.714   4.462  19.919  0.00  0.00    +0.000 C 
ENDROOT
BRANCH   1  13
ATOM     13  C   UNL     1       6.400   5.370  16.565  0.00  0.00    +0.000 C 
BRANCH  13  14
ATOM     14  S   UNL     1       6.137   3.992  15.367  0.00  0.00    +0.000 S 
BRANCH  14  20
ATOM     15  C   UNL     1       5.740   3.091  12.183  0.00  0.00    +0.000 C 
ATOM     16  N   UNL     1       6.652   4.102  12.651  0.00  0.00    +0.000 N 
ATOM     17  C   UNL     1       7.469   4.820  11.822  0.00  0.00    +0.000 A 
ATOM     18  N   UNL     1       8.171   5.675  12.532  0.00  0.00    +0.000 NA
ATOM     19  N   UNL     1       7.812   5.517  13.854  0.00  0.00    +0.000 NA
ATOM     20  C   UNL     1       6.899   4.564  13.922  0.00  0.00    +0.000 A 
ENDBRANCH  14  20
ENDBRANCH  13  14
ENDBRANCH   1  13
TORSDOF 3
ENDMDL
MODEL 4
REMARK VINA RESULT:      -7.2      0.809      1.452
REMARK  Name = 
REMARK  4 active torsions:
REMARK  status: ('A' for Active; 'I' for Inactive)
REMARK    1  A    between atoms: C_1  and  N_2
REMARK    2  A    between atoms: C_6  and  S_7
REMARK    3  A    between atoms: S_7  and  C_8
REMARK    4  A    between atoms: C_8  and  C_9
REMARK                            x       y       z     vdW  Elec       q    Type
REMARK                         _______ _______ _______ _____ _____    ______ ____
ROOT
ATOM      1  C   UNL     1       4.401   5.688  16.712  0.00  0.00    +0.000 C 
ATOM      2  O   UNL     1       4.360   6.902  16.921  0.00  0.00    +0.000 OA
ATOM      3  N   UNL     1       3.496   4.818  17.335  0.00  0.00    +0.000 N 
ATOM      4  C   UNL     1       3.481   3.366  17.111  0.00  0.00    +0.000 C 
ATOM      5  C   UNL     1       2.269   2.635  17.699  0.00  0.00    +0.000 C 
ATOM      6  C   UNL     1       2.117   3.014  19.147  0.00  0.00    +0.000 A 
ATOM      7  C   UNL     1       1.749   2.089  20.128  0.00  0.00    +0.000 A 
ATOM      8  C   UNL     1       1.636   2.495  21.457  0.00  0.00    +0.000 A 
ATOM      9  C   UNL     1       1.878   3.823  21.808  0.00  0.00    +0.000 A 
ATOM     10  C   UNL     1       2.222   4.755  20.828  0.00  0.00    +0.000 A 
ATOM     11  C   UNL     1       2.345   4.358  19.493  0.00  0.00    +0.000 A 
ATOM     12  C   UNL     1       2.640   5.360  18.399  0.00  0.00    +0.000 C 
ENDROOT
BRANCH   1  13
ATOM     13  C   UNL     1       5.410   5.063  15.725  0.00  0.00    +0.000 C 
BRANCH  13  14
ATOM     14  S   UNL     1       7.008   4.654  16.549  0.00  0.00    +0.000 S 
BRANCH  14  20
ATOM     15  C   UNL     1       7.847   5.494  19.663  0.00  0.00    +0.000 C 
ATOM     16  N   UNL     1       7.833   6.392  18.537  0.00  0.00    +0.000 N 
ATOM     17  C   UNL     1       8.172   7.713  18.625  0.00  0.00    +0.000 A 
ATOM     18  N   UNL     1       8.078   8.269  17.437  0.00  0.00    +0.000 NA
ATOM     19  N   UNL     1       7.668   7.297  16.550  0.00  0.00    +0.000 NA
ATOM     20  C   UNL     1       7.516   6.166  17.218  0.00  0.00    +0.000 A 
ENDBRANCH  14  20
ENDBRANCH  13  14
ENDBRANCH   1  13
TORSDOF 3
ENDMDL
MODEL 5
REMARK VINA RESULT:      -6.9      4.009      5.221
REMARK  Name = 
REMARK  4 active torsions:
REMARK  status: ('A' for Active; 'I' for Inactive)
REMARK    1  A    between atoms: C_1  and  N_2
REMARK    2  A    between atoms: C_6  and  S_7
REMARK    3  A    between atoms: S_7  and  C_8
REMARK    4  A    between atoms: C_8  and  C_9
REMARK                            x       y       z     vdW  Elec       q    Type
REMARK                         _______ _______ _______ _____ _____    ______ ____
ROOT
ATOM      1  C   UNL     1       2.510   5.939  19.241  0.00  0.00    +0.000 C 
ATOM      2  O   UNL     1       2.588   5.395  20.345  0.00  0.00    +0.000 OA
ATOM      3  N   UNL     1       2.262   7.313  19.131  0.00  0.00    +0.000 N 
ATOM      4  C   UNL     1       2.178   8.023  17.847  0.00  0.00    +0.000 C 
ATOM      5  C   UNL     1       2.138   9.551  17.955  0.00  0.00    +0.000 C 
ATOM      6  C   UNL     1       1.060   9.950  18.925  0.00  0.00    +0.000 A 
ATOM      7  C   UNL     1       0.232  11.056  18.710  0.00  0.00    +0.000 A 
ATOM      8  C   UNL     1      -0.760  11.370  19.639  0.00  0.00    +0.000 A 
ATOM      9  C   UNL     1      -0.921  10.593  20.786  0.00  0.00    +0.000 A 
ATOM     10  C   UNL     1      -0.080   9.504  21.016  0.00  0.00    +0.000 A 
ATOM     11  C   UNL     1       0.914   9.174  20.088  0.00  0.00    +0.000 A 
ATOM     12  C   UNL     1       1.888   8.047  20.349  0.00  0.00    +0.000 C 
ENDROOT
BRANCH   1  13
ATOM     13  C   UNL     1       2.727   5.156  17.929  0.00  0.00    +0.000 C 
BRANCH  13  14
ATOM     14  S   UNL     1       3.708   3.619  18.204  0.00  0.00    +0.000 S 
BRANCH  14  20
ATOM     15  C   UNL     1       5.850   3.963  15.675  0.00  0.00    +0.000 C 
ATOM     16  N   UNL     1       6.138   4.267  17.052  0.00  0.00    +0.000 N 
ATOM     17  C   UNL     1       7.347   4.742  17.480  0.00  0.00    +0.000 A 
ATOM     18  N   UNL     1       7.304   4.938  18.780  0.00  0.00    +0.000 NA
ATOM     19  N   UNL     1       6.046   4.584  19.217  0.00  0.00    +0.000 NA
ATOM     20  C   UNL     1       5.346   4.175  18.172  0.00  0.00    +0.000 A 
ENDBRANCH  14  20
ENDBRANCH  13  14
ENDBRANCH   1  13
TORSDOF 3
ENDMDL
MODEL 6
REMARK VINA RESULT:      -6.9      3.596      5.745
REMARK  Name = 
REMARK  4 active torsions:
REMARK  status: ('A' for Active; 'I' for Inactive)
REMARK    1  A    between atoms: C_1  and  N_2
REMARK    2  A    between atoms: C_6  and  S_7
REMARK    3  A    between atoms: S_7  and  C_8
REMARK    4  A    between atoms: C_8  and  C_9
REMARK                            x       y       z     vdW  Elec       q    Type
REMARK                         _______ _______ _______ _____ _____    ______ ____
ROOT
ATOM      1  C   UNL     1       4.112   5.415  18.199  0.00  0.00    +0.000 C 
ATOM      2  O   UNL     1       4.298   5.396  16.980  0.00  0.00    +0.000 OA
ATOM      3  N   UNL     1       3.079   6.178  18.758  0.00  0.00    +0.000 N 
ATOM      4  C   UNL     1       2.794   6.226  20.199  0.00  0.00    +0.000 C 
ATOM      5  C   UNL     1       1.484   6.926  20.576  0.00  0.00    +0.000 C 
ATOM      6  C   UNL     1       1.439   8.278  19.917  0.00  0.00    +0.000 A 
ATOM      7  C   UNL     1       0.932   9.409  20.564  0.00  0.00    +0.000 A 
ATOM      8  C   UNL     1       0.928  10.640  19.907  0.00  0.00    +0.000 A 
ATOM      9  C   UNL     1       1.416  10.743  18.605  0.00  0.00    +0.000 A 
ATOM     10  C   UNL     1       1.900   9.611  17.948  0.00  0.00    +0.000 A 
ATOM     11  C   UNL     1       1.916   8.373  18.598  0.00  0.00    +0.000 A 
ATOM     12  C   UNL     1       2.362   7.117  17.884  0.00  0.00    +0.000 C 
ENDROOT
BRANCH   1  13
ATOM     13  C   UNL     1       4.966   4.569  19.167  0.00  0.00    +0.000 C 
BRANCH  13  14
ATOM     14  S   UNL     1       4.450   2.799  19.164  0.00  0.00    +0.000 S 
BRANCH  14  20
ATOM     15  C   UNL     1       1.180   3.067  18.578  0.00  0.00    +0.000 C 
ATOM     16  N   UNL     1       1.779   2.898  19.877  0.00  0.00    +0.000 N 
ATOM     17  C   UNL     1       1.055   2.826  21.035  0.00  0.00    +0.000 A 
ATOM     18  N   UNL     1       1.872   2.657  22.051  0.00  0.00    +0.000 NA
ATOM     19  N   UNL     1       3.157   2.619  21.555  0.00  0.00    +0.000 NA
ATOM     20  C   UNL     1       3.098   2.770  20.243  0.00  0.00    +0.000 A 
ENDBRANCH  14  20
ENDBRANCH  13  14
ENDBRANCH   1  13
TORSDOF 3
ENDMDL
MODEL 7
REMARK VINA RESULT:      -6.8      3.485      4.619
REMARK  Name = 
REMARK  4 active torsions:
REMARK  status: ('A' for Active; 'I' for Inactive)
REMARK    1  A    between atoms: C_1  and  N_2
REMARK    2  A    between atoms: C_6  and  S_7
REMARK    3  A    between atoms: S_7  and  C_8
REMARK    4  A    between atoms: C_8  and  C_9
REMARK                            x       y       z     vdW  Elec       q    Type
REMARK                         _______ _______ _______ _____ _____    ______ ____
ROOT
ATOM      1  C   UNL     1       2.386   4.867  19.177  0.00  0.00    +0.000 C 
ATOM      2  O   UNL     1       2.443   4.271  20.255  0.00  0.00    +0.000 OA
ATOM      3  N   UNL     1       2.345   6.266  19.128  0.00  0.00    +0.000 N 
ATOM      4  C   UNL     1       2.297   7.034  17.876  0.00  0.00    +0.000 C 
ATOM      5  C   UNL     1       2.497   8.545  18.037  0.00  0.00    +0.000 C 
ATOM      6  C   UNL     1       1.548   9.060  19.086  0.00  0.00    +0.000 A 
ATOM      7  C   UNL     1       0.887  10.285  18.960  0.00  0.00    +0.000 A 
ATOM      8  C   UNL     1       0.008  10.705  19.959  0.00  0.00    +0.000 A 
ATOM      9  C   UNL     1      -0.203   9.913  21.086  0.00  0.00    +0.000 A 
ATOM     10  C   UNL     1       0.473   8.701  21.227  0.00  0.00    +0.000 A 
ATOM     11  C   UNL     1       1.352   8.266  20.229  0.00  0.00    +0.000 A 
ATOM     12  C   UNL     1       2.156   6.996  20.390  0.00  0.00    +0.000 C 
ENDROOT
BRANCH   1  13
ATOM     13  C   UNL     1       2.407   4.117  17.828  0.00  0.00    +0.000 C 
BRANCH  13  14
ATOM     14  S   UNL     1       3.962   3.149  17.609  0.00  0.00    +0.000 S 
BRANCH  14  20
ATOM     15  C   UNL     1       5.301   5.820  16.132  0.00  0.00    +0.000 C 
ATOM     16  N   UNL     1       5.672   5.316  17.428  0.00  0.00    +0.000 N 
ATOM     17  C   UNL     1       6.634   5.892  18.212  0.00  0.00    +0.000 A 
ATOM     18  N   UNL     1       6.740   5.222  19.338  0.00  0.00    +0.000 NA
ATOM     19  N   UNL     1       5.834   4.184  19.295  0.00  0.00    +0.000 NA
ATOM     20  C   UNL     1       5.195   4.241  18.139  0.00  0.00    +0.000 A 
ENDBRANCH  14  20
ENDBRANCH  13  14
ENDBRANCH   1  13
TORSDOF 3
ENDMDL
MODEL 8
REMARK VINA RESULT:      -6.8      2.823      5.736
REMARK  Name = 
REMARK  4 active torsions:
REMARK  status: ('A' for Active; 'I' for Inactive)
REMARK    1  A    between atoms: C_1  and  N_2
REMARK    2  A    between atoms: C_6  and  S_7
REMARK    3  A    between atoms: S_7  and  C_8
REMARK    4  A    between atoms: C_8  and  C_9
REMARK                            x       y       z     vdW  Elec       q    Type
REMARK                         _______ _______ _______ _____ _____    ______ ____
ROOT
ATOM      1  C   UNL     1       2.609   6.605  19.176  0.00  0.00    +0.000 C 
ATOM      2  O   UNL     1       1.859   7.366  18.561  0.00  0.00    +0.000 OA
ATOM      3  N   UNL     1       3.911   6.355  18.724  0.00  0.00    +0.000 N 
ATOM      4  C   UNL     1       4.858   5.476  19.424  0.00  0.00    +0.000 C 
ATOM      5  C   UNL     1       6.296   5.526  18.896  0.00  0.00    +0.000 C 
ATOM      6  C   UNL     1       6.283   5.318  17.406  0.00  0.00    +0.000 A 
ATOM      7  C   UNL     1       7.250   4.552  16.749  0.00  0.00    +0.000 A 
ATOM      8  C   UNL     1       7.180   4.383  15.366  0.00  0.00    +0.000 A 
ATOM      9  C   UNL     1       6.156   4.986  14.636  0.00  0.00    +0.000 A 
ATOM     10  C   UNL     1       5.203   5.771  15.285  0.00  0.00    +0.000 A 
ATOM     11  C   UNL     1       5.259   5.942  16.673  0.00  0.00    +0.000 A 
ATOM     12  C   UNL     1       4.286   6.850  17.392  0.00  0.00    +0.000 C 
ENDROOT
BRANCH   1  13
ATOM     13  C   UNL     1       2.181   5.929  20.496  0.00  0.00    +0.000 C 
BRANCH  13  14
ATOM     14  S   UNL     1       1.233   4.376  20.191  0.00  0.00    +0.000 S 
BRANCH  14  20
ATOM     15  C   UNL     1       2.344   3.381  17.211  0.00  0.00    +0.000 C 
ATOM     16  N   UNL     1       2.826   2.899  18.479  0.00  0.00    +0.000 N 
ATOM     17  C   UNL     1       3.815   1.963  18.601  0.00  0.00    +0.000 A 
ATOM     18  N   UNL     1       4.049   1.737  19.875  0.00  0.00    +0.000 NA
ATOM     19  N   UNL     1       3.198   2.537  20.607  0.00  0.00    +0.000 NA
ATOM     20  C   UNL     1       2.458   3.233  19.761  0.00  0.00    +0.000 A 
ENDBRANCH  14  20
ENDBRANCH  13  14
ENDBRANCH   1  13
TORSDOF 3
ENDMDL
MODEL 9
REMARK VINA RESULT:      -6.7      3.055      4.317
REMARK  Name = 
REMARK  4 active torsions:
REMARK  status: ('A' for Active; 'I' for Inactive)
REMARK    1  A    between atoms: C_1  and  N_2
REMARK    2  A    between atoms: C_6  and  S_7
REMARK    3  A    between atoms: S_7  and  C_8
REMARK    4  A    between atoms: C_8  and  C_9
REMARK                            x       y       z     vdW  Elec       q    Type
REMARK                         _______ _______ _______ _____ _____    ______ ____
ROOT
ATOM      1  C   UNL     1       4.903   6.355  16.758  0.00  0.00    +0.000 C 
ATOM      2  O   UNL     1       4.878   7.059  15.746  0.00  0.00    +0.000 OA
ATOM      3  N   UNL     1       3.836   6.358  17.665  0.00  0.00    +0.000 N 
ATOM      4  C   UNL     1       3.797   5.528  18.876  0.00  0.00    +0.000 C 
ATOM      5  C   UNL     1       2.447   5.504  19.600  0.00  0.00    +0.000 C 
ATOM      6  C   UNL     1       1.987   6.917  19.835  0.00  0.00    +0.000 A 
ATOM      7  C   UNL     1       1.356   7.312  21.018  0.00  0.00    +0.000 A 
ATOM      8  C   UNL     1       0.963   8.640  21.185  0.00  0.00    +0.000 A 
ATOM      9  C   UNL     1       1.186   9.571  20.171  0.00  0.00    +0.000 A 
ATOM     10  C   UNL     1       1.793   9.175  18.978  0.00  0.00    +0.000 A 
ATOM     11  C   UNL     1       2.198   7.848  18.802  0.00  0.00    +0.000 A 
ATOM     12  C   UNL     1       2.787   7.374  17.493  0.00  0.00    +0.000 C 
ENDROOT
BRANCH   1  13
ATOM     13  C   UNL     1       6.078   5.399  17.058  0.00  0.00    +0.000 C 
BRANCH  13  14
ATOM     14  S   UNL     1       6.128   3.986  15.874  0.00  0.00    +0.000 S 
BRANCH  14  20
ATOM     15  C   UNL     1       5.802   3.379  12.613  0.00  0.00    +0.000 C 
ATOM     16  N   UNL     1       6.749   4.294  13.196  0.00  0.00    +0.000 N 
ATOM     17  C   UNL     1       7.633   5.031  12.459  0.00  0.00    +0.000 A 
ATOM     18  N   UNL     1       8.354   5.782  13.262  0.00  0.00    +0.000 NA
ATOM     19  N   UNL     1       7.938   5.534  14.553  0.00  0.00    +0.000 NA
ATOM     20  C   UNL     1       6.973   4.632  14.510  0.00  0.00    +0.000 A 
ENDBRANCH  14  20
ENDBRANCH  13  14
ENDBRANCH   1  13
TORSDOF 3
ENDMDL
