MODEL 1
REMARK VINA RESULT:      -8.7      0.000      0.000
REMARK  Name = 
REMARK  4 active torsions:
REMARK  status: ('A' for Active; 'I' for Inactive)
REMARK    1  A    between atoms: C_1  and  C_2
REMARK    2  A    between atoms: C_3  and  C_4
REMARK    3  A    between atoms: C_4  and  C_6
REMARK    4  A    between atoms: C_12  and  C_13
REMARK                            x       y       z     vdW  Elec       q    Type
REMARK                         _______ _______ _______ _____ _____    ______ ____
ROOT
ATOM      1  C   UNL     1       7.850   7.885  17.088  0.00  0.00    +0.000 C 
ATOM      2  C   UNL     1       7.330   6.616  17.718  0.00  0.00    +0.000 C 
ATOM      3  C   UNL     1       6.420   5.728  17.246  0.00  0.00    +0.000 C 
ATOM      4  C   UNL     1       6.029   4.527  18.091  0.00  0.00    +0.000 C 
ATOM      5  N   UNL     1       6.542   4.615  19.442  0.00  0.00    +0.000 N 
ATOM      6  C   UNL     1       7.560   5.409  19.824  0.00  0.00    +0.000 C 
ATOM      7  O   UNL     1       8.110   5.274  20.909  0.00  0.00    +0.000 OA
ATOM      8  N   UNL     1       7.910   6.383  18.950  0.00  0.00    +0.000 N 
ATOM      9  H   UNL     1       6.318   3.882  20.104  0.00  0.00    +0.000 HD
ATOM     10  H   UNL     1       8.620   7.016  19.301  0.00  0.00    +0.000 HD
ENDROOT
BRANCH   4  11
ATOM     11  C   UNL     1       4.549   4.192  18.218  0.00  0.00    +0.000 A 
ATOM     12  C   UNL     1       3.866   3.420  17.264  0.00  0.00    +0.000 A 
ATOM     13  C   UNL     1       2.481   3.246  17.351  0.00  0.00    +0.000 A 
ATOM     14  C   UNL     1       1.758   3.860  18.373  0.00  0.00    +0.000 A 
ATOM     15  C   UNL     1       2.424   4.629  19.322  0.00  0.00    +0.000 A 
ATOM     16 CL   UNL     1       1.535   5.420  20.564  0.00  0.00    +0.000 Cl
ATOM     17  C   UNL     1       3.807   4.790  19.254  0.00  0.00    +0.000 A 
ENDBRANCH   4  11
BRANCH   3  18
ATOM     18  C   UNL     1       5.760   5.960  15.907  0.00  0.00    +0.000 C 
ATOM     19  O   UNL     1       4.827   6.758  15.809  0.00  0.00    +0.000 OA
BRANCH  18  20
ATOM     20  C   UNL     1       6.115   5.193  14.671  0.00  0.00    +0.000 A 
ATOM     21  C   UNL     1       7.341   5.504  14.054  0.00  0.00    +0.000 A 
ATOM     22  C   UNL     1       7.746   4.861  12.883  0.00  0.00    +0.000 A 
ATOM     23  C   UNL     1       6.922   3.906  12.299  0.00  0.00    +0.000 A 
ATOM     24  C   UNL     1       5.719   3.563  12.911  0.00  0.00    +0.000 A 
ATOM     25  C   UNL     1       5.336   4.175  14.112  0.00  0.00    +0.000 A 
ENDBRANCH  18  20
ENDBRANCH   3  18
TORSDOF 3
ENDMDL
MODEL 2
REMARK VINA RESULT:      -8.5      0.170      1.012
REMARK  Name = 
REMARK  4 active torsions:
REMARK  status: ('A' for Active; 'I' for Inactive)
REMARK    1  A    between atoms: C_1  and  C_2
REMARK    2  A    between atoms: C_3  and  C_4
REMARK    3  A    between atoms: C_4  and  C_6
REMARK    4  A    between atoms: C_12  and  C_13
REMARK                            x       y       z     vdW  Elec       q    Type
REMARK                         _______ _______ _______ _____ _____    ______ ____
ROOT
ATOM      1  C   UNL     1       7.840   7.924  17.158  0.00  0.00    +0.000 C 
ATOM      2  C   UNL     1       7.339   6.642  17.775  0.00  0.00    +0.000 C 
ATOM      3  C   UNL     1       6.432   5.752  17.299  0.00  0.00    +0.000 C 
ATOM      4  C   UNL     1       6.063   4.534  18.130  0.00  0.00    +0.000 C 
ATOM      5  N   UNL     1       6.589   4.607  19.476  0.00  0.00    +0.000 N 
ATOM      6  C   UNL     1       7.604   5.406  19.859  0.00  0.00    +0.000 C 
ATOM      7  O   UNL     1       8.167   5.259  20.936  0.00  0.00    +0.000 OA
ATOM      8  N   UNL     1       7.935   6.396  18.996  0.00  0.00    +0.000 N 
ATOM      9  H   UNL     1       6.380   3.862  20.130  0.00  0.00    +0.000 HD
ATOM     10  H   UNL     1       8.643   7.030  19.349  0.00  0.00    +0.000 HD
ENDROOT
BRANCH   4  11
ATOM     11  C   UNL     1       4.587   4.183  18.268  0.00  0.00    +0.000 A 
ATOM     12  C   UNL     1       3.916   3.368  17.342  0.00  0.00    +0.000 A 
ATOM     13  C   UNL     1       2.534   3.177  17.435  0.00  0.00    +0.000 A 
ATOM     14  C   UNL     1       1.801   3.817  18.433  0.00  0.00    +0.000 A 
ATOM     15  C   UNL     1       2.455   4.629  19.355  0.00  0.00    +0.000 A 
ATOM     16 CL   UNL     1       1.554   5.452  20.568  0.00  0.00    +0.000 Cl
ATOM     17  C   UNL     1       3.835   4.807  19.282  0.00  0.00    +0.000 A 
ENDBRANCH   4  11
BRANCH   3  18
ATOM     18  C   UNL     1       5.755   5.998  15.971  0.00  0.00    +0.000 C 
ATOM     19  O   UNL     1       4.821   6.797  15.893  0.00  0.00    +0.000 OA
BRANCH  18  20
ATOM     20  C   UNL     1       6.094   5.243  14.723  0.00  0.00    +0.000 A 
ATOM     21  C   UNL     1       5.125   4.349  14.232  0.00  0.00    +0.000 A 
ATOM     22  C   UNL     1       5.360   3.582  13.089  0.00  0.00    +0.000 A 
ATOM     23  C   UNL     1       6.578   3.685  12.427  0.00  0.00    +0.000 A 
ATOM     24  C   UNL     1       7.537   4.587  12.880  0.00  0.00    +0.000 A 
ATOM     25  C   UNL     1       7.282   5.390  13.998  0.00  0.00    +0.000 A 
ENDBRANCH  18  20
ENDBRANCH   3  18
TORSDOF 3
ENDMDL
MODEL 3
REMARK VINA RESULT:      -8.1      2.681      5.456
REMARK  Name = 
REMARK  4 active torsions:
REMARK  status: ('A' for Active; 'I' for Inactive)
REMARK    1  A    between atoms: C_1  and  C_2
REMARK    2  A    between atoms: C_3  and  C_4
REMARK    3  A    between atoms: C_4  and  C_6
REMARK    4  A    between atoms: C_12  and  C_13
REMARK                            x       y       z     vdW  Elec       q    Type
REMARK                         _______ _______ _______ _____ _____    ______ ____
ROOT
ATOM      1  C   UNL     1       5.288   3.130  15.545  0.00  0.00    +0.000 C 
ATOM      2  C   UNL     1       5.304   4.321  16.470  0.00  0.00    +0.000 C 
ATOM      3  C   UNL     1       4.398   4.698  17.408  0.00  0.00    +0.000 C 
ATOM      4  C   UNL     1       4.622   5.974  18.202  0.00  0.00    +0.000 C 
ATOM      5  N   UNL     1       5.710   6.767  17.674  0.00  0.00    +0.000 N 
ATOM      6  C   UNL     1       6.678   6.297  16.862  0.00  0.00    +0.000 C 
ATOM      7  O   UNL     1       7.698   6.935  16.639  0.00  0.00    +0.000 OA
ATOM      8  N   UNL     1       6.433   5.094  16.287  0.00  0.00    +0.000 N 
ATOM      9  H   UNL     1       5.931   7.656  18.108  0.00  0.00    +0.000 HD
ATOM     10  H   UNL     1       7.138   4.807  15.618  0.00  0.00    +0.000 HD
ENDROOT
BRANCH   4  11
ATOM     11  C   UNL     1       3.445   6.926  18.374  0.00  0.00    +0.000 A 
ATOM     12  C   UNL     1       3.106   7.889  17.411  0.00  0.00    +0.000 A 
ATOM     13  C   UNL     1       2.102   8.827  17.667  0.00  0.00    +0.000 A 
ATOM     14  C   UNL     1       1.442   8.834  18.895  0.00  0.00    +0.000 A 
ATOM     15  C   UNL     1       1.772   7.886  19.859  0.00  0.00    +0.000 A 
ATOM     16 CL   UNL     1       0.989   7.909  21.391  0.00  0.00    +0.000 Cl
ATOM     17  C   UNL     1       2.757   6.934  19.603  0.00  0.00    +0.000 A 
ENDBRANCH   4  11
BRANCH   3  18
ATOM     18  C   UNL     1       3.147   3.880  17.624  0.00  0.00    +0.000 C 
ATOM     19  O   UNL     1       2.420   3.598  16.669  0.00  0.00    +0.000 OA
BRANCH  18  20
ATOM     20  C   UNL     1       2.668   3.452  18.976  0.00  0.00    +0.000 A 
ATOM     21  C   UNL     1       1.294   3.601  19.246  0.00  0.00    +0.000 A 
ATOM     22  C   UNL     1       0.758   3.255  20.487  0.00  0.00    +0.000 A 
ATOM     23  C   UNL     1       1.591   2.768  21.488  0.00  0.00    +0.000 A 
ATOM     24  C   UNL     1       2.947   2.584  21.230  0.00  0.00    +0.000 A 
ATOM     25  C   UNL     1       3.475   2.887  19.969  0.00  0.00    +0.000 A 
ENDBRANCH  18  20
ENDBRANCH   3  18
TORSDOF 3
ENDMDL
MODEL 4
REMARK VINA RESULT:      -8.0      3.096      6.121
REMARK  Name = 
REMARK  4 active torsions:
REMARK  status: ('A' for Active; 'I' for Inactive)
REMARK    1  A    between atoms: C_1  and  C_2
REMARK    2  A    between atoms: C_3  and  C_4
REMARK    3  A    between atoms: C_4  and  C_6
REMARK    4  A    between atoms: C_12  and  C_13
REMARK                            x       y       z     vdW  Elec       q    Type
REMARK                         _______ _______ _______ _____ _____    ______ ____
ROOT
ATOM      1  C   UNL     1       1.051   2.521  19.756  0.00  0.00    +0.000 C 
ATOM      2  C   UNL     1       2.487   2.985  19.756  0.00  0.00    +0.000 C 
ATOM      3  C   UNL     1       3.033   4.102  19.212  0.00  0.00    +0.000 C 
ATOM      4  C   UNL     1       4.531   4.335  19.315  0.00  0.00    +0.000 C 
ATOM      5  N   UNL     1       5.237   3.174  19.811  0.00  0.00    +0.000 N 
ATOM      6  C   UNL     1       4.661   2.159  20.486  0.00  0.00    +0.000 C 
ATOM      7  O   UNL     1       5.328   1.326  21.087  0.00  0.00    +0.000 OA
ATOM      8  N   UNL     1       3.309   2.101  20.426  0.00  0.00    +0.000 N 
ATOM      9  H   UNL     1       6.245   3.205  19.894  0.00  0.00    +0.000 HD
ATOM     10  H   UNL     1       2.912   1.281  20.870  0.00  0.00    +0.000 HD
ENDROOT
BRANCH   4  11
ATOM     11  C   UNL     1       5.274   4.783  18.064  0.00  0.00    +0.000 A 
ATOM     12  C   UNL     1       5.328   4.001  16.898  0.00  0.00    +0.000 A 
ATOM     13  C   UNL     1       6.129   4.390  15.820  0.00  0.00    +0.000 A 
ATOM     14  C   UNL     1       6.904   5.546  15.899  0.00  0.00    +0.000 A 
ATOM     15  C   UNL     1       6.860   6.327  17.050  0.00  0.00    +0.000 A 
ATOM     16 CL   UNL     1       7.841   7.735  17.171  0.00  0.00    +0.000 Cl
ATOM     17  C   UNL     1       6.049   5.957  18.121  0.00  0.00    +0.000 A 
ENDBRANCH   4  11
BRANCH   3  18
ATOM     18  C   UNL     1       2.162   5.083  18.463  0.00  0.00    +0.000 C 
ATOM     19  O   UNL     1       1.617   4.746  17.411  0.00  0.00    +0.000 OA
BRANCH  18  20
ATOM     20  C   UNL     1       1.986   6.511  18.880  0.00  0.00    +0.000 A 
ATOM     21  C   UNL     1       1.706   6.751  20.238  0.00  0.00    +0.000 A 
ATOM     22  C   UNL     1       1.499   8.047  20.716  0.00  0.00    +0.000 A 
ATOM     23  C   UNL     1       1.553   9.123  19.839  0.00  0.00    +0.000 A 
ATOM     24  C   UNL     1       1.859   8.908  18.497  0.00  0.00    +0.000 A 
ATOM     25  C   UNL     1       2.113   7.613  18.028  0.00  0.00    +0.000 A 
ENDBRANCH  18  20
ENDBRANCH   3  18
TORSDOF 3
ENDMDL
MODEL 5
REMARK VINA RESULT:      -8.0      2.703      5.397
REMARK  Name = 
REMARK  4 active torsions:
REMARK  status: ('A' for Active; 'I' for Inactive)
REMARK    1  A    between atoms: C_1  and  C_2
REMARK    2  A    between atoms: C_3  and  C_4
REMARK    3  A    between atoms: C_4  and  C_6
REMARK    4  A    between atoms: C_12  and  C_13
REMARK                            x       y       z     vdW  Elec       q    Type
REMARK                         _______ _______ _______ _____ _____    ______ ____
ROOT
ATOM      1  C   UNL     1       5.247   3.180  15.531  0.00  0.00    +0.000 C 
ATOM      2  C   UNL     1       5.261   4.364  16.467  0.00  0.00    +0.000 C 
ATOM      3  C   UNL     1       4.351   4.736  17.402  0.00  0.00    +0.000 C 
ATOM      4  C   UNL     1       4.574   6.004  18.209  0.00  0.00    +0.000 C 
ATOM      5  N   UNL     1       5.669   6.798  17.694  0.00  0.00    +0.000 N 
ATOM      6  C   UNL     1       6.640   6.330  16.884  0.00  0.00    +0.000 C 
ATOM      7  O   UNL     1       7.663   6.968  16.673  0.00  0.00    +0.000 OA
ATOM      8  N   UNL     1       6.394   5.134  16.298  0.00  0.00    +0.000 N 
ATOM      9  H   UNL     1       5.890   7.682  18.137  0.00  0.00    +0.000 HD
ATOM     10  H   UNL     1       7.102   4.850  15.630  0.00  0.00    +0.000 HD
ENDROOT
BRANCH   4  11
ATOM     11  C   UNL     1       3.400   6.958  18.382  0.00  0.00    +0.000 A 
ATOM     12  C   UNL     1       3.031   7.887  17.396  0.00  0.00    +0.000 A 
ATOM     13  C   UNL     1       2.031   8.831  17.649  0.00  0.00    +0.000 A 
ATOM     14  C   UNL     1       1.406   8.878  18.895  0.00  0.00    +0.000 A 
ATOM     15  C   UNL     1       1.767   7.965  19.881  0.00  0.00    +0.000 A 
ATOM     16 CL   UNL     1       1.028   8.039  21.432  0.00  0.00    +0.000 Cl
ATOM     17  C   UNL     1       2.747   7.007  19.629  0.00  0.00    +0.000 A 
ENDBRANCH   4  11
BRANCH   3  18
ATOM     18  C   UNL     1       3.096   3.920  17.604  0.00  0.00    +0.000 C 
ATOM     19  O   UNL     1       2.395   3.615  16.637  0.00  0.00    +0.000 OA
BRANCH  18  20
ATOM     20  C   UNL     1       2.581   3.522  18.953  0.00  0.00    +0.000 A 
ATOM     21  C   UNL     1       3.511   2.975  19.857  0.00  0.00    +0.000 A 
ATOM     22  C   UNL     1       3.121   2.550  21.128  0.00  0.00    +0.000 A 
ATOM     23  C   UNL     1       1.789   2.650  21.511  0.00  0.00    +0.000 A 
ATOM     24  C   UNL     1       0.860   3.217  20.642  0.00  0.00    +0.000 A 
ATOM     25  C   UNL     1       1.262   3.686  19.385  0.00  0.00    +0.000 A 
ENDBRANCH  18  20
ENDBRANCH   3  18
TORSDOF 3
ENDMDL
MODEL 6
REMARK VINA RESULT:      -7.9      1.097      1.277
REMARK  Name = 
REMARK  4 active torsions:
REMARK  status: ('A' for Active; 'I' for Inactive)
REMARK    1  A    between atoms: C_1  and  C_2
REMARK    2  A    between atoms: C_3  and  C_4
REMARK    3  A    between atoms: C_4  and  C_6
REMARK    4  A    between atoms: C_12  and  C_13
REMARK                            x       y       z     vdW  Elec       q    Type
REMARK                         _______ _______ _______ _____ _____    ______ ____
ROOT
ATOM      1  C   UNL     1       8.057   7.780  16.995  0.00  0.00    +0.000 C 
ATOM      2  C   UNL     1       7.382   6.574  17.599  0.00  0.00    +0.000 C 
ATOM      3  C   UNL     1       6.417   5.774  17.079  0.00  0.00    +0.000 C 
ATOM      4  C   UNL     1       5.865   4.623  17.905  0.00  0.00    +0.000 C 
ATOM      5  N   UNL     1       6.308   4.672  19.281  0.00  0.00    +0.000 N 
ATOM      6  C   UNL     1       7.376   5.368  19.718  0.00  0.00    +0.000 C 
ATOM      7  O   UNL     1       7.848   5.189  20.833  0.00  0.00    +0.000 OA
ATOM      8  N   UNL     1       7.867   6.296  18.862  0.00  0.00    +0.000 N 
ATOM      9  H   UNL     1       5.977   3.970  19.932  0.00  0.00    +0.000 HD
ATOM     10  H   UNL     1       8.614   6.860  19.250  0.00  0.00    +0.000 HD
ENDROOT
BRANCH   4  11
ATOM     11  C   UNL     1       4.355   4.434  17.949  0.00  0.00    +0.000 A 
ATOM     12  C   UNL     1       3.456   5.508  17.844  0.00  0.00    +0.000 A 
ATOM     13  C   UNL     1       2.084   5.305  18.021  0.00  0.00    +0.000 A 
ATOM     14  C   UNL     1       1.594   4.037  18.329  0.00  0.00    +0.000 A 
ATOM     15  C   UNL     1       2.476   2.966  18.438  0.00  0.00    +0.000 A 
ATOM     16 CL   UNL     1       1.884   1.405  18.855  0.00  0.00    +0.000 Cl
ATOM     17  C   UNL     1       3.842   3.156  18.243  0.00  0.00    +0.000 A 
ENDBRANCH   4  11
BRANCH   3  18
ATOM     18  C   UNL     1       5.858   6.057  15.705  0.00  0.00    +0.000 C 
ATOM     19  O   UNL     1       5.101   7.014  15.531  0.00  0.00    +0.000 OA
BRANCH  18  20
ATOM     20  C   UNL     1       6.098   5.172  14.521  0.00  0.00    +0.000 A 
ATOM     21  C   UNL     1       7.291   5.374  13.802  0.00  0.00    +0.000 A 
ATOM     22  C   UNL     1       7.589   4.616  12.668  0.00  0.00    +0.000 A 
ATOM     23  C   UNL     1       6.691   3.653  12.224  0.00  0.00    +0.000 A 
ATOM     24  C   UNL     1       5.519   3.418  12.940  0.00  0.00    +0.000 A 
ATOM     25  C   UNL     1       5.243   4.147  14.104  0.00  0.00    +0.000 A 
ENDBRANCH  18  20
ENDBRANCH   3  18
TORSDOF 3
ENDMDL
MODEL 7
REMARK VINA RESULT:      -7.8      3.096      6.183
REMARK  Name = 
REMARK  4 active torsions:
REMARK  status: ('A' for Active; 'I' for Inactive)
REMARK    1  A    between atoms: C_1  and  C_2
REMARK    2  A    between atoms: C_3  and  C_4
REMARK    3  A    between atoms: C_4  and  C_6
REMARK    4  A    between atoms: C_12  and  C_13
REMARK                            x       y       z     vdW  Elec       q    Type
REMARK                         _______ _______ _______ _____ _____    ______ ____
ROOT
ATOM      1  C   UNL     1       1.060   2.629  19.722  0.00  0.00    +0.000 C 
ATOM      2  C   UNL     1       2.510   3.047  19.709  0.00  0.00    +0.000 C 
ATOM      3  C   UNL     1       3.079   4.177  19.219  0.00  0.00    +0.000 C 
ATOM      4  C   UNL     1       4.586   4.357  19.296  0.00  0.00    +0.000 C 
ATOM      5  N   UNL     1       5.265   3.146  19.702  0.00  0.00    +0.000 N 
ATOM      6  C   UNL     1       4.674   2.110  20.330  0.00  0.00    +0.000 C 
ATOM      7  O   UNL     1       5.328   1.223  20.862  0.00  0.00    +0.000 OA
ATOM      8  N   UNL     1       3.319   2.098  20.303  0.00  0.00    +0.000 N 
ATOM      9  H   UNL     1       6.276   3.140  19.759  0.00  0.00    +0.000 HD
ATOM     10  H   UNL     1       2.907   1.266  20.709  0.00  0.00    +0.000 HD
ENDROOT
BRANCH   4  11
ATOM     11  C   UNL     1       5.312   4.856  18.053  0.00  0.00    +0.000 A 
ATOM     12  C   UNL     1       5.382   4.106  16.868  0.00  0.00    +0.000 A 
ATOM     13  C   UNL     1       6.168   4.543  15.797  0.00  0.00    +0.000 A 
ATOM     14  C   UNL     1       6.911   5.717  15.903  0.00  0.00    +0.000 A 
ATOM     15  C   UNL     1       6.851   6.467  17.073  0.00  0.00    +0.000 A 
ATOM     16 CL   UNL     1       7.794   7.898  17.227  0.00  0.00    +0.000 Cl
ATOM     17  C   UNL     1       6.054   6.049  18.137  0.00  0.00    +0.000 A 
ENDBRANCH   4  11
BRANCH   3  18
ATOM     18  C   UNL     1       2.222   5.228  18.554  0.00  0.00    +0.000 C 
ATOM     19  O   UNL     1       1.788   5.042  17.416  0.00  0.00    +0.000 OA
BRANCH  18  20
ATOM     20  C   UNL     1       1.932   6.563  19.169  0.00  0.00    +0.000 A 
ATOM     21  C   UNL     1       2.006   7.686  18.324  0.00  0.00    +0.000 A 
ATOM     22  C   UNL     1       1.779   8.974  18.812  0.00  0.00    +0.000 A 
ATOM     23  C   UNL     1       1.489   9.162  20.158  0.00  0.00    +0.000 A 
ATOM     24  C   UNL     1       1.381   8.060  21.003  0.00  0.00    +0.000 A 
ATOM     25  C   UNL     1       1.563   6.765  20.502  0.00  0.00    +0.000 A 
ENDBRANCH  18  20
ENDBRANCH   3  18
TORSDOF 3
ENDMDL
MODEL 8
REMARK VINA RESULT:      -7.8      3.098      6.152
REMARK  Name = 
REMARK  4 active torsions:
REMARK  status: ('A' for Active; 'I' for Inactive)
REMARK    1  A    between atoms: C_1  and  C_2
REMARK    2  A    between atoms: C_3  and  C_4
REMARK    3  A    between atoms: C_4  and  C_6
REMARK    4  A    between atoms: C_12  and  C_13
REMARK                            x       y       z     vdW  Elec       q    Type
REMARK                         _______ _______ _______ _____ _____    ______ ____
ROOT
ATOM      1  C   UNL     1       1.088   2.502  19.474  0.00  0.00    +0.000 C 
ATOM      2  C   UNL     1       2.523   2.965  19.530  0.00  0.00    +0.000 C 
ATOM      3  C   UNL     1       3.082   4.103  19.048  0.00  0.00    +0.000 C 
ATOM      4  C   UNL     1       4.577   4.332  19.199  0.00  0.00    +0.000 C 
ATOM      5  N   UNL     1       5.270   3.150  19.664  0.00  0.00    +0.000 N 
ATOM      6  C   UNL     1       4.678   2.108  20.281  0.00  0.00    +0.000 C 
ATOM      7  O   UNL     1       5.329   1.252  20.865  0.00  0.00    +0.000 OA
ATOM      8  N   UNL     1       3.328   2.053  20.184  0.00  0.00    +0.000 N 
ATOM      9  H   UNL     1       6.276   3.178  19.774  0.00  0.00    +0.000 HD
ATOM     10  H   UNL     1       2.920   1.216  20.583  0.00  0.00    +0.000 HD
ENDROOT
BRANCH   4  11
ATOM     11  C   UNL     1       5.351   4.831  17.987  0.00  0.00    +0.000 A 
ATOM     12  C   UNL     1       6.073   6.035  17.996  0.00  0.00    +0.000 A 
ATOM     13  C   UNL     1       6.660   6.520  16.823  0.00  0.00    +0.000 A 
ATOM     14  C   UNL     1       6.514   5.825  15.624  0.00  0.00    +0.000 A 
ATOM     15  C   UNL     1       5.798   4.632  15.602  0.00  0.00    +0.000 A 
ATOM     16 CL   UNL     1       5.581   3.786  14.119  0.00  0.00    +0.000 Cl
ATOM     17  C   UNL     1       5.228   4.131  16.771  0.00  0.00    +0.000 A 
ENDBRANCH   4  11
BRANCH   3  18
ATOM     18  C   UNL     1       2.230   5.115  18.318  0.00  0.00    +0.000 C 
ATOM     19  O   UNL     1       1.703   4.819  17.244  0.00  0.00    +0.000 OA
BRANCH  18  20
ATOM     20  C   UNL     1       2.052   6.528  18.781  0.00  0.00    +0.000 A 
ATOM     21  C   UNL     1       1.764   6.722  20.145  0.00  0.00    +0.000 A 
ATOM     22  C   UNL     1       1.555   8.001  20.666  0.00  0.00    +0.000 A 
ATOM     23  C   UNL     1       1.615   9.107  19.826  0.00  0.00    +0.000 A 
ATOM     24  C   UNL     1       1.929   8.936  18.480  0.00  0.00    +0.000 A 
ATOM     25  C   UNL     1       2.185   7.658  17.969  0.00  0.00    +0.000 A 
ENDBRANCH  18  20
ENDBRANCH   3  18
TORSDOF 3
ENDMDL
MODEL 9
REMARK VINA RESULT:      -7.7      1.088      1.657
REMARK  Name = 
REMARK  4 active torsions:
REMARK  status: ('A' for Active; 'I' for Inactive)
REMARK    1  A    between atoms: C_1  and  C_2
REMARK    2  A    between atoms: C_3  and  C_4
REMARK    3  A    between atoms: C_4  and  C_6
REMARK    4  A    between atoms: C_12  and  C_13
REMARK                            x       y       z     vdW  Elec       q    Type
REMARK                         _______ _______ _______ _____ _____    ______ ____
ROOT
ATOM      1  C   UNL     1       8.107   7.846  17.115  0.00  0.00    +0.000 C 
ATOM      2  C   UNL     1       7.449   6.639  17.738  0.00  0.00    +0.000 C 
ATOM      3  C   UNL     1       6.466   5.842  17.246  0.00  0.00    +0.000 C 
ATOM      4  C   UNL     1       5.938   4.691  18.087  0.00  0.00    +0.000 C 
ATOM      5  N   UNL     1       6.424   4.736  19.449  0.00  0.00    +0.000 N 
ATOM      6  C   UNL     1       7.507   5.429  19.853  0.00  0.00    +0.000 C 
ATOM      7  O   UNL     1       8.014   5.246  20.952  0.00  0.00    +0.000 OA
ATOM      8  N   UNL     1       7.973   6.358  18.984  0.00  0.00    +0.000 N 
ATOM      9  H   UNL     1       6.113   4.033  20.108  0.00  0.00    +0.000 HD
ATOM     10  H   UNL     1       8.733   6.919  19.350  0.00  0.00    +0.000 HD
ENDROOT
BRANCH   4  11
ATOM     11  C   UNL     1       4.430   4.505  18.178  0.00  0.00    +0.000 A 
ATOM     12  C   UNL     1       3.542   5.585  18.311  0.00  0.00    +0.000 A 
ATOM     13  C   UNL     1       2.178   5.362  18.523  0.00  0.00    +0.000 A 
ATOM     14  C   UNL     1       1.687   4.062  18.631  0.00  0.00    +0.000 A 
ATOM     15  C   UNL     1       2.557   2.984  18.503  0.00  0.00    +0.000 A 
ATOM     16 CL   UNL     1       1.965   1.377  18.672  0.00  0.00    +0.000 Cl
ATOM     17  C   UNL     1       3.914   3.198  18.271  0.00  0.00    +0.000 A 
ENDBRANCH   4  11
BRANCH   3  18
ATOM     18  C   UNL     1       5.865   6.130  15.891  0.00  0.00    +0.000 C 
ATOM     19  O   UNL     1       5.063   7.056  15.755  0.00  0.00    +0.000 OA
BRANCH  18  20
ATOM     20  C   UNL     1       6.116   5.282  14.683  0.00  0.00    +0.000 A 
ATOM     21  C   UNL     1       5.077   4.423  14.277  0.00  0.00    +0.000 A 
ATOM     22  C   UNL     1       5.227   3.575  13.178  0.00  0.00    +0.000 A 
ATOM     23  C   UNL     1       6.427   3.559  12.476  0.00  0.00    +0.000 A 
ATOM     24  C   UNL     1       7.455   4.424  12.844  0.00  0.00    +0.000 A 
ATOM     25  C   UNL     1       7.286   5.308  13.917  0.00  0.00    +0.000 A 
ENDBRANCH  18  20
ENDBRANCH   3  18
TORSDOF 3
ENDMDL
