MODEL 1
REMARK VINA RESULT:      -8.7      0.000      0.000
REMARK  Name = 
REMARK  7 active torsions:
REMARK  status: ('A' for Active; 'I' for Inactive)
REMARK    1  A    between atoms: S_2  and  N_4
REMARK    2  A    between atoms: S_2  and  C_14
REMARK    3  A    between atoms: N_4  and  C_5
REMARK    4  A    between atoms: C_5  and  C_6
REMARK    5  A    between atoms: C_6  and  C_7
REMARK    6  A    between atoms: C_7  and  N_8
REMARK    7  A    between atoms: C_24  and  O_25
REMARK                            x       y       z     vdW  Elec       q    Type
REMARK                         _______ _______ _______ _____ _____    ______ ____
ROOT
ATOM      1  C   UNL     1       2.478   4.460  18.824  0.00  0.00    +0.000 A 
ATOM      2  C   UNL     1       2.142   4.453  20.193  0.00  0.00    +0.000 A 
ATOM      3  C   UNL     1       1.785   5.628  20.851  0.00  0.00    +0.000 A 
ATOM      4  C   UNL     1       1.777   6.807  20.128  0.00  0.00    +0.000 A 
ATOM      5  C   UNL     1       2.101   6.829  18.753  0.00  0.00    +0.000 A 
ATOM      6  C   UNL     1       2.465   5.655  18.082  0.00  0.00    +0.000 A 
ATOM      7  C   UNL     1       1.982   8.269  18.244  0.00  0.00    +0.000 C 
ATOM      8  C   UNL     1       1.592   9.047  19.498  0.00  0.00    +0.000 A 
ATOM      9  C   UNL     1       1.478   8.148  20.566  0.00  0.00    +0.000 A 
ATOM     10  N   UNL     1       1.113   8.445  21.824  0.00  0.00    +0.000 NA
ATOM     11  C   UNL     1       0.792   9.734  21.990  0.00  0.00    +0.000 A 
ATOM     12  C   UNL     1       0.791  10.729  21.004  0.00  0.00    +0.000 A 
ATOM     13  C   UNL     1       0.242  11.990  21.247  0.00  0.00    +0.000 A 
ATOM     14  C   UNL     1       0.103  12.905  20.215  0.00  0.00    +0.000 A 
ATOM     15  C   UNL     1       0.746  12.679  19.003  0.00  0.00    +0.000 A 
ATOM     16  C   UNL     1       1.318  11.428  18.740  0.00  0.00    +0.000 A 
ATOM     17  C   UNL     1       1.266  10.394  19.705  0.00  0.00    +0.000 A 
ENDROOT
BRANCH   1  19
ATOM     18  O   UNL     1       2.238   2.609  16.978  0.00  0.00    +0.000 OA
ATOM     19  S   UNL     1       3.049   2.907  18.157  0.00  0.00    +0.000 S 
ATOM     20  O   UNL     1       3.155   1.970  19.233  0.00  0.00    +0.000 OA
BRANCH  19  21
ATOM     21  N   UNL     1       4.619   3.160  17.569  0.00  0.00    +0.000 NA
ATOM     22  H   UNL     1       5.075   2.252  17.570  0.00  0.00    +0.000 HD
BRANCH  21  23
ATOM     23  C   UNL     1       4.679   3.816  16.238  0.00  0.00    +0.000 C 
BRANCH  23  24
ATOM     24  C   UNL     1       6.116   3.845  15.729  0.00  0.00    +0.000 C 
BRANCH  24  25
ATOM     25  C   UNL     1       6.949   4.942  16.416  0.00  0.00    +0.000 C 
BRANCH  25  26
ATOM     26  N   UNL     1       6.202   5.700  17.436  0.00  0.00    +0.000 NA
ATOM     27  C   UNL     1       6.295   7.163  17.190  0.00  0.00    +0.000 C 
ATOM     28  C   UNL     1       7.695   7.752  17.462  0.00  0.00    +0.000 C 
ATOM     29  O   UNL     1       8.179   7.424  18.773  0.00  0.00    +0.000 OA
ATOM     30  C   UNL     1       8.128   6.013  19.021  0.00  0.00    +0.000 C 
ATOM     31  C   UNL     1       6.702   5.477  18.813  0.00  0.00    +0.000 C 
ENDBRANCH  25  26
ENDBRANCH  24  25
ENDBRANCH  23  24
ENDBRANCH  21  23
ENDBRANCH  19  21
ENDBRANCH   1  19
BRANCH  11  32
ATOM     32  O   UNL     1       0.363  10.011  23.254  0.00  0.00    +0.000 OA
ATOM     33  H   UNL     1      -0.267  10.727  23.062  0.00  0.00    +0.000 HD
ENDBRANCH  11  32
TORSDOF 7
ENDMDL
MODEL 2
REMARK VINA RESULT:      -8.3      3.359      8.774
REMARK  Name = 
REMARK  7 active torsions:
REMARK  status: ('A' for Active; 'I' for Inactive)
REMARK    1  A    between atoms: S_2  and  N_4
REMARK    2  A    between atoms: S_2  and  C_14
REMARK    3  A    between atoms: N_4  and  C_5
REMARK    4  A    between atoms: C_5  and  C_6
REMARK    5  A    between atoms: C_6  and  C_7
REMARK    6  A    between atoms: C_7  and  N_8
REMARK    7  A    between atoms: C_24  and  O_25
REMARK                            x       y       z     vdW  Elec       q    Type
REMARK                         _______ _______ _______ _____ _____    ______ ____
ROOT
ATOM      1  C   UNL     1       1.202   8.566  20.587  0.00  0.00    +0.000 A 
ATOM      2  C   UNL     1       1.167   7.282  21.168  0.00  0.00    +0.000 A 
ATOM      3  C   UNL     1       1.826   6.207  20.574  0.00  0.00    +0.000 A 
ATOM      4  C   UNL     1       2.508   6.429  19.393  0.00  0.00    +0.000 A 
ATOM      5  C   UNL     1       2.561   7.712  18.803  0.00  0.00    +0.000 A 
ATOM      6  C   UNL     1       1.900   8.800  19.388  0.00  0.00    +0.000 A 
ATOM      7  C   UNL     1       3.402   7.631  17.525  0.00  0.00    +0.000 C 
ATOM      8  C   UNL     1       3.778   6.154  17.454  0.00  0.00    +0.000 A 
ATOM      9  C   UNL     1       3.239   5.498  18.568  0.00  0.00    +0.000 A 
ATOM     10  N   UNL     1       3.387   4.200  18.881  0.00  0.00    +0.000 NA
ATOM     11  C   UNL     1       4.179   3.539  18.028  0.00  0.00    +0.000 A 
ATOM     12  C   UNL     1       4.840   4.074  16.915  0.00  0.00    +0.000 A 
ATOM     13  C   UNL     1       5.801   3.337  16.219  0.00  0.00    +0.000 A 
ATOM     14  C   UNL     1       6.558   3.936  15.224  0.00  0.00    +0.000 A 
ATOM     15  C   UNL     1       6.187   5.183  14.733  0.00  0.00    +0.000 A 
ATOM     16  C   UNL     1       5.215   5.936  15.403  0.00  0.00    +0.000 A 
ATOM     17  C   UNL     1       4.590   5.432  16.569  0.00  0.00    +0.000 A 
ENDROOT
BRANCH   1  19
ATOM     18  O   UNL     1       1.081  10.897  21.790  0.00  0.00    +0.000 OA
ATOM     19  S   UNL     1       0.197   9.806  21.384  0.00  0.00    +0.000 S 
ATOM     20  O   UNL     1      -0.649   9.153  22.335  0.00  0.00    +0.000 OA
BRANCH  19  21
ATOM     21  N   UNL     1      -0.818  10.469  20.199  0.00  0.00    +0.000 NA
ATOM     22  H   UNL     1      -1.440   9.722  19.904  0.00  0.00    +0.000 HD
BRANCH  21  23
ATOM     23  C   UNL     1      -1.562  11.679  20.633  0.00  0.00    +0.000 C 
BRANCH  23  24
ATOM     24  C   UNL     1      -1.740  12.638  19.460  0.00  0.00    +0.000 C 
BRANCH  24  25
ATOM     25  C   UNL     1      -1.801  11.895  18.114  0.00  0.00    +0.000 C 
BRANCH  25  26
ATOM     26  N   UNL     1      -2.671  10.706  18.132  0.00  0.00    +0.000 NA
ATOM     27  C   UNL     1      -2.344   9.786  17.012  0.00  0.00    +0.000 C 
ATOM     28  C   UNL     1      -2.745  10.328  15.624  0.00  0.00    +0.000 C 
ATOM     29  O   UNL     1      -4.123  10.725  15.571  0.00  0.00    +0.000 OA
ATOM     30  C   UNL     1      -4.454  11.638  16.625  0.00  0.00    +0.000 C 
ATOM     31  C   UNL     1      -4.110  11.032  17.996  0.00  0.00    +0.000 C 
ENDBRANCH  25  26
ENDBRANCH  24  25
ENDBRANCH  23  24
ENDBRANCH  21  23
ENDBRANCH  19  21
ENDBRANCH   1  19
BRANCH  11  32
ATOM     32  O   UNL     1       4.373   2.239  18.390  0.00  0.00    +0.000 OA
ATOM     33  H   UNL     1       4.933   1.943  17.652  0.00  0.00    +0.000 HD
ENDBRANCH  11  32
TORSDOF 7
ENDMDL
MODEL 3
REMARK VINA RESULT:      -8.3      1.172      1.711
REMARK  Name = 
REMARK  7 active torsions:
REMARK  status: ('A' for Active; 'I' for Inactive)
REMARK    1  A    between atoms: S_2  and  N_4
REMARK    2  A    between atoms: S_2  and  C_14
REMARK    3  A    between atoms: N_4  and  C_5
REMARK    4  A    between atoms: C_5  and  C_6
REMARK    5  A    between atoms: C_6  and  C_7
REMARK    6  A    between atoms: C_7  and  N_8
REMARK    7  A    between atoms: C_24  and  O_25
REMARK                            x       y       z     vdW  Elec       q    Type
REMARK                         _______ _______ _______ _____ _____    ______ ____
ROOT
ATOM      1  C   UNL     1       2.354   4.703  18.881  0.00  0.00    +0.000 A 
ATOM      2  C   UNL     1       1.946   4.688  20.230  0.00  0.00    +0.000 A 
ATOM      3  C   UNL     1       1.567   5.861  20.879  0.00  0.00    +0.000 A 
ATOM      4  C   UNL     1       1.609   7.045  20.167  0.00  0.00    +0.000 A 
ATOM      5  C   UNL     1       2.005   7.075  18.811  0.00  0.00    +0.000 A 
ATOM      6  C   UNL     1       2.392   5.904  18.149  0.00  0.00    +0.000 A 
ATOM      7  C   UNL     1       1.927   8.521  18.308  0.00  0.00    +0.000 C 
ATOM      8  C   UNL     1       1.479   9.292  19.547  0.00  0.00    +0.000 A 
ATOM      9  C   UNL     1       1.301   8.386  20.600  0.00  0.00    +0.000 A 
ATOM     10  N   UNL     1       0.872   8.677  21.840  0.00  0.00    +0.000 NA
ATOM     11  C   UNL     1       0.556   9.968  22.000  0.00  0.00    +0.000 A 
ATOM     12  C   UNL     1       0.617  10.970  21.024  0.00  0.00    +0.000 A 
ATOM     13  C   UNL     1       0.068  12.235  21.249  0.00  0.00    +0.000 A 
ATOM     14  C   UNL     1      -0.007  13.159  20.219  0.00  0.00    +0.000 A 
ATOM     15  C   UNL     1       0.697  12.937  19.040  0.00  0.00    +0.000 A 
ATOM     16  C   UNL     1       1.269  11.682  18.797  0.00  0.00    +0.000 A 
ATOM     17  C   UNL     1       1.156  10.641  19.749  0.00  0.00    +0.000 A 
ENDROOT
BRANCH   1  19
ATOM     18  O   UNL     1       2.441   3.023  16.865  0.00  0.00    +0.000 OA
ATOM     19  S   UNL     1       2.943   3.149  18.232  0.00  0.00    +0.000 S 
ATOM     20  O   UNL     1       2.691   2.132  19.205  0.00  0.00    +0.000 OA
BRANCH  19  21
ATOM     21  N   UNL     1       4.628   3.275  18.079  0.00  0.00    +0.000 NA
ATOM     22  H   UNL     1       4.801   3.742  17.194  0.00  0.00    +0.000 HD
BRANCH  21  23
ATOM     23  C   UNL     1       5.298   3.959  19.215  0.00  0.00    +0.000 C 
BRANCH  23  24
ATOM     24  C   UNL     1       6.334   4.951  18.695  0.00  0.00    +0.000 C 
BRANCH  24  25
ATOM     25  C   UNL     1       7.144   4.374  17.521  0.00  0.00    +0.000 C 
BRANCH  25  26
ATOM     26  N   UNL     1       7.593   5.393  16.555  0.00  0.00    +0.000 NA
ATOM     27  C   UNL     1       7.081   6.739  16.920  0.00  0.00    +0.000 C 
ATOM     28  C   UNL     1       5.560   6.903  16.717  0.00  0.00    +0.000 C 
ATOM     29  O   UNL     1       5.145   6.542  15.392  0.00  0.00    +0.000 OA
ATOM     30  C   UNL     1       5.602   5.232  15.030  0.00  0.00    +0.000 C 
ATOM     31  C   UNL     1       7.129   5.132  15.172  0.00  0.00    +0.000 C 
ENDBRANCH  25  26
ENDBRANCH  24  25
ENDBRANCH  23  24
ENDBRANCH  21  23
ENDBRANCH  19  21
ENDBRANCH   1  19
BRANCH  11  32
ATOM     32  O   UNL     1       0.063  10.239  23.242  0.00  0.00    +0.000 OA
ATOM     33  H   UNL     1       0.452  11.119  23.386  0.00  0.00    +0.000 HD
ENDBRANCH  11  32
TORSDOF 7
ENDMDL
MODEL 4
REMARK VINA RESULT:      -8.2      2.025      2.817
REMARK  Name = 
REMARK  7 active torsions:
REMARK  status: ('A' for Active; 'I' for Inactive)
REMARK    1  A    between atoms: S_2  and  N_4
REMARK    2  A    between atoms: S_2  and  C_14
REMARK    3  A    between atoms: N_4  and  C_5
REMARK    4  A    between atoms: C_5  and  C_6
REMARK    5  A    between atoms: C_6  and  C_7
REMARK    6  A    between atoms: C_7  and  N_8
REMARK    7  A    between atoms: C_24  and  O_25
REMARK                            x       y       z     vdW  Elec       q    Type
REMARK                         _______ _______ _______ _____ _____    ______ ____
ROOT
ATOM      1  C   UNL     1       1.909   5.300  20.045  0.00  0.00    +0.000 A 
ATOM      2  C   UNL     1       2.480   5.759  18.841  0.00  0.00    +0.000 A 
ATOM      3  C   UNL     1       2.450   7.110  18.502  0.00  0.00    +0.000 A 
ATOM      4  C   UNL     1       1.838   7.991  19.374  0.00  0.00    +0.000 A 
ATOM      5  C   UNL     1       1.270   7.547  20.589  0.00  0.00    +0.000 A 
ATOM      6  C   UNL     1       1.290   6.192  20.940  0.00  0.00    +0.000 A 
ATOM      7  C   UNL     1       0.692   8.757  21.332  0.00  0.00    +0.000 C 
ATOM      8  C   UNL     1       0.971   9.913  20.375  0.00  0.00    +0.000 A 
ATOM      9  C   UNL     1       1.646   9.415  19.253  0.00  0.00    +0.000 A 
ATOM     10  N   UNL     1       2.098  10.131  18.210  0.00  0.00    +0.000 NA
ATOM     11  C   UNL     1       1.893  11.447  18.345  0.00  0.00    +0.000 A 
ATOM     12  C   UNL     1       1.298  12.093  19.435  0.00  0.00    +0.000 A 
ATOM     13  C   UNL     1       1.324  13.485  19.556  0.00  0.00    +0.000 A 
ATOM     14  C   UNL     1       0.874  14.095  20.716  0.00  0.00    +0.000 A 
ATOM     15  C   UNL     1       0.154  13.357  21.650  0.00  0.00    +0.000 A 
ATOM     16  C   UNL     1       0.100  11.962  21.543  0.00  0.00    +0.000 A 
ATOM     17  C   UNL     1       0.756  11.294  20.481  0.00  0.00    +0.000 A 
ENDROOT
BRANCH   1  19
ATOM     18  O   UNL     1       0.590   3.038  19.850  0.00  0.00    +0.000 OA
ATOM     19  S   UNL     1       1.899   3.530  20.274  0.00  0.00    +0.000 S 
ATOM     20  O   UNL     1       2.404   3.245  21.581  0.00  0.00    +0.000 OA
BRANCH  19  21
ATOM     21  N   UNL     1       3.004   2.875  19.167  0.00  0.00    +0.000 NA
ATOM     22  H   UNL     1       2.799   3.302  18.269  0.00  0.00    +0.000 HD
BRANCH  21  23
ATOM     23  C   UNL     1       4.430   3.038  19.553  0.00  0.00    +0.000 C 
BRANCH  23  24
ATOM     24  C   UNL     1       5.176   3.835  18.488  0.00  0.00    +0.000 C 
BRANCH  24  25
ATOM     25  C   UNL     1       5.967   5.007  19.095  0.00  0.00    +0.000 C 
BRANCH  25  26
ATOM     26  N   UNL     1       7.396   5.007  18.733  0.00  0.00    +0.000 NA
ATOM     27  C   UNL     1       7.962   6.380  18.790  0.00  0.00    +0.000 C 
ATOM     28  C   UNL     1       7.453   7.311  17.669  0.00  0.00    +0.000 C 
ATOM     29  O   UNL     1       7.631   6.740  16.365  0.00  0.00    +0.000 OA
ATOM     30  C   UNL     1       7.064   5.427  16.277  0.00  0.00    +0.000 C 
ATOM     31  C   UNL     1       7.652   4.509  17.361  0.00  0.00    +0.000 C 
ENDBRANCH  25  26
ENDBRANCH  24  25
ENDBRANCH  23  24
ENDBRANCH  21  23
ENDBRANCH  19  21
ENDBRANCH   1  19
BRANCH  11  32
ATOM     32  O   UNL     1       2.412  12.168  17.311  0.00  0.00    +0.000 OA
ATOM     33  H   UNL     1       3.162  11.598  17.070  0.00  0.00    +0.000 HD
ENDBRANCH  11  32
TORSDOF 7
ENDMDL
MODEL 5
REMARK VINA RESULT:      -8.2      2.070      3.131
REMARK  Name = 
REMARK  7 active torsions:
REMARK  status: ('A' for Active; 'I' for Inactive)
REMARK    1  A    between atoms: S_2  and  N_4
REMARK    2  A    between atoms: S_2  and  C_14
REMARK    3  A    between atoms: N_4  and  C_5
REMARK    4  A    between atoms: C_5  and  C_6
REMARK    5  A    between atoms: C_6  and  C_7
REMARK    6  A    between atoms: C_7  and  N_8
REMARK    7  A    between atoms: C_24  and  O_25
REMARK                            x       y       z     vdW  Elec       q    Type
REMARK                         _______ _______ _______ _____ _____    ______ ____
ROOT
ATOM      1  C   UNL     1       3.235   5.169  19.263  0.00  0.00    +0.000 A 
ATOM      2  C   UNL     1       3.361   6.025  18.150  0.00  0.00    +0.000 A 
ATOM      3  C   UNL     1       2.778   7.290  18.147  0.00  0.00    +0.000 A 
ATOM      4  C   UNL     1       2.062   7.683  19.262  0.00  0.00    +0.000 A 
ATOM      5  C   UNL     1       1.935   6.841  20.390  0.00  0.00    +0.000 A 
ATOM      6  C   UNL     1       2.513   5.565  20.403  0.00  0.00    +0.000 A 
ATOM      7  C   UNL     1       1.107   7.567  21.455  0.00  0.00    +0.000 C 
ATOM      8  C   UNL     1       0.759   8.890  20.777  0.00  0.00    +0.000 A 
ATOM      9  C   UNL     1       1.345   8.911  19.505  0.00  0.00    +0.000 A 
ATOM     10  N   UNL     1       1.300   9.921  18.621  0.00  0.00    +0.000 NA
ATOM     11  C   UNL     1       0.660  11.001  19.086  0.00  0.00    +0.000 A 
ATOM     12  C   UNL     1       0.086  11.150  20.355  0.00  0.00    +0.000 A 
ATOM     13  C   UNL     1      -0.375  12.392  20.801  0.00  0.00    +0.000 A 
ATOM     14  C   UNL     1      -0.789  12.555  22.113  0.00  0.00    +0.000 A 
ATOM     15  C   UNL     1      -1.001  11.438  22.913  0.00  0.00    +0.000 A 
ATOM     16  C   UNL     1      -0.562  10.179  22.483  0.00  0.00    +0.000 A 
ATOM     17  C   UNL     1       0.080  10.029  21.231  0.00  0.00    +0.000 A 
ENDROOT
BRANCH   1  19
ATOM     18  O   UNL     1       3.507   3.042  17.747  0.00  0.00    +0.000 OA
ATOM     19  S   UNL     1       3.914   3.531  19.063  0.00  0.00    +0.000 S 
ATOM     20  O   UNL     1       3.629   2.780  20.247  0.00  0.00    +0.000 OA
BRANCH  19  21
ATOM     21  N   UNL     1       5.600   3.693  18.979  0.00  0.00    +0.000 NA
ATOM     22  H   UNL     1       5.888   3.250  18.111  0.00  0.00    +0.000 HD
BRANCH  21  23
ATOM     23  C   UNL     1       6.089   5.092  19.083  0.00  0.00    +0.000 C 
BRANCH  23  24
ATOM     24  C   UNL     1       7.379   5.260  18.286  0.00  0.00    +0.000 C 
BRANCH  24  25
ATOM     25  C   UNL     1       7.286   4.605  16.897  0.00  0.00    +0.000 C 
BRANCH  25  26
ATOM     26  N   UNL     1       7.061   5.567  15.803  0.00  0.00    +0.000 NA
ATOM     27  C   UNL     1       5.620   5.905  15.675  0.00  0.00    +0.000 C 
ATOM     28  C   UNL     1       4.755   4.748  15.130  0.00  0.00    +0.000 C 
ATOM     29  O   UNL     1       5.266   4.221  13.897  0.00  0.00    +0.000 OA
ATOM     30  C   UNL     1       6.648   3.859  14.006  0.00  0.00    +0.000 C 
ATOM     31  C   UNL     1       7.487   5.057  14.479  0.00  0.00    +0.000 C 
ENDBRANCH  25  26
ENDBRANCH  24  25
ENDBRANCH  23  24
ENDBRANCH  21  23
ENDBRANCH  19  21
ENDBRANCH   1  19
BRANCH  11  32
ATOM     32  O   UNL     1       0.675  12.042  18.206  0.00  0.00    +0.000 OA
ATOM     33  H   UNL     1       0.557  12.784  18.824  0.00  0.00    +0.000 HD
ENDBRANCH  11  32
TORSDOF 7
ENDMDL
MODEL 6
REMARK VINA RESULT:      -8.2      2.155      3.017
REMARK  Name = 
REMARK  7 active torsions:
REMARK  status: ('A' for Active; 'I' for Inactive)
REMARK    1  A    between atoms: S_2  and  N_4
REMARK    2  A    between atoms: S_2  and  C_14
REMARK    3  A    between atoms: N_4  and  C_5
REMARK    4  A    between atoms: C_5  and  C_6
REMARK    5  A    between atoms: C_6  and  C_7
REMARK    6  A    between atoms: C_7  and  N_8
REMARK    7  A    between atoms: C_24  and  O_25
REMARK                            x       y       z     vdW  Elec       q    Type
REMARK                         _______ _______ _______ _____ _____    ______ ____
ROOT
ATOM      1  C   UNL     1       1.959   5.561  20.323  0.00  0.00    +0.000 A 
ATOM      2  C   UNL     1       2.517   6.004  19.106  0.00  0.00    +0.000 A 
ATOM      3  C   UNL     1       2.445   7.342  18.728  0.00  0.00    +0.000 A 
ATOM      4  C   UNL     1       1.801   8.228  19.572  0.00  0.00    +0.000 A 
ATOM      5  C   UNL     1       1.246   7.802  20.799  0.00  0.00    +0.000 A 
ATOM      6  C   UNL     1       1.309   6.459  21.189  0.00  0.00    +0.000 A 
ATOM      7  C   UNL     1       0.627   9.013  21.504  0.00  0.00    +0.000 C 
ATOM      8  C   UNL     1       0.870  10.149  20.514  0.00  0.00    +0.000 A 
ATOM      9  C   UNL     1       1.563   9.641  19.409  0.00  0.00    +0.000 A 
ATOM     10  N   UNL     1       1.994  10.340  18.346  0.00  0.00    +0.000 NA
ATOM     11  C   UNL     1       1.747  11.652  18.441  0.00  0.00    +0.000 A 
ATOM     12  C   UNL     1       1.128  12.310  19.511  0.00  0.00    +0.000 A 
ATOM     13  C   UNL     1       1.108  13.705  19.591  0.00  0.00    +0.000 A 
ATOM     14  C   UNL     1       0.636  14.334  20.732  0.00  0.00    +0.000 A 
ATOM     15  C   UNL     1      -0.062  13.601  21.685  0.00  0.00    +0.000 A 
ATOM     16  C   UNL     1      -0.070  12.202  21.620  0.00  0.00    +0.000 A 
ATOM     17  C   UNL     1       0.610  11.525  20.579  0.00  0.00    +0.000 A 
ENDROOT
BRANCH   1  19
ATOM     18  O   UNL     1       0.857   3.213  19.917  0.00  0.00    +0.000 OA
ATOM     19  S   UNL     1       2.006   3.800  20.603  0.00  0.00    +0.000 S 
ATOM     20  O   UNL     1       2.224   3.574  21.999  0.00  0.00    +0.000 OA
BRANCH  19  21
ATOM     21  N   UNL     1       3.368   3.198  19.791  0.00  0.00    +0.000 NA
ATOM     22  H   UNL     1       3.928   2.717  20.489  0.00  0.00    +0.000 HD
BRANCH  21  23
ATOM     23  C   UNL     1       3.056   2.330  18.627  0.00  0.00    +0.000 C 
BRANCH  23  24
ATOM     24  C   UNL     1       3.102   3.142  17.337  0.00  0.00    +0.000 C 
BRANCH  24  25
ATOM     25  C   UNL     1       4.546   3.402  16.872  0.00  0.00    +0.000 C 
BRANCH  25  26
ATOM     26  N   UNL     1       4.897   4.832  16.802  0.00  0.00    +0.000 NA
ATOM     27  C   UNL     1       5.391   5.196  15.448  0.00  0.00    +0.000 C 
ATOM     28  C   UNL     1       6.781   4.614  15.115  0.00  0.00    +0.000 C 
ATOM     29  O   UNL     1       7.758   4.930  16.116  0.00  0.00    +0.000 OA
ATOM     30  C   UNL     1       7.316   4.559  17.428  0.00  0.00    +0.000 C 
ATOM     31  C   UNL     1       5.966   5.219  17.752  0.00  0.00    +0.000 C 
ENDBRANCH  25  26
ENDBRANCH  24  25
ENDBRANCH  23  24
ENDBRANCH  21  23
ENDBRANCH  19  21
ENDBRANCH   1  19
BRANCH  11  32
ATOM     32  O   UNL     1       2.244  12.359  17.387  0.00  0.00    +0.000 OA
ATOM     33  H   UNL     1       2.355  11.640  16.742  0.00  0.00    +0.000 HD
ENDBRANCH  11  32
TORSDOF 7
ENDMDL
MODEL 7
REMARK VINA RESULT:      -8.1      2.441      3.701
REMARK  Name = 
REMARK  7 active torsions:
REMARK  status: ('A' for Active; 'I' for Inactive)
REMARK    1  A    between atoms: S_2  and  N_4
REMARK    2  A    between atoms: S_2  and  C_14
REMARK    3  A    between atoms: N_4  and  C_5
REMARK    4  A    between atoms: C_5  and  C_6
REMARK    5  A    between atoms: C_6  and  C_7
REMARK    6  A    between atoms: C_7  and  N_8
REMARK    7  A    between atoms: C_24  and  O_25
REMARK                            x       y       z     vdW  Elec       q    Type
REMARK                         _______ _______ _______ _____ _____    ______ ____
ROOT
ATOM      1  C   UNL     1       2.142   7.194  19.805  0.00  0.00    +0.000 A 
ATOM      2  C   UNL     1       2.190   7.995  18.646  0.00  0.00    +0.000 A 
ATOM      3  C   UNL     1       1.539   9.226  18.597  0.00  0.00    +0.000 A 
ATOM      4  C   UNL     1       0.835   9.639  19.712  0.00  0.00    +0.000 A 
ATOM      5  C   UNL     1       0.785   8.853  20.884  0.00  0.00    +0.000 A 
ATOM      6  C   UNL     1       1.432   7.612  20.945  0.00  0.00    +0.000 A 
ATOM      7  C   UNL     1      -0.052   9.590  21.935  0.00  0.00    +0.000 C 
ATOM      8  C   UNL     1      -0.489  10.855  21.202  0.00  0.00    +0.000 A 
ATOM      9  C   UNL     1       0.059  10.839  19.913  0.00  0.00    +0.000 A 
ATOM     10  N   UNL     1      -0.065  11.797  18.980  0.00  0.00    +0.000 NA
ATOM     11  C   UNL     1      -0.751  12.865  19.408  0.00  0.00    +0.000 A 
ATOM     12  C   UNL     1      -1.296  13.051  20.685  0.00  0.00    +0.000 A 
ATOM     13  C   UNL     1      -1.811  14.288  21.080  0.00  0.00    +0.000 A 
ATOM     14  C   UNL     1      -2.197  14.498  22.394  0.00  0.00    +0.000 A 
ATOM     15  C   UNL     1      -2.325  13.415  23.257  0.00  0.00    +0.000 A 
ATOM     16  C   UNL     1      -1.830  12.161  22.879  0.00  0.00    +0.000 A 
ATOM     17  C   UNL     1      -1.217  11.978  21.617  0.00  0.00    +0.000 A 
ENDROOT
BRANCH   1  19
ATOM     18  O   UNL     1       2.187   4.682  20.566  0.00  0.00    +0.000 OA
ATOM     19  S   UNL     1       2.903   5.586  19.669  0.00  0.00    +0.000 S 
ATOM     20  O   UNL     1       4.320   5.752  19.769  0.00  0.00    +0.000 OA
BRANCH  19  21
ATOM     21  N   UNL     1       2.586   5.011  18.105  0.00  0.00    +0.000 NA
ATOM     22  H   UNL     1       3.306   5.402  17.505  0.00  0.00    +0.000 HD
BRANCH  21  23
ATOM     23  C   UNL     1       2.511   3.531  17.998  0.00  0.00    +0.000 C 
BRANCH  23  24
ATOM     24  C   UNL     1       3.605   3.013  17.070  0.00  0.00    +0.000 C 
BRANCH  24  25
ATOM     25  C   UNL     1       4.850   3.917  17.088  0.00  0.00    +0.000 C 
BRANCH  25  26
ATOM     26  N   UNL     1       4.791   5.025  16.117  0.00  0.00    +0.000 NA
ATOM     27  C   UNL     1       5.507   4.675  14.862  0.00  0.00    +0.000 C 
ATOM     28  C   UNL     1       7.041   4.603  15.019  0.00  0.00    +0.000 C 
ATOM     29  O   UNL     1       7.585   5.798  15.600  0.00  0.00    +0.000 OA
ATOM     30  C   UNL     1       6.930   6.137  16.828  0.00  0.00    +0.000 C 
ATOM     31  C   UNL     1       5.413   6.273  16.615  0.00  0.00    +0.000 C 
ENDBRANCH  25  26
ENDBRANCH  24  25
ENDBRANCH  23  24
ENDBRANCH  21  23
ENDBRANCH  19  21
ENDBRANCH   1  19
BRANCH  11  32
ATOM     32  O   UNL     1      -0.817  13.857  18.475  0.00  0.00    +0.000 OA
ATOM     33  H   UNL     1      -0.894  13.320  17.668  0.00  0.00    +0.000 HD
ENDBRANCH  11  32
TORSDOF 7
ENDMDL
MODEL 8
REMARK VINA RESULT:      -8.1      1.770      2.698
REMARK  Name = 
REMARK  7 active torsions:
REMARK  status: ('A' for Active; 'I' for Inactive)
REMARK    1  A    between atoms: S_2  and  N_4
REMARK    2  A    between atoms: S_2  and  C_14
REMARK    3  A    between atoms: N_4  and  C_5
REMARK    4  A    between atoms: C_5  and  C_6
REMARK    5  A    between atoms: C_6  and  C_7
REMARK    6  A    between atoms: C_7  and  N_8
REMARK    7  A    between atoms: C_24  and  O_25
REMARK                            x       y       z     vdW  Elec       q    Type
REMARK                         _______ _______ _______ _____ _____    ______ ____
ROOT
ATOM      1  C   UNL     1       2.200   6.296  19.287  0.00  0.00    +0.000 A 
ATOM      2  C   UNL     1       2.484   7.176  18.223  0.00  0.00    +0.000 A 
ATOM      3  C   UNL     1       2.097   8.513  18.274  0.00  0.00    +0.000 A 
ATOM      4  C   UNL     1       1.418   8.956  19.393  0.00  0.00    +0.000 A 
ATOM      5  C   UNL     1       1.135   8.089  20.473  0.00  0.00    +0.000 A 
ATOM      6  C   UNL     1       1.515   6.742  20.432  0.00  0.00    +0.000 A 
ATOM      7  C   UNL     1       0.396   8.881  21.557  0.00  0.00    +0.000 C 
ATOM      8  C   UNL     1       0.269  10.272  20.941  0.00  0.00    +0.000 A 
ATOM      9  C   UNL     1       0.886  10.265  19.684  0.00  0.00    +0.000 A 
ATOM     10  N   UNL     1       1.018  11.312  18.853  0.00  0.00    +0.000 NA
ATOM     11  C   UNL     1       0.533  12.452  19.359  0.00  0.00    +0.000 A 
ATOM     12  C   UNL     1      -0.046  12.625  20.623  0.00  0.00    +0.000 A 
ATOM     13  C   UNL     1      -0.328  13.900  21.122  0.00  0.00    +0.000 A 
ATOM     14  C   UNL     1      -0.749  14.060  22.432  0.00  0.00    +0.000 A 
ATOM     15  C   UNL     1      -1.148  12.951  23.170  0.00  0.00    +0.000 A 
ATOM     16  C   UNL     1      -0.891  11.663  22.685  0.00  0.00    +0.000 A 
ATOM     17  C   UNL     1      -0.245  11.477  21.439  0.00  0.00    +0.000 A 
ENDROOT
BRANCH   1  19
ATOM     18  O   UNL     1       1.388   3.821  18.961  0.00  0.00    +0.000 OA
ATOM     19  S   UNL     1       2.632   4.586  19.017  0.00  0.00    +0.000 S 
ATOM     20  O   UNL     1       3.670   4.236  19.936  0.00  0.00    +0.000 OA
BRANCH  19  21
ATOM     21  N   UNL     1       3.296   4.475  17.461  0.00  0.00    +0.000 NA
ATOM     22  H   UNL     1       3.697   5.385  17.255  0.00  0.00    +0.000 HD
BRANCH  21  23
ATOM     23  C   UNL     1       4.281   3.377  17.289  0.00  0.00    +0.000 C 
BRANCH  23  24
ATOM     24  C   UNL     1       5.346   3.777  16.273  0.00  0.00    +0.000 C 
BRANCH  24  25
ATOM     25  C   UNL     1       6.449   4.644  16.906  0.00  0.00    +0.000 C 
BRANCH  25  26
ATOM     26  N   UNL     1       5.941   5.641  17.865  0.00  0.00    +0.000 NA
ATOM     27  C   UNL     1       6.156   7.023  17.365  0.00  0.00    +0.000 C 
ATOM     28  C   UNL     1       7.637   7.460  17.360  0.00  0.00    +0.000 C 
ATOM     29  O   UNL     1       8.263   7.277  18.638  0.00  0.00    +0.000 OA
ATOM     30  C   UNL     1       8.094   5.940  19.126  0.00  0.00    +0.000 C 
ATOM     31  C   UNL     1       6.604   5.569  19.188  0.00  0.00    +0.000 C 
ENDBRANCH  25  26
ENDBRANCH  24  25
ENDBRANCH  23  24
ENDBRANCH  21  23
ENDBRANCH  19  21
ENDBRANCH   1  19
BRANCH  11  32
ATOM     32  O   UNL     1       0.729  13.520  18.534  0.00  0.00    +0.000 OA
ATOM     33  H   UNL     1       1.216  14.108  19.136  0.00  0.00    +0.000 HD
ENDBRANCH  11  32
TORSDOF 7
ENDMDL
MODEL 9
REMARK VINA RESULT:      -8.0      2.246      3.259
REMARK  Name = 
REMARK  7 active torsions:
REMARK  status: ('A' for Active; 'I' for Inactive)
REMARK    1  A    between atoms: S_2  and  N_4
REMARK    2  A    between atoms: S_2  and  C_14
REMARK    3  A    between atoms: N_4  and  C_5
REMARK    4  A    between atoms: C_5  and  C_6
REMARK    5  A    between atoms: C_6  and  C_7
REMARK    6  A    between atoms: C_7  and  N_8
REMARK    7  A    between atoms: C_24  and  O_25
REMARK                            x       y       z     vdW  Elec       q    Type
REMARK                         _______ _______ _______ _____ _____    ______ ____
ROOT
ATOM      1  C   UNL     1       1.912   5.780  20.317  0.00  0.00    +0.000 A 
ATOM      2  C   UNL     1       2.466   6.243  19.106  0.00  0.00    +0.000 A 
ATOM      3  C   UNL     1       2.376   7.584  18.741  0.00  0.00    +0.000 A 
ATOM      4  C   UNL     1       1.718   8.451  19.593  0.00  0.00    +0.000 A 
ATOM      5  C   UNL     1       1.166   8.005  20.815  0.00  0.00    +0.000 A 
ATOM      6  C   UNL     1       1.247   6.659  21.191  0.00  0.00    +0.000 A 
ATOM      7  C   UNL     1       0.529   9.200  21.531  0.00  0.00    +0.000 C 
ATOM      8  C   UNL     1       0.758  10.350  20.553  0.00  0.00    +0.000 A 
ATOM      9  C   UNL     1       1.461   9.863  19.444  0.00  0.00    +0.000 A 
ATOM     10  N   UNL     1       1.884  10.579  18.389  0.00  0.00    +0.000 NA
ATOM     11  C   UNL     1       1.618  11.886  18.498  0.00  0.00    +0.000 A 
ATOM     12  C   UNL     1       0.988  12.524  19.574  0.00  0.00    +0.000 A 
ATOM     13  C   UNL     1       0.948  13.918  19.668  0.00  0.00    +0.000 A 
ATOM     14  C   UNL     1       0.465  14.529  20.814  0.00  0.00    +0.000 A 
ATOM     15  C   UNL     1      -0.224  13.776  21.758  0.00  0.00    +0.000 A 
ATOM     16  C   UNL     1      -0.213  12.378  21.678  0.00  0.00    +0.000 A 
ATOM     17  C   UNL     1       0.478  11.721  20.632  0.00  0.00    +0.000 A 
ENDROOT
BRANCH   1  19
ATOM     18  O   UNL     1       0.815   3.426  19.930  0.00  0.00    +0.000 OA
ATOM     19  S   UNL     1       1.983   4.017  20.579  0.00  0.00    +0.000 S 
ATOM     20  O   UNL     1       2.253   3.780  21.964  0.00  0.00    +0.000 OA
BRANCH  19  21
ATOM     21  N   UNL     1       3.319   3.434  19.713  0.00  0.00    +0.000 NA
ATOM     22  H   UNL     1       4.087   3.373  20.376  0.00  0.00    +0.000 HD
BRANCH  21  23
ATOM     23  C   UNL     1       3.083   2.145  19.012  0.00  0.00    +0.000 C 
BRANCH  23  24
ATOM     24  C   UNL     1       3.607   2.220  17.581  0.00  0.00    +0.000 C 
BRANCH  24  25
ATOM     25  C   UNL     1       3.906   3.668  17.153  0.00  0.00    +0.000 C 
BRANCH  25  26
ATOM     26  N   UNL     1       5.341   4.006  17.170  0.00  0.00    +0.000 NA
ATOM     27  C   UNL     1       5.550   5.433  17.525  0.00  0.00    +0.000 C 
ATOM     28  C   UNL     1       5.107   6.420  16.424  0.00  0.00    +0.000 C 
ATOM     29  O   UNL     1       5.700   6.119  15.153  0.00  0.00    +0.000 OA
ATOM     30  C   UNL     1       5.484   4.753  14.775  0.00  0.00    +0.000 C 
ATOM     31  C   UNL     1       6.006   3.801  15.863  0.00  0.00    +0.000 C 
ENDBRANCH  25  26
ENDBRANCH  24  25
ENDBRANCH  23  24
ENDBRANCH  21  23
ENDBRANCH  19  21
ENDBRANCH   1  19
BRANCH  11  32
ATOM     32  O   UNL     1       2.108  12.611  17.452  0.00  0.00    +0.000 OA
ATOM     33  H   UNL     1       3.008  12.785  17.778  0.00  0.00    +0.000 HD
ENDBRANCH  11  32
TORSDOF 7
ENDMDL
