MODEL 1
REMARK VINA RESULT:      -7.8      0.000      0.000
REMARK  Name = 
REMARK  7 active torsions:
REMARK  status: ('A' for Active; 'I' for Inactive)
REMARK    1  A    between atoms: C_1  and  C_2
REMARK    2  A    between atoms: N_4  and  C_5
REMARK    3  A    between atoms: C_5  and  C_6
REMARK    4  A    between atoms: C_6  and  C_7
REMARK    5  A    between atoms: C_16  and  C_17
REMARK    6  A    between atoms: C_16  and  C_18
REMARK    7  A    between atoms: C_22  and  O_23
REMARK                            x       y       z     vdW  Elec       q    Type
REMARK                         _______ _______ _______ _____ _____    ______ ____
ROOT
ATOM      1  C   UNL     1       4.350   2.263  20.185  0.00  0.00    +0.000 C 
ATOM      2  C   UNL     1       3.265   3.141  19.543  0.00  0.00    +0.000 C 
ATOM      3  C   UNL     1       2.831   4.263  20.511  0.00  0.00    +0.000 C 
ATOM      4  N   UNL     1       1.822   5.198  19.981  0.00  0.00    +0.000 NA
ATOM      5  C   UNL     1       2.018   5.612  18.586  0.00  0.00    +0.000 C 
ATOM      6  C   UNL     1       2.460   4.519  17.627  0.00  0.00    +0.000 C 
ATOM      7  C   UNL     1       3.648   3.656  18.115  0.00  0.00    +0.000 C 
ATOM      8  C   UNL     1       3.648   2.428  17.151  0.00  0.00    +0.000 C 
ENDROOT
BRANCH   7   9
ATOM      9  C   UNL     1       4.997   4.431  18.055  0.00  0.00    +0.000 A 
ATOM     10  C   UNL     1       5.614   4.971  19.204  0.00  0.00    +0.000 A 
ATOM     11  C   UNL     1       6.838   5.649  19.162  0.00  0.00    +0.000 A 
ATOM     12  C   UNL     1       7.500   5.814  17.958  0.00  0.00    +0.000 A 
ATOM     13  C   UNL     1       6.920   5.300  16.809  0.00  0.00    +0.000 A 
ATOM     14  C   UNL     1       5.695   4.625  16.849  0.00  0.00    +0.000 A 
BRANCH  13  15
ATOM     15  O   UNL     1       7.531   5.432  15.595  0.00  0.00    +0.000 OA
ATOM     16  H   UNL     1       7.808   6.357  15.492  0.00  0.00    +0.000 HD
ENDBRANCH  13  15
ENDBRANCH   7   9
BRANCH   4  17
ATOM     17  C   UNL     1       1.725   6.387  20.869  0.00  0.00    +0.000 C 
BRANCH  17  18
ATOM     18  C   UNL     1       1.842   7.734  20.130  0.00  0.00    +0.000 C 
BRANCH  18  19
ATOM     19  C   UNL     1       1.017   8.833  20.757  0.00  0.00    +0.000 A 
ATOM     20  C   UNL     1       0.802   8.805  22.144  0.00  0.00    +0.000 A 
ATOM     21  C   UNL     1       0.011   9.772  22.763  0.00  0.00    +0.000 A 
ATOM     22  C   UNL     1      -0.576  10.785  22.008  0.00  0.00    +0.000 A 
ATOM     23  C   UNL     1      -0.362  10.836  20.630  0.00  0.00    +0.000 A 
ATOM     24  C   UNL     1       0.434   9.871  20.008  0.00  0.00    +0.000 A 
ATOM     25 CL   UNL     1       0.654  10.004  18.297  0.00  0.00    +0.000 Cl
ENDBRANCH  18  19
ENDBRANCH  17  18
ENDBRANCH   4  17
TORSDOF 5
ENDMDL
MODEL 2
REMARK VINA RESULT:      -7.8      1.533      2.131
REMARK  Name = 
REMARK  7 active torsions:
REMARK  status: ('A' for Active; 'I' for Inactive)
REMARK    1  A    between atoms: C_1  and  C_2
REMARK    2  A    between atoms: N_4  and  C_5
REMARK    3  A    between atoms: C_5  and  C_6
REMARK    4  A    between atoms: C_6  and  C_7
REMARK    5  A    between atoms: C_16  and  C_17
REMARK    6  A    between atoms: C_16  and  C_18
REMARK    7  A    between atoms: C_22  and  O_23
REMARK                            x       y       z     vdW  Elec       q    Type
REMARK                         _______ _______ _______ _____ _____    ______ ____
ROOT
ATOM      1  C   UNL     1       3.914   2.571  20.423  0.00  0.00    +0.000 C 
ATOM      2  C   UNL     1       2.919   3.472  19.674  0.00  0.00    +0.000 C 
ATOM      3  C   UNL     1       2.887   4.884  20.301  0.00  0.00    +0.000 C 
ATOM      4  N   UNL     1       1.996   5.849  19.633  0.00  0.00    +0.000 NA
ATOM      5  C   UNL     1       2.016   5.814  18.165  0.00  0.00    +0.000 C 
ATOM      6  C   UNL     1       2.063   4.430  17.537  0.00  0.00    +0.000 C 
ATOM      7  C   UNL     1       3.133   3.478  18.124  0.00  0.00    +0.000 C 
ATOM      8  C   UNL     1       2.727   2.071  17.583  0.00  0.00    +0.000 C 
ENDROOT
BRANCH   7   9
ATOM      9  C   UNL     1       4.572   3.869  17.678  0.00  0.00    +0.000 A 
ATOM     10  C   UNL     1       5.004   3.776  16.338  0.00  0.00    +0.000 A 
ATOM     11  C   UNL     1       6.289   4.147  15.925  0.00  0.00    +0.000 A 
ATOM     12  C   UNL     1       7.202   4.632  16.847  0.00  0.00    +0.000 A 
ATOM     13  C   UNL     1       6.813   4.732  18.173  0.00  0.00    +0.000 A 
ATOM     14  C   UNL     1       5.529   4.358  18.587  0.00  0.00    +0.000 A 
BRANCH  13  15
ATOM     15  O   UNL     1       7.672   5.205  19.123  0.00  0.00    +0.000 OA
ATOM     16  H   UNL     1       8.355   4.533  19.279  0.00  0.00    +0.000 HD
ENDBRANCH  13  15
ENDBRANCH   7   9
BRANCH   4  17
ATOM     17  C   UNL     1       2.287   7.222  20.125  0.00  0.00    +0.000 C 
BRANCH  17  18
ATOM     18  C   UNL     1       1.235   7.774  21.107  0.00  0.00    +0.000 C 
BRANCH  18  19
ATOM     19  C   UNL     1       0.716   9.139  20.723  0.00  0.00    +0.000 A 
ATOM     20  C   UNL     1       0.867   9.567  19.394  0.00  0.00    +0.000 A 
ATOM     21  C   UNL     1       0.445  10.836  19.001  0.00  0.00    +0.000 A 
ATOM     22  C   UNL     1      -0.138  11.698  19.927  0.00  0.00    +0.000 A 
ATOM     23  C   UNL     1      -0.309  11.284  21.248  0.00  0.00    +0.000 A 
ATOM     24  C   UNL     1       0.109  10.011  21.645  0.00  0.00    +0.000 A 
ATOM     25 CL   UNL     1      -0.139   9.571  23.299  0.00  0.00    +0.000 Cl
ENDBRANCH  18  19
ENDBRANCH  17  18
ENDBRANCH   4  17
TORSDOF 5
ENDMDL
MODEL 3
REMARK VINA RESULT:      -7.7      1.039      1.378
REMARK  Name = 
REMARK  7 active torsions:
REMARK  status: ('A' for Active; 'I' for Inactive)
REMARK    1  A    between atoms: C_1  and  C_2
REMARK    2  A    between atoms: N_4  and  C_5
REMARK    3  A    between atoms: C_5  and  C_6
REMARK    4  A    between atoms: C_6  and  C_7
REMARK    5  A    between atoms: C_16  and  C_17
REMARK    6  A    between atoms: C_16  and  C_18
REMARK    7  A    between atoms: C_22  and  O_23
REMARK                            x       y       z     vdW  Elec       q    Type
REMARK                         _______ _______ _______ _____ _____    ______ ____
ROOT
ATOM      1  C   UNL     1       4.506   2.373  20.178  0.00  0.00    +0.000 C 
ATOM      2  C   UNL     1       3.351   3.156  19.535  0.00  0.00    +0.000 C 
ATOM      3  C   UNL     1       2.811   4.226  20.509  0.00  0.00    +0.000 C 
ATOM      4  N   UNL     1       1.726   5.071  19.979  0.00  0.00    +0.000 NA
ATOM      5  C   UNL     1       1.894   5.514  18.589  0.00  0.00    +0.000 C 
ATOM      6  C   UNL     1       2.439   4.473  17.624  0.00  0.00    +0.000 C 
ATOM      7  C   UNL     1       3.696   3.716  18.114  0.00  0.00    +0.000 C 
ATOM      8  C   UNL     1       3.813   2.502  17.140  0.00  0.00    +0.000 C 
ENDROOT
BRANCH   7   9
ATOM      9  C   UNL     1       4.971   4.609  18.071  0.00  0.00    +0.000 A 
ATOM     10  C   UNL     1       5.309   5.396  16.951  0.00  0.00    +0.000 A 
ATOM     11  C   UNL     1       6.440   6.220  16.912  0.00  0.00    +0.000 A 
ATOM     12  C   UNL     1       7.287   6.288  18.006  0.00  0.00    +0.000 A 
ATOM     13  C   UNL     1       6.987   5.524  19.122  0.00  0.00    +0.000 A 
ATOM     14  C   UNL     1       5.858   4.699  19.160  0.00  0.00    +0.000 A 
BRANCH  13  15
ATOM     15  O   UNL     1       7.786   5.555  20.229  0.00  0.00    +0.000 OA
ATOM     16  H   UNL     1       7.230   5.744  21.001  0.00  0.00    +0.000 HD
ENDBRANCH  13  15
ENDBRANCH   7   9
BRANCH   4  17
ATOM     17  C   UNL     1       1.516   6.238  20.876  0.00  0.00    +0.000 C 
BRANCH  17  18
ATOM     18  C   UNL     1       2.019   7.575  20.295  0.00  0.00    +0.000 C 
BRANCH  18  19
ATOM     19  C   UNL     1       1.135   8.749  20.645  0.00  0.00    +0.000 A 
ATOM     20  C   UNL     1       0.767   8.937  21.987  0.00  0.00    +0.000 A 
ATOM     21  C   UNL     1      -0.084   9.980  22.352  0.00  0.00    +0.000 A 
ATOM     22  C   UNL     1      -0.578  10.853  21.386  0.00  0.00    +0.000 A 
ATOM     23  C   UNL     1      -0.211  10.688  20.050  0.00  0.00    +0.000 A 
ATOM     24  C   UNL     1       0.645   9.647  19.680  0.00  0.00    +0.000 A 
ATOM     25 CL   UNL     1       1.055   9.511  18.006  0.00  0.00    +0.000 Cl
ENDBRANCH  18  19
ENDBRANCH  17  18
ENDBRANCH   4  17
TORSDOF 5
ENDMDL
MODEL 4
REMARK VINA RESULT:      -7.7      3.964      8.314
REMARK  Name = 
REMARK  7 active torsions:
REMARK  status: ('A' for Active; 'I' for Inactive)
REMARK    1  A    between atoms: C_1  and  C_2
REMARK    2  A    between atoms: N_4  and  C_5
REMARK    3  A    between atoms: C_5  and  C_6
REMARK    4  A    between atoms: C_6  and  C_7
REMARK    5  A    between atoms: C_16  and  C_17
REMARK    6  A    between atoms: C_16  and  C_18
REMARK    7  A    between atoms: C_22  and  O_23
REMARK                            x       y       z     vdW  Elec       q    Type
REMARK                         _______ _______ _______ _____ _____    ______ ____
ROOT
ATOM      1  C   UNL     1      -0.356  10.337  21.666  0.00  0.00    +0.000 C 
ATOM      2  C   UNL     1       0.740  10.336  20.590  0.00  0.00    +0.000 C 
ATOM      3  C   UNL     1       1.065   8.892  20.147  0.00  0.00    +0.000 C 
ATOM      4  N   UNL     1       2.076   8.772  19.081  0.00  0.00    +0.000 NA
ATOM      5  C   UNL     1       1.964   9.753  17.994  0.00  0.00    +0.000 C 
ATOM      6  C   UNL     1       1.630  11.175  18.416  0.00  0.00    +0.000 C 
ATOM      7  C   UNL     1       0.441  11.306  19.399  0.00  0.00    +0.000 C 
ATOM      8  C   UNL     1       0.553  12.767  19.937  0.00  0.00    +0.000 C 
ENDROOT
BRANCH   7   9
ATOM      9  C   UNL     1      -0.926  11.057  18.699  0.00  0.00    +0.000 A 
ATOM     10  C   UNL     1      -1.117  10.033  17.747  0.00  0.00    +0.000 A 
ATOM     11  C   UNL     1      -2.349   9.787  17.130  0.00  0.00    +0.000 A 
ATOM     12  C   UNL     1      -3.450  10.565  17.444  0.00  0.00    +0.000 A 
ATOM     13  C   UNL     1      -3.298  11.583  18.371  0.00  0.00    +0.000 A 
ATOM     14  C   UNL     1      -2.066  11.831  18.987  0.00  0.00    +0.000 A 
BRANCH  13  15
ATOM     15  O   UNL     1      -4.351  12.378  18.720  0.00  0.00    +0.000 OA
ATOM     16  H   UNL     1      -4.014  13.111  19.260  0.00  0.00    +0.000 HD
ENDBRANCH  13  15
ENDBRANCH   7   9
BRANCH   4  17
ATOM     17  C   UNL     1       2.068   7.389  18.536  0.00  0.00    +0.000 C 
BRANCH  17  18
ATOM     18  C   UNL     1       2.702   6.341  19.473  0.00  0.00    +0.000 C 
BRANCH  18  19
ATOM     19  C   UNL     1       2.212   4.936  19.216  0.00  0.00    +0.000 A 
ATOM     20  C   UNL     1       1.241   4.395  20.073  0.00  0.00    +0.000 A 
ATOM     21  C   UNL     1       0.790   3.086  19.904  0.00  0.00    +0.000 A 
ATOM     22  C   UNL     1       1.299   2.298  18.875  0.00  0.00    +0.000 A 
ATOM     23  C   UNL     1       2.255   2.823  18.006  0.00  0.00    +0.000 A 
ATOM     24  C   UNL     1       2.706   4.135  18.169  0.00  0.00    +0.000 A 
ATOM     25 CL   UNL     1       3.890   4.716  17.050  0.00  0.00    +0.000 Cl
ENDBRANCH  18  19
ENDBRANCH  17  18
ENDBRANCH   4  17
TORSDOF 5
ENDMDL
MODEL 5
REMARK VINA RESULT:      -7.7      1.579      1.927
REMARK  Name = 
REMARK  7 active torsions:
REMARK  status: ('A' for Active; 'I' for Inactive)
REMARK    1  A    between atoms: C_1  and  C_2
REMARK    2  A    between atoms: N_4  and  C_5
REMARK    3  A    between atoms: C_5  and  C_6
REMARK    4  A    between atoms: C_6  and  C_7
REMARK    5  A    between atoms: C_16  and  C_17
REMARK    6  A    between atoms: C_16  and  C_18
REMARK    7  A    between atoms: C_22  and  O_23
REMARK                            x       y       z     vdW  Elec       q    Type
REMARK                         _______ _______ _______ _____ _____    ______ ____
ROOT
ATOM      1  C   UNL     1       4.257   3.373  19.679  0.00  0.00    +0.000 C 
ATOM      2  C   UNL     1       3.458   4.470  18.958  0.00  0.00    +0.000 C 
ATOM      3  C   UNL     1       2.928   5.510  19.970  0.00  0.00    +0.000 C 
ATOM      4  N   UNL     1       2.182   6.637  19.383  0.00  0.00    +0.000 NA
ATOM      5  C   UNL     1       2.750   7.194  18.148  0.00  0.00    +0.000 C 
ATOM      6  C   UNL     1       3.289   6.181  17.151  0.00  0.00    +0.000 C 
ATOM      7  C   UNL     1       4.225   5.104  17.749  0.00  0.00    +0.000 C 
ATOM      8  C   UNL     1       4.324   4.021  16.629  0.00  0.00    +0.000 C 
ENDROOT
BRANCH   7   9
ATOM      9  C   UNL     1       5.625   5.681  18.112  0.00  0.00    +0.000 A 
ATOM     10  C   UNL     1       6.254   6.684  17.345  0.00  0.00    +0.000 A 
ATOM     11  C   UNL     1       7.502   7.226  17.677  0.00  0.00    +0.000 A 
ATOM     12  C   UNL     1       8.175   6.780  18.802  0.00  0.00    +0.000 A 
ATOM     13  C   UNL     1       7.588   5.791  19.575  0.00  0.00    +0.000 A 
ATOM     14  C   UNL     1       6.342   5.248  19.242  0.00  0.00    +0.000 A 
BRANCH  13  15
ATOM     15  O   UNL     1       8.207   5.316  20.695  0.00  0.00    +0.000 OA
ATOM     16  H   UNL     1       8.293   6.047  21.329  0.00  0.00    +0.000 HD
ENDBRANCH  13  15
ENDBRANCH   7   9
BRANCH   4  17
ATOM     17  C   UNL     1       2.003   7.705  20.402  0.00  0.00    +0.000 C 
BRANCH  17  18
ATOM     18  C   UNL     1       0.637   7.670  21.115  0.00  0.00    +0.000 C 
BRANCH  18  19
ATOM     19  C   UNL     1       0.105   9.043  21.453  0.00  0.00    +0.000 A 
ATOM     20  C   UNL     1      -0.203   9.334  22.792  0.00  0.00    +0.000 A 
ATOM     21  C   UNL     1      -0.739  10.572  23.147  0.00  0.00    +0.000 A 
ATOM     22  C   UNL     1      -0.973  11.539  22.173  0.00  0.00    +0.000 A 
ATOM     23  C   UNL     1      -0.660  11.272  20.840  0.00  0.00    +0.000 A 
ATOM     24  C   UNL     1      -0.120  10.035  20.481  0.00  0.00    +0.000 A 
ATOM     25 CL   UNL     1       0.243   9.780  18.809  0.00  0.00    +0.000 Cl
ENDBRANCH  18  19
ENDBRANCH  17  18
ENDBRANCH   4  17
TORSDOF 5
ENDMDL
MODEL 6
REMARK VINA RESULT:      -7.7      3.889      7.939
REMARK  Name = 
REMARK  7 active torsions:
REMARK  status: ('A' for Active; 'I' for Inactive)
REMARK    1  A    between atoms: C_1  and  C_2
REMARK    2  A    between atoms: N_4  and  C_5
REMARK    3  A    between atoms: C_5  and  C_6
REMARK    4  A    between atoms: C_6  and  C_7
REMARK    5  A    between atoms: C_16  and  C_17
REMARK    6  A    between atoms: C_16  and  C_18
REMARK    7  A    between atoms: C_22  and  O_23
REMARK                            x       y       z     vdW  Elec       q    Type
REMARK                         _______ _______ _______ _____ _____    ______ ____
ROOT
ATOM      1  C   UNL     1       1.487   4.243  17.690  0.00  0.00    +0.000 C 
ATOM      2  C   UNL     1       2.957   4.398  18.108  0.00  0.00    +0.000 C 
ATOM      3  C   UNL     1       3.816   4.865  16.912  0.00  0.00    +0.000 C 
ATOM      4  N   UNL     1       5.242   5.090  17.209  0.00  0.00    +0.000 NA
ATOM      5  C   UNL     1       5.521   5.764  18.484  0.00  0.00    +0.000 C 
ATOM      6  C   UNL     1       4.671   5.323  19.665  0.00  0.00    +0.000 C 
ATOM      7  C   UNL     1       3.149   5.267  19.396  0.00  0.00    +0.000 C 
ATOM      8  C   UNL     1       2.578   4.459  20.604  0.00  0.00    +0.000 C 
ENDROOT
BRANCH   7   9
ATOM      9  C   UNL     1       2.517   6.687  19.308  0.00  0.00    +0.000 A 
ATOM     10  C   UNL     1       2.554   7.463  18.130  0.00  0.00    +0.000 A 
ATOM     11  C   UNL     1       1.968   8.731  18.035  0.00  0.00    +0.000 A 
ATOM     12  C   UNL     1       1.316   9.278  19.127  0.00  0.00    +0.000 A 
ATOM     13  C   UNL     1       1.266   8.546  20.302  0.00  0.00    +0.000 A 
ATOM     14  C   UNL     1       1.853   7.279  20.398  0.00  0.00    +0.000 A 
BRANCH  13  15
ATOM     15  O   UNL     1       0.634   9.036  21.408  0.00  0.00    +0.000 OA
ATOM     16  H   UNL     1       0.424   9.971  21.250  0.00  0.00    +0.000 HD
ENDBRANCH  13  15
ENDBRANCH   7   9
BRANCH   4  17
ATOM     17  C   UNL     1       5.879   5.822  16.083  0.00  0.00    +0.000 C 
BRANCH  17  18
ATOM     18  C   UNL     1       7.067   5.078  15.441  0.00  0.00    +0.000 C 
BRANCH  18  19
ATOM     19  C   UNL     1       6.766   4.555  14.057  0.00  0.00    +0.000 A 
ATOM     20  C   UNL     1       5.668   3.698  13.885  0.00  0.00    +0.000 A 
ATOM     21  C   UNL     1       5.377   3.153  12.635  0.00  0.00    +0.000 A 
ATOM     22  C   UNL     1       6.175   3.458  11.535  0.00  0.00    +0.000 A 
ATOM     23  C   UNL     1       7.262   4.319  11.684  0.00  0.00    +0.000 A 
ATOM     24  C   UNL     1       7.555   4.870  12.935  0.00  0.00    +0.000 A 
ATOM     25 CL   UNL     1       8.918   5.930  13.039  0.00  0.00    +0.000 Cl
ENDBRANCH  18  19
ENDBRANCH  17  18
ENDBRANCH   4  17
TORSDOF 5
ENDMDL
MODEL 7
REMARK VINA RESULT:      -7.7      1.266      1.853
REMARK  Name = 
REMARK  7 active torsions:
REMARK  status: ('A' for Active; 'I' for Inactive)
REMARK    1  A    between atoms: C_1  and  C_2
REMARK    2  A    between atoms: N_4  and  C_5
REMARK    3  A    between atoms: C_5  and  C_6
REMARK    4  A    between atoms: C_6  and  C_7
REMARK    5  A    between atoms: C_16  and  C_17
REMARK    6  A    between atoms: C_16  and  C_18
REMARK    7  A    between atoms: C_22  and  O_23
REMARK                            x       y       z     vdW  Elec       q    Type
REMARK                         _______ _______ _______ _____ _____    ______ ____
ROOT
ATOM      1  C   UNL     1       4.473   2.014  20.394  0.00  0.00    +0.000 C 
ATOM      2  C   UNL     1       3.320   2.686  19.632  0.00  0.00    +0.000 C 
ATOM      3  C   UNL     1       2.719   3.841  20.464  0.00  0.00    +0.000 C 
ATOM      4  N   UNL     1       1.631   4.589  19.810  0.00  0.00    +0.000 NA
ATOM      5  C   UNL     1       1.834   4.881  18.385  0.00  0.00    +0.000 C 
ATOM      6  C   UNL     1       2.438   3.757  17.559  0.00  0.00    +0.000 C 
ATOM      7  C   UNL     1       3.698   3.096  18.169  0.00  0.00    +0.000 C 
ATOM      8  C   UNL     1       3.880   1.786  17.341  0.00  0.00    +0.000 C 
ENDROOT
BRANCH   7   9
ATOM      9  C   UNL     1       4.949   4.017  18.067  0.00  0.00    +0.000 A 
ATOM     10  C   UNL     1       5.389   4.823  19.138  0.00  0.00    +0.000 A 
ATOM     11  C   UNL     1       6.526   5.636  19.062  0.00  0.00    +0.000 A 
ATOM     12  C   UNL     1       7.275   5.674  17.898  0.00  0.00    +0.000 A 
ATOM     13  C   UNL     1       6.869   4.899  16.824  0.00  0.00    +0.000 A 
ATOM     14  C   UNL     1       5.731   4.088  16.899  0.00  0.00    +0.000 A 
BRANCH  13  15
ATOM     15  O   UNL     1       7.572   4.898  15.654  0.00  0.00    +0.000 OA
ATOM     16  H   UNL     1       7.096   4.345  15.013  0.00  0.00    +0.000 HD
ENDBRANCH  13  15
ENDBRANCH   7   9
BRANCH   4  17
ATOM     17  C   UNL     1       1.360   5.842  20.565  0.00  0.00    +0.000 C 
BRANCH  17  18
ATOM     18  C   UNL     1       2.394   6.958  20.320  0.00  0.00    +0.000 C 
BRANCH  18  19
ATOM     19  C   UNL     1       1.789   8.219  19.751  0.00  0.00    +0.000 A 
ATOM     20  C   UNL     1       2.003   8.516  18.395  0.00  0.00    +0.000 A 
ATOM     21  C   UNL     1       1.503   9.690  17.835  0.00  0.00    +0.000 A 
ATOM     22  C   UNL     1       0.779  10.586  18.617  0.00  0.00    +0.000 A 
ATOM     23  C   UNL     1       0.545  10.301  19.962  0.00  0.00    +0.000 A 
ATOM     24  C   UNL     1       1.041   9.123  20.526  0.00  0.00    +0.000 A 
ATOM     25 CL   UNL     1       0.707   8.840  22.200  0.00  0.00    +0.000 Cl
ENDBRANCH  18  19
ENDBRANCH  17  18
ENDBRANCH   4  17
TORSDOF 5
ENDMDL
MODEL 8
REMARK VINA RESULT:      -7.7      1.595      2.210
REMARK  Name = 
REMARK  7 active torsions:
REMARK  status: ('A' for Active; 'I' for Inactive)
REMARK    1  A    between atoms: C_1  and  C_2
REMARK    2  A    between atoms: N_4  and  C_5
REMARK    3  A    between atoms: C_5  and  C_6
REMARK    4  A    between atoms: C_6  and  C_7
REMARK    5  A    between atoms: C_16  and  C_17
REMARK    6  A    between atoms: C_16  and  C_18
REMARK    7  A    between atoms: C_22  and  O_23
REMARK                            x       y       z     vdW  Elec       q    Type
REMARK                         _______ _______ _______ _____ _____    ______ ____
ROOT
ATOM      1  C   UNL     1       4.646   2.120  20.536  0.00  0.00    +0.000 C 
ATOM      2  C   UNL     1       3.345   2.582  19.863  0.00  0.00    +0.000 C 
ATOM      3  C   UNL     1       2.751   3.800  20.606  0.00  0.00    +0.000 C 
ATOM      4  N   UNL     1       1.519   4.357  20.019  0.00  0.00    +0.000 NA
ATOM      5  C   UNL     1       1.506   4.447  18.553  0.00  0.00    +0.000 C 
ATOM      6  C   UNL     1       2.101   3.261  17.811  0.00  0.00    +0.000 C 
ATOM      7  C   UNL     1       3.487   2.797  18.319  0.00  0.00    +0.000 C 
ATOM      8  C   UNL     1       3.682   1.395  17.661  0.00  0.00    +0.000 C 
ENDROOT
BRANCH   7   9
ATOM      9  C   UNL     1       4.620   3.783  17.912  0.00  0.00    +0.000 A 
ATOM     10  C   UNL     1       4.846   4.170  16.574  0.00  0.00    +0.000 A 
ATOM     11  C   UNL     1       5.848   5.075  16.202  0.00  0.00    +0.000 A 
ATOM     12  C   UNL     1       6.672   5.633  17.165  0.00  0.00    +0.000 A 
ATOM     13  C   UNL     1       6.481   5.270  18.489  0.00  0.00    +0.000 A 
ATOM     14  C   UNL     1       5.482   4.365  18.861  0.00  0.00    +0.000 A 
BRANCH  13  15
ATOM     15  O   UNL     1       7.264   5.792  19.479  0.00  0.00    +0.000 OA
ATOM     16  H   UNL     1       8.160   5.917  19.126  0.00  0.00    +0.000 HD
ENDBRANCH  13  15
ENDBRANCH   7   9
BRANCH   4  17
ATOM     17  C   UNL     1       1.232   5.684  20.625  0.00  0.00    +0.000 C 
BRANCH  17  18
ATOM     18  C   UNL     1       2.355   6.722  20.428  0.00  0.00    +0.000 C 
BRANCH  18  19
ATOM     19  C   UNL     1       1.885   7.991  19.757  0.00  0.00    +0.000 A 
ATOM     20  C   UNL     1       0.989   8.824  20.446  0.00  0.00    +0.000 A 
ATOM     21  C   UNL     1       0.493   9.983  19.852  0.00  0.00    +0.000 A 
ATOM     22  C   UNL     1       0.884  10.331  18.561  0.00  0.00    +0.000 A 
ATOM     23  C   UNL     1       1.784   9.522  17.867  0.00  0.00    +0.000 A 
ATOM     24  C   UNL     1       2.287   8.362  18.461  0.00  0.00    +0.000 A 
ATOM     25 CL   UNL     1       3.400   7.413  17.538  0.00  0.00    +0.000 Cl
ENDBRANCH  18  19
ENDBRANCH  17  18
ENDBRANCH   4  17
TORSDOF 5
ENDMDL
MODEL 9
REMARK VINA RESULT:      -7.6      3.813      8.340
REMARK  Name = 
REMARK  7 active torsions:
REMARK  status: ('A' for Active; 'I' for Inactive)
REMARK    1  A    between atoms: C_1  and  C_2
REMARK    2  A    between atoms: N_4  and  C_5
REMARK    3  A    between atoms: C_5  and  C_6
REMARK    4  A    between atoms: C_6  and  C_7
REMARK    5  A    between atoms: C_16  and  C_17
REMARK    6  A    between atoms: C_16  and  C_18
REMARK    7  A    between atoms: C_22  and  O_23
REMARK                            x       y       z     vdW  Elec       q    Type
REMARK                         _______ _______ _______ _____ _____    ______ ____
ROOT
ATOM      1  C   UNL     1      -0.356   9.779  21.559  0.00  0.00    +0.000 C 
ATOM      2  C   UNL     1       0.749  10.017  20.518  0.00  0.00    +0.000 C 
ATOM      3  C   UNL     1       1.146   8.690  19.834  0.00  0.00    +0.000 C 
ATOM      4  N   UNL     1       2.171   8.806  18.782  0.00  0.00    +0.000 NA
ATOM      5  C   UNL     1       2.023   9.957  17.882  0.00  0.00    +0.000 C 
ATOM      6  C   UNL     1       1.618  11.265  18.542  0.00  0.00    +0.000 C 
ATOM      7  C   UNL     1       0.416  11.168  19.511  0.00  0.00    +0.000 C 
ATOM      8  C   UNL     1       0.453  12.515  20.300  0.00  0.00    +0.000 C 
ENDROOT
BRANCH   7   9
ATOM      9  C   UNL     1      -0.932  10.985  18.755  0.00  0.00    +0.000 A 
ATOM     10  C   UNL     1      -1.114  10.008  17.753  0.00  0.00    +0.000 A 
ATOM     11  C   UNL     1      -2.330   9.821  17.084  0.00  0.00    +0.000 A 
ATOM     12  C   UNL     1      -3.422  10.614  17.394  0.00  0.00    +0.000 A 
ATOM     13  C   UNL     1      -3.277  11.587  18.369  0.00  0.00    +0.000 A 
ATOM     14  C   UNL     1      -2.062  11.776  19.037  0.00  0.00    +0.000 A 
BRANCH  13  15
ATOM     15  O   UNL     1      -4.322  12.394  18.716  0.00  0.00    +0.000 OA
ATOM     16  H   UNL     1      -4.895  12.502  17.940  0.00  0.00    +0.000 HD
ENDBRANCH  13  15
ENDBRANCH   7   9
BRANCH   4  17
ATOM     17  C   UNL     1       2.234   7.541  18.002  0.00  0.00    +0.000 C 
BRANCH  17  18
ATOM     18  C   UNL     1       3.242   6.513  18.553  0.00  0.00    +0.000 C 
BRANCH  18  19
ATOM     19  C   UNL     1       2.734   5.092  18.502  0.00  0.00    +0.000 A 
ATOM     20  C   UNL     1       3.071   4.296  17.395  0.00  0.00    +0.000 A 
ATOM     21  C   UNL     1       2.590   2.992  17.281  0.00  0.00    +0.000 A 
ATOM     22  C   UNL     1       1.766   2.461  18.270  0.00  0.00    +0.000 A 
ATOM     23  C   UNL     1       1.431   3.232  19.383  0.00  0.00    +0.000 A 
ATOM     24  C   UNL     1       1.915   4.538  19.503  0.00  0.00    +0.000 A 
ATOM     25 CL   UNL     1       1.458   5.430  20.912  0.00  0.00    +0.000 Cl
ENDBRANCH  18  19
ENDBRANCH  17  18
ENDBRANCH   4  17
TORSDOF 5
ENDMDL
