MODEL 1
REMARK VINA RESULT:      -6.8      0.000      0.000
REMARK  Name = 
REMARK  16 active torsions:
REMARK  status: ('A' for Active; 'I' for Inactive)
REMARK    1  A    between atoms: C_1  and  O_2
REMARK    2  A    between atoms: O_2  and  C_3
REMARK    3  A    between atoms: C_6  and  C_7
REMARK    4  A    between atoms: C_7  and  N_8
REMARK    5  A    between atoms: C_9  and  C_11
REMARK    6  A    between atoms: C_11  and  N_12
REMARK    7  A    between atoms: C_11  and  C_29
REMARK    8  A    between atoms: C_13  and  C_15
REMARK    9  A    between atoms: C_19  and  C_21
REMARK   10  A    between atoms: C_21  and  N_22
REMARK   11  A    between atoms: C_21  and  C_23
REMARK   12  A    between atoms: C_23  and  C_24
REMARK   13  A    between atoms: C_24  and  C_25
REMARK   14  A    between atoms: C_24  and  C_26
REMARK   15  A    between atoms: C_29  and  C_30
REMARK   16  A    between atoms: C_29  and  C_31
REMARK                            x       y       z     vdW  Elec       q    Type
REMARK                         _______ _______ _______ _____ _____    ______ ____
ROOT
ATOM      1  N   UNL     1       2.812   6.693  18.380  0.00  0.00    +0.000 N 
ATOM      2  C   UNL     1       2.283   7.859  18.875  0.00  0.00    +0.000 C 
ATOM      3  O   UNL     1       2.121   8.036  20.082  0.00  0.00    +0.000 OA
ATOM      4  H   UNL     1       3.078   6.632  17.406  0.00  0.00    +0.000 HD
ENDROOT
BRANCH   2   5
ATOM      5  C   UNL     1       1.890   8.896  17.822  0.00  0.00    +0.000 C 
ATOM      6  C   UNL     1       2.249  10.327  18.243  0.00  0.00    +0.000 C 
ATOM      7  C   UNL     1       1.323  10.855  19.340  0.00  0.00    +0.000 C 
ATOM      8  N   UNL     1      -0.077  10.723  18.943  0.00  0.00    +0.000 N 
ATOM      9  C   UNL     1      -0.912  11.836  19.011  0.00  0.00    +0.000 C 
ATOM     10  O   UNL     1      -0.505  12.924  19.426  0.00  0.00    +0.000 OA
ATOM     11  C   UNL     1      -0.487   9.359  18.610  0.00  0.00    +0.000 C 
ATOM     12  C   UNL     1       0.389   8.796  17.490  0.00  0.00    +0.000 C 
BRANCH   9  13
ATOM     13  C   UNL     1      -2.405  11.652  18.629  0.00  0.00    +0.000 C 
BRANCH  13  14
ATOM     14  N   UNL     1      -3.184  12.732  19.280  0.00  0.00    +0.000 NA
ATOM     15  H   UNL     1      -3.696  13.231  18.549  0.00  0.00    +0.000 HD
ATOM     16  H   UNL     1      -2.538  13.419  19.671  0.00  0.00    +0.000 HD
ENDBRANCH  13  14
BRANCH  13  17
ATOM     17  C   UNL     1      -2.636  11.720  17.110  0.00  0.00    +0.000 C 
BRANCH  17  18
ATOM     18  C   UNL     1      -3.518  10.586  16.540  0.00  0.00    +0.000 C 
ATOM     19  C   UNL     1      -2.864   9.833  15.379  0.00  0.00    +0.000 C 
ATOM     20  C   UNL     1      -3.865   9.599  17.657  0.00  0.00    +0.000 C 
ENDBRANCH  17  18
ENDBRANCH  13  17
ENDBRANCH   9  13
ENDBRANCH   2   5
BRANCH   1  21
ATOM     21  C   UNL     1       3.289   5.641  19.282  0.00  0.00    +0.000 C 
BRANCH  21  23
ATOM     22  N   UNL     1       5.137   5.927  17.676  0.00  0.00    +0.000 N 
ATOM     23  C   UNL     1       4.720   5.271  18.815  0.00  0.00    +0.000 C 
ATOM     24  O   UNL     1       5.386   4.392  19.359  0.00  0.00    +0.000 OA
ATOM     25  H   UNL     1       4.516   6.605  17.240  0.00  0.00    +0.000 HD
BRANCH  22  26
ATOM     26  C   UNL     1       6.475   5.766  17.153  0.00  0.00    +0.000 C 
BRANCH  26  30
ATOM     27  C   UNL     1       6.493   4.068  13.173  0.00  0.00    +0.000 A 
ATOM     28  C   UNL     1       5.429   3.816  14.042  0.00  0.00    +0.000 A 
ATOM     29  C   UNL     1       5.417   4.362  15.330  0.00  0.00    +0.000 A 
ATOM     30  C   UNL     1       6.480   5.161  15.773  0.00  0.00    +0.000 A 
ATOM     31  C   UNL     1       7.555   5.388  14.902  0.00  0.00    +0.000 A 
ATOM     32  C   UNL     1       7.560   4.848  13.611  0.00  0.00    +0.000 A 
BRANCH  27  34
ATOM     33  C   UNL     1       5.333   2.544  11.784  0.00  0.00    +0.000 C 
ATOM     34  O   UNL     1       6.402   3.470  11.945  0.00  0.00    +0.000 OA
ENDBRANCH  27  34
ENDBRANCH  26  30
ENDBRANCH  22  26
ENDBRANCH  21  23
BRANCH  21  35
ATOM     35  C   UNL     1       2.339   4.422  19.268  0.00  0.00    +0.000 C 
ATOM     36  C   UNL     1       1.285   4.527  20.377  0.00  0.00    +0.000 C 
ATOM     37  C   UNL     1       1.613   4.289  17.922  0.00  0.00    +0.000 C 
ENDBRANCH  21  35
ENDBRANCH   1  21
TORSDOF 11
ENDMDL
MODEL 2
REMARK VINA RESULT:      -6.7      0.663      1.195
REMARK  Name = 
REMARK  16 active torsions:
REMARK  status: ('A' for Active; 'I' for Inactive)
REMARK    1  A    between atoms: C_1  and  O_2
REMARK    2  A    between atoms: O_2  and  C_3
REMARK    3  A    between atoms: C_6  and  C_7
REMARK    4  A    between atoms: C_7  and  N_8
REMARK    5  A    between atoms: C_9  and  C_11
REMARK    6  A    between atoms: C_11  and  N_12
REMARK    7  A    between atoms: C_11  and  C_29
REMARK    8  A    between atoms: C_13  and  C_15
REMARK    9  A    between atoms: C_19  and  C_21
REMARK   10  A    between atoms: C_21  and  N_22
REMARK   11  A    between atoms: C_21  and  C_23
REMARK   12  A    between atoms: C_23  and  C_24
REMARK   13  A    between atoms: C_24  and  C_25
REMARK   14  A    between atoms: C_24  and  C_26
REMARK   15  A    between atoms: C_29  and  C_30
REMARK   16  A    between atoms: C_29  and  C_31
REMARK                            x       y       z     vdW  Elec       q    Type
REMARK                         _______ _______ _______ _____ _____    ______ ____
ROOT
ATOM      1  N   UNL     1       2.641   7.052  18.497  0.00  0.00    +0.000 N 
ATOM      2  C   UNL     1       2.042   8.155  19.053  0.00  0.00    +0.000 C 
ATOM      3  O   UNL     1       1.884   8.262  20.269  0.00  0.00    +0.000 OA
ATOM      4  H   UNL     1       2.897   7.057  17.518  0.00  0.00    +0.000 HD
ENDROOT
BRANCH   2   5
ATOM      5  C   UNL     1       1.563   9.211  18.056  0.00  0.00    +0.000 C 
ATOM      6  C   UNL     1       2.034  10.624  18.425  0.00  0.00    +0.000 C 
ATOM      7  C   UNL     1       1.278  11.188  19.630  0.00  0.00    +0.000 C 
ATOM      8  N   UNL     1      -0.165  11.118  19.413  0.00  0.00    +0.000 N 
ATOM      9  C   UNL     1      -0.936  12.266  19.584  0.00  0.00    +0.000 C 
ATOM     10  O   UNL     1      -0.433  13.333  19.942  0.00  0.00    +0.000 OA
ATOM     11  C   UNL     1      -0.672   9.774  19.138  0.00  0.00    +0.000 C 
ATOM     12  C   UNL     1       0.030   9.177  17.917  0.00  0.00    +0.000 C 
BRANCH   9  13
ATOM     13  C   UNL     1      -2.472  12.148  19.394  0.00  0.00    +0.000 C 
BRANCH  13  14
ATOM     14  N   UNL     1      -3.093  13.410  19.862  0.00  0.00    +0.000 NA
ATOM     15  H   UNL     1      -2.542  13.752  20.652  0.00  0.00    +0.000 HD
ATOM     16  H   UNL     1      -4.015  13.204  20.247  0.00  0.00    +0.000 HD
ENDBRANCH  13  14
BRANCH  13  17
ATOM     17  C   UNL     1      -2.866  11.914  17.926  0.00  0.00    +0.000 C 
BRANCH  17  18
ATOM     18  C   UNL     1      -3.888  10.776  17.705  0.00  0.00    +0.000 C 
ATOM     19  C   UNL     1      -5.326  11.273  17.543  0.00  0.00    +0.000 C 
ATOM     20  C   UNL     1      -3.487   9.964  16.470  0.00  0.00    +0.000 C 
ENDBRANCH  17  18
ENDBRANCH  13  17
ENDBRANCH   9  13
ENDBRANCH   2   5
BRANCH   1  21
ATOM     21  C   UNL     1       3.202   5.994  19.342  0.00  0.00    +0.000 C 
BRANCH  21  23
ATOM     22  N   UNL     1       4.928   6.311  17.610  0.00  0.00    +0.000 N 
ATOM     23  C   UNL     1       4.641   5.733  18.830  0.00  0.00    +0.000 C 
ATOM     24  O   UNL     1       5.426   4.990  19.415  0.00  0.00    +0.000 OA
ATOM     25  H   UNL     1       4.216   6.871  17.149  0.00  0.00    +0.000 HD
BRANCH  22  26
ATOM     26  C   UNL     1       6.249   6.240  17.028  0.00  0.00    +0.000 C 
BRANCH  26  30
ATOM     27  C   UNL     1       6.304   3.896  13.391  0.00  0.00    +0.000 A 
ATOM     28  C   UNL     1       7.341   4.790  13.669  0.00  0.00    +0.000 A 
ATOM     29  C   UNL     1       7.329   5.551  14.843  0.00  0.00    +0.000 A 
ATOM     30  C   UNL     1       6.270   5.437  15.753  0.00  0.00    +0.000 A 
ATOM     31  C   UNL     1       5.221   4.555  15.454  0.00  0.00    +0.000 A 
ATOM     32  C   UNL     1       5.240   3.789  14.283  0.00  0.00    +0.000 A 
BRANCH  27  34
ATOM     33  C   UNL     1       5.194   2.759  11.639  0.00  0.00    +0.000 C 
ATOM     34  O   UNL     1       6.416   3.217  12.208  0.00  0.00    +0.000 OA
ENDBRANCH  27  34
ENDBRANCH  26  30
ENDBRANCH  22  26
ENDBRANCH  21  23
BRANCH  21  35
ATOM     35  C   UNL     1       2.327   4.721  19.293  0.00  0.00    +0.000 C 
ATOM     36  C   UNL     1       1.254   4.743  20.389  0.00  0.00    +0.000 C 
ATOM     37  C   UNL     1       1.628   4.569  17.935  0.00  0.00    +0.000 C 
ENDBRANCH  21  35
ENDBRANCH   1  21
TORSDOF 11
ENDMDL
MODEL 3
REMARK VINA RESULT:      -6.7      3.953     10.990
REMARK  Name = 
REMARK  16 active torsions:
REMARK  status: ('A' for Active; 'I' for Inactive)
REMARK    1  A    between atoms: C_1  and  O_2
REMARK    2  A    between atoms: O_2  and  C_3
REMARK    3  A    between atoms: C_6  and  C_7
REMARK    4  A    between atoms: C_7  and  N_8
REMARK    5  A    between atoms: C_9  and  C_11
REMARK    6  A    between atoms: C_11  and  N_12
REMARK    7  A    between atoms: C_11  and  C_29
REMARK    8  A    between atoms: C_13  and  C_15
REMARK    9  A    between atoms: C_19  and  C_21
REMARK   10  A    between atoms: C_21  and  N_22
REMARK   11  A    between atoms: C_21  and  C_23
REMARK   12  A    between atoms: C_23  and  C_24
REMARK   13  A    between atoms: C_24  and  C_25
REMARK   14  A    between atoms: C_24  and  C_26
REMARK   15  A    between atoms: C_29  and  C_30
REMARK   16  A    between atoms: C_29  and  C_31
REMARK                            x       y       z     vdW  Elec       q    Type
REMARK                         _______ _______ _______ _____ _____    ______ ____
ROOT
ATOM      1  N   UNL     1       0.601  12.239  19.880  0.00  0.00    +0.000 N 
ATOM      2  C   UNL     1       1.171  11.414  18.942  0.00  0.00    +0.000 C 
ATOM      3  O   UNL     1       2.217  11.714  18.366  0.00  0.00    +0.000 OA
ATOM      4  H   UNL     1      -0.167  11.904  20.447  0.00  0.00    +0.000 HD
ENDROOT
BRANCH   2   5
ATOM      5  C   UNL     1       0.399  10.127  18.648  0.00  0.00    +0.000 C 
ATOM      6  C   UNL     1       0.060   9.342  19.922  0.00  0.00    +0.000 C 
ATOM      7  C   UNL     1       1.290   8.657  20.522  0.00  0.00    +0.000 C 
ATOM      8  N   UNL     1       1.964   7.835  19.519  0.00  0.00    +0.000 N 
ATOM      9  C   UNL     1       2.247   6.502  19.811  0.00  0.00    +0.000 C 
ATOM     10  O   UNL     1       1.969   6.007  20.905  0.00  0.00    +0.000 OA
ATOM     11  C   UNL     1       2.378   8.560  18.319  0.00  0.00    +0.000 C 
ATOM     12  C   UNL     1       1.175   9.237  17.660  0.00  0.00    +0.000 C 
BRANCH   9  13
ATOM     13  C   UNL     1       3.007   5.668  18.744  0.00  0.00    +0.000 C 
BRANCH  13  14
ATOM     14  N   UNL     1       4.128   4.971  19.418  0.00  0.00    +0.000 NA
ATOM     15  H   UNL     1       4.647   5.666  19.958  0.00  0.00    +0.000 HD
ATOM     16  H   UNL     1       4.784   4.636  18.711  0.00  0.00    +0.000 HD
ENDBRANCH  13  14
BRANCH  13  17
ATOM     17  C   UNL     1       2.107   4.622  18.065  0.00  0.00    +0.000 C 
BRANCH  17  18
ATOM     18  C   UNL     1       2.105   3.234  18.745  0.00  0.00    +0.000 C 
ATOM     19  C   UNL     1       0.741   2.839  19.316  0.00  0.00    +0.000 C 
ATOM     20  C   UNL     1       2.564   2.174  17.739  0.00  0.00    +0.000 C 
ENDBRANCH  17  18
ENDBRANCH  13  17
ENDBRANCH   9  13
ENDBRANCH   2   5
BRANCH   1  21
ATOM     21  C   UNL     1       1.269  13.474  20.301  0.00  0.00    +0.000 C 
BRANCH  21  23
ATOM     22  N   UNL     1      -0.544  13.266  21.960  0.00  0.00    +0.000 N 
ATOM     23  C   UNL     1       0.674  13.852  21.681  0.00  0.00    +0.000 C 
ATOM     24  O   UNL     1       1.196  14.684  22.421  0.00  0.00    +0.000 OA
ATOM     25  H   UNL     1      -0.951  12.628  21.281  0.00  0.00    +0.000 HD
BRANCH  22  26
ATOM     26  C   UNL     1      -1.198  13.442  23.236  0.00  0.00    +0.000 C 
BRANCH  26  30
ATOM     27  C   UNL     1      -5.449  12.663  23.010  0.00  0.00    +0.000 A 
ATOM     28  C   UNL     1      -4.796  12.662  24.246  0.00  0.00    +0.000 A 
ATOM     29  C   UNL     1      -3.422  12.913  24.325  0.00  0.00    +0.000 A 
ATOM     30  C   UNL     1      -2.676  13.158  23.165  0.00  0.00    +0.000 A 
ATOM     31  C   UNL     1      -3.335  13.132  21.927  0.00  0.00    +0.000 A 
ATOM     32  C   UNL     1      -4.711  12.890  21.851  0.00  0.00    +0.000 A 
BRANCH  27  34
ATOM     33  C   UNL     1      -7.567  13.247  23.885  0.00  0.00    +0.000 C 
ATOM     34  O   UNL     1      -6.790  12.392  23.054  0.00  0.00    +0.000 OA
ENDBRANCH  27  34
ENDBRANCH  26  30
ENDBRANCH  22  26
ENDBRANCH  21  23
BRANCH  21  35
ATOM     35  C   UNL     1       1.074  14.596  19.256  0.00  0.00    +0.000 C 
ATOM     36  C   UNL     1      -0.318  15.229  19.375  0.00  0.00    +0.000 C 
ATOM     37  C   UNL     1       2.125  15.703  19.416  0.00  0.00    +0.000 C 
ENDBRANCH  21  35
ENDBRANCH   1  21
TORSDOF 11
ENDMDL
MODEL 4
REMARK VINA RESULT:      -6.6      1.320      1.825
REMARK  Name = 
REMARK  16 active torsions:
REMARK  status: ('A' for Active; 'I' for Inactive)
REMARK    1  A    between atoms: C_1  and  O_2
REMARK    2  A    between atoms: O_2  and  C_3
REMARK    3  A    between atoms: C_6  and  C_7
REMARK    4  A    between atoms: C_7  and  N_8
REMARK    5  A    between atoms: C_9  and  C_11
REMARK    6  A    between atoms: C_11  and  N_12
REMARK    7  A    between atoms: C_11  and  C_29
REMARK    8  A    between atoms: C_13  and  C_15
REMARK    9  A    between atoms: C_19  and  C_21
REMARK   10  A    between atoms: C_21  and  N_22
REMARK   11  A    between atoms: C_21  and  C_23
REMARK   12  A    between atoms: C_23  and  C_24
REMARK   13  A    between atoms: C_24  and  C_25
REMARK   14  A    between atoms: C_24  and  C_26
REMARK   15  A    between atoms: C_29  and  C_30
REMARK   16  A    between atoms: C_29  and  C_31
REMARK                            x       y       z     vdW  Elec       q    Type
REMARK                         _______ _______ _______ _____ _____    ______ ____
ROOT
ATOM      1  N   UNL     1       2.578   6.959  19.807  0.00  0.00    +0.000 N 
ATOM      2  C   UNL     1       1.669   7.784  20.422  0.00  0.00    +0.000 C 
ATOM      3  O   UNL     1       0.736   7.337  21.089  0.00  0.00    +0.000 OA
ATOM      4  H   UNL     1       3.417   7.348  19.398  0.00  0.00    +0.000 HD
ENDROOT
BRANCH   2   5
ATOM      5  C   UNL     1       1.884   9.280  20.190  0.00  0.00    +0.000 C 
ATOM      6  C   UNL     1       1.214  10.144  21.266  0.00  0.00    +0.000 C 
ATOM      7  C   UNL     1      -0.308  10.177  21.115  0.00  0.00    +0.000 C 
ATOM      8  N   UNL     1      -0.684  10.578  19.760  0.00  0.00    +0.000 N 
ATOM      9  C   UNL     1      -1.587  11.624  19.586  0.00  0.00    +0.000 C 
ATOM     10  O   UNL     1      -2.100  12.201  20.547  0.00  0.00    +0.000 OA
ATOM     11  C   UNL     1      -0.133   9.732  18.703  0.00  0.00    +0.000 C 
ATOM     12  C   UNL     1       1.394   9.693  18.790  0.00  0.00    +0.000 C 
BRANCH   9  13
ATOM     13  C   UNL     1      -2.004  11.994  18.137  0.00  0.00    +0.000 C 
BRANCH  13  14
ATOM     14  N   UNL     1      -0.938  12.843  17.554  0.00  0.00    +0.000 NA
ATOM     15  H   UNL     1      -1.089  13.800  17.880  0.00  0.00    +0.000 HD
ATOM     16  H   UNL     1      -1.061  12.883  16.541  0.00  0.00    +0.000 HD
ENDBRANCH  13  14
BRANCH  13  17
ATOM     17  C   UNL     1      -2.195  10.755  17.246  0.00  0.00    +0.000 C 
BRANCH  17  18
ATOM     18  C   UNL     1      -3.097  10.980  16.012  0.00  0.00    +0.000 C 
ATOM     19  C   UNL     1      -3.074   9.815  15.021  0.00  0.00    +0.000 C 
ATOM     20  C   UNL     1      -4.537  11.230  16.472  0.00  0.00    +0.000 C 
ENDBRANCH  17  18
ENDBRANCH  13  17
ENDBRANCH   9  13
ENDBRANCH   2   5
BRANCH   1  21
ATOM     21  C   UNL     1       2.524   5.507  19.998  0.00  0.00    +0.000 C 
BRANCH  21  23
ATOM     22  N   UNL     1       4.648   5.797  18.779  0.00  0.00    +0.000 N 
ATOM     23  C   UNL     1       3.913   4.953  19.586  0.00  0.00    +0.000 C 
ATOM     24  O   UNL     1       4.283   3.817  19.873  0.00  0.00    +0.000 OA
ATOM     25  H   UNL     1       4.262   6.704  18.531  0.00  0.00    +0.000 HD
BRANCH  22  26
ATOM     26  C   UNL     1       5.998   5.475  18.374  0.00  0.00    +0.000 C 
BRANCH  26  30
ATOM     27  C   UNL     1       6.208   4.190  14.248  0.00  0.00    +0.000 A 
ATOM     28  C   UNL     1       7.283   4.864  14.832  0.00  0.00    +0.000 A 
ATOM     29  C   UNL     1       7.221   5.282  16.165  0.00  0.00    +0.000 A 
ATOM     30  C   UNL     1       6.074   5.042  16.933  0.00  0.00    +0.000 A 
ATOM     31  C   UNL     1       4.990   4.386  16.331  0.00  0.00    +0.000 A 
ATOM     32  C   UNL     1       5.058   3.961  15.000  0.00  0.00    +0.000 A 
BRANCH  27  34
ATOM     33  C   UNL     1       5.186   3.519  12.222  0.00  0.00    +0.000 C 
ATOM     34  O   UNL     1       6.376   3.842  12.935  0.00  0.00    +0.000 OA
ENDBRANCH  27  34
ENDBRANCH  26  30
ENDBRANCH  22  26
ENDBRANCH  21  23
BRANCH  21  35
ATOM     35  C   UNL     1       1.379   4.878  19.172  0.00  0.00    +0.000 C 
ATOM     36  C   UNL     1       1.875   4.423  17.794  0.00  0.00    +0.000 C 
ATOM     37  C   UNL     1       0.765   3.668  19.890  0.00  0.00    +0.000 C 
ENDBRANCH  21  35
ENDBRANCH   1  21
TORSDOF 11
ENDMDL
MODEL 5
REMARK VINA RESULT:      -6.6      1.751      2.720
REMARK  Name = 
REMARK  16 active torsions:
REMARK  status: ('A' for Active; 'I' for Inactive)
REMARK    1  A    between atoms: C_1  and  O_2
REMARK    2  A    between atoms: O_2  and  C_3
REMARK    3  A    between atoms: C_6  and  C_7
REMARK    4  A    between atoms: C_7  and  N_8
REMARK    5  A    between atoms: C_9  and  C_11
REMARK    6  A    between atoms: C_11  and  N_12
REMARK    7  A    between atoms: C_11  and  C_29
REMARK    8  A    between atoms: C_13  and  C_15
REMARK    9  A    between atoms: C_19  and  C_21
REMARK   10  A    between atoms: C_21  and  N_22
REMARK   11  A    between atoms: C_21  and  C_23
REMARK   12  A    between atoms: C_23  and  C_24
REMARK   13  A    between atoms: C_24  and  C_25
REMARK   14  A    between atoms: C_24  and  C_26
REMARK   15  A    between atoms: C_29  and  C_30
REMARK   16  A    between atoms: C_29  and  C_31
REMARK                            x       y       z     vdW  Elec       q    Type
REMARK                         _______ _______ _______ _____ _____    ______ ____
ROOT
ATOM      1  N   UNL     1       2.484   6.229  20.180  0.00  0.00    +0.000 N 
ATOM      2  C   UNL     1       1.535   7.092  20.670  0.00  0.00    +0.000 C 
ATOM      3  O   UNL     1       0.447   6.692  21.081  0.00  0.00    +0.000 OA
ATOM      4  H   UNL     1       3.421   6.562  19.994  0.00  0.00    +0.000 HD
ENDROOT
BRANCH   2   5
ATOM      5  C   UNL     1       1.919   8.572  20.637  0.00  0.00    +0.000 C 
ATOM      6  C   UNL     1       1.152   9.402  21.675  0.00  0.00    +0.000 C 
ATOM      7  C   UNL     1      -0.311   9.608  21.282  0.00  0.00    +0.000 C 
ATOM      8  N   UNL     1      -0.411  10.166  19.935  0.00  0.00    +0.000 N 
ATOM      9  C   UNL     1      -1.174  11.313  19.728  0.00  0.00    +0.000 C 
ATOM     10  O   UNL     1      -1.792  11.852  20.649  0.00  0.00    +0.000 OA
ATOM     11  C   UNL     1       0.237   9.365  18.898  0.00  0.00    +0.000 C 
ATOM     12  C   UNL     1       1.717   9.158  19.228  0.00  0.00    +0.000 C 
BRANCH   9  13
ATOM     13  C   UNL     1      -1.300  11.854  18.278  0.00  0.00    +0.000 C 
BRANCH  13  14
ATOM     14  N   UNL     1      -2.739  12.052  17.984  0.00  0.00    +0.000 NA
ATOM     15  H   UNL     1      -2.840  12.141  16.970  0.00  0.00    +0.000 HD
ATOM     16  H   UNL     1      -3.035  12.953  18.362  0.00  0.00    +0.000 HD
ENDBRANCH  13  14
BRANCH  13  17
ATOM     17  C   UNL     1      -0.564  13.190  18.084  0.00  0.00    +0.000 C 
BRANCH  17  18
ATOM     18  C   UNL     1       0.710  13.357  18.943  0.00  0.00    +0.000 C 
ATOM     19  C   UNL     1       2.000  13.380  18.119  0.00  0.00    +0.000 C 
ATOM     20  C   UNL     1       0.605  14.645  19.764  0.00  0.00    +0.000 C 
ENDBRANCH  17  18
ENDBRANCH  13  17
ENDBRANCH   9  13
ENDBRANCH   2   5
BRANCH   1  21
ATOM     21  C   UNL     1       2.270   4.780  20.211  0.00  0.00    +0.000 C 
BRANCH  21  23
ATOM     22  N   UNL     1       4.487   4.906  19.139  0.00  0.00    +0.000 N 
ATOM     23  C   UNL     1       3.638   4.122  19.892  0.00  0.00    +0.000 C 
ATOM     24  O   UNL     1       3.901   2.962  20.201  0.00  0.00    +0.000 OA
ATOM     25  H   UNL     1       4.188   5.839  18.868  0.00  0.00    +0.000 HD
BRANCH  22  26
ATOM     26  C   UNL     1       5.833   4.483  18.825  0.00  0.00    +0.000 C 
BRANCH  26  30
ATOM     27  C   UNL     1       6.589   4.464  14.564  0.00  0.00    +0.000 A 
ATOM     28  C   UNL     1       5.388   3.961  15.069  0.00  0.00    +0.000 A 
ATOM     29  C   UNL     1       5.137   3.964  16.446  0.00  0.00    +0.000 A 
ATOM     30  C   UNL     1       6.094   4.461  17.341  0.00  0.00    +0.000 A 
ATOM     31  C   UNL     1       7.307   4.942  16.827  0.00  0.00    +0.000 A 
ATOM     32  C   UNL     1       7.551   4.945  15.449  0.00  0.00    +0.000 A 
BRANCH  27  34
ATOM     33  C   UNL     1       5.883   3.462  12.541  0.00  0.00    +0.000 C 
ATOM     34  O   UNL     1       6.728   4.396  13.204  0.00  0.00    +0.000 OA
ENDBRANCH  27  34
ENDBRANCH  26  30
ENDBRANCH  22  26
ENDBRANCH  21  23
BRANCH  21  35
ATOM     35  C   UNL     1       1.173   4.357  19.207  0.00  0.00    +0.000 C 
ATOM     36  C   UNL     1       1.676   4.458  17.762  0.00  0.00    +0.000 C 
ATOM     37  C   UNL     1       0.705   2.917  19.458  0.00  0.00    +0.000 C 
ENDBRANCH  21  35
ENDBRANCH   1  21
TORSDOF 11
ENDMDL
MODEL 6
REMARK VINA RESULT:      -6.3      3.958      6.722
REMARK  Name = 
REMARK  16 active torsions:
REMARK  status: ('A' for Active; 'I' for Inactive)
REMARK    1  A    between atoms: C_1  and  O_2
REMARK    2  A    between atoms: O_2  and  C_3
REMARK    3  A    between atoms: C_6  and  C_7
REMARK    4  A    between atoms: C_7  and  N_8
REMARK    5  A    between atoms: C_9  and  C_11
REMARK    6  A    between atoms: C_11  and  N_12
REMARK    7  A    between atoms: C_11  and  C_29
REMARK    8  A    between atoms: C_13  and  C_15
REMARK    9  A    between atoms: C_19  and  C_21
REMARK   10  A    between atoms: C_21  and  N_22
REMARK   11  A    between atoms: C_21  and  C_23
REMARK   12  A    between atoms: C_23  and  C_24
REMARK   13  A    between atoms: C_24  and  C_25
REMARK   14  A    between atoms: C_24  and  C_26
REMARK   15  A    between atoms: C_29  and  C_30
REMARK   16  A    between atoms: C_29  and  C_31
REMARK                            x       y       z     vdW  Elec       q    Type
REMARK                         _______ _______ _______ _____ _____    ______ ____
ROOT
ATOM      1  N   UNL     1      -0.885  11.615  20.536  0.00  0.00    +0.000 N 
ATOM      2  C   UNL     1      -0.789  12.946  20.859  0.00  0.00    +0.000 C 
ATOM      3  O   UNL     1       0.183  13.397  21.465  0.00  0.00    +0.000 OA
ATOM      4  H   UNL     1      -1.612  11.299  19.908  0.00  0.00    +0.000 HD
ENDROOT
BRANCH   2   5
ATOM      5  C   UNL     1      -1.982  13.807  20.440  0.00  0.00    +0.000 C 
ATOM      6  C   UNL     1      -2.146  15.052  21.322  0.00  0.00    +0.000 C 
ATOM      7  C   UNL     1      -2.680  14.707  22.713  0.00  0.00    +0.000 C 
ATOM      8  N   UNL     1      -3.909  13.923  22.616  0.00  0.00    +0.000 N 
ATOM      9  C   UNL     1      -5.039  14.339  23.317  0.00  0.00    +0.000 C 
ATOM     10  O   UNL     1      -5.018  15.337  24.042  0.00  0.00    +0.000 OA
ATOM     11  C   UNL     1      -3.779  12.684  21.851  0.00  0.00    +0.000 C 
ATOM     12  C   UNL     1      -3.279  12.978  20.436  0.00  0.00    +0.000 C 
BRANCH   9  13
ATOM     13  C   UNL     1      -6.315  13.459  23.232  0.00  0.00    +0.000 C 
BRANCH  13  14
ATOM     14  N   UNL     1      -7.047  13.583  24.515  0.00  0.00    +0.000 NA
ATOM     15  H   UNL     1      -7.999  13.244  24.364  0.00  0.00    +0.000 HD
ATOM     16  H   UNL     1      -7.148  14.572  24.746  0.00  0.00    +0.000 HD
ENDBRANCH  13  14
BRANCH  13  17
ATOM     17  C   UNL     1      -7.247  13.885  22.086  0.00  0.00    +0.000 C 
BRANCH  17  18
ATOM     18  C   UNL     1      -7.037  13.113  20.763  0.00  0.00    +0.000 C 
ATOM     19  C   UNL     1      -7.354  11.620  20.873  0.00  0.00    +0.000 C 
ATOM     20  C   UNL     1      -7.903  13.739  19.665  0.00  0.00    +0.000 C 
ENDBRANCH  17  18
ENDBRANCH  13  17
ENDBRANCH   9  13
ENDBRANCH   2   5
BRANCH   1  21
ATOM     21  C   UNL     1       0.216  10.690  20.824  0.00  0.00    +0.000 C 
BRANCH  21  23
ATOM     22  N   UNL     1       1.696   9.236  19.492  0.00  0.00    +0.000 N 
ATOM     23  C   UNL     1       0.490   9.906  19.515  0.00  0.00    +0.000 C 
ATOM     24  O   UNL     1      -0.259   9.962  18.542  0.00  0.00    +0.000 OA
ATOM     25  H   UNL     1       2.298   9.274  20.310  0.00  0.00    +0.000 HD
BRANCH  22  26
ATOM     26  C   UNL     1       2.072   8.386  18.385  0.00  0.00    +0.000 C 
BRANCH  26  30
ATOM     27  C   UNL     1       2.535   4.258  19.594  0.00  0.00    +0.000 A 
ATOM     28  C   UNL     1       2.673   4.619  18.252  0.00  0.00    +0.000 A 
ATOM     29  C   UNL     1       2.525   5.952  17.855  0.00  0.00    +0.000 A 
ATOM     30  C   UNL     1       2.223   6.945  18.796  0.00  0.00    +0.000 A 
ATOM     31  C   UNL     1       2.062   6.569  20.137  0.00  0.00    +0.000 A 
ATOM     32  C   UNL     1       2.220   5.236  20.534  0.00  0.00    +0.000 A 
BRANCH  27  34
ATOM     33  C   UNL     1       2.320   2.510  21.174  0.00  0.00    +0.000 C 
ATOM     34  O   UNL     1       2.688   2.924  19.863  0.00  0.00    +0.000 OA
ENDBRANCH  27  34
ENDBRANCH  26  30
ENDBRANCH  22  26
ENDBRANCH  21  23
BRANCH  21  35
ATOM     35  C   UNL     1      -0.138   9.753  22.001  0.00  0.00    +0.000 C 
ATOM     36  C   UNL     1       1.123   9.121  22.604  0.00  0.00    +0.000 C 
ATOM     37  C   UNL     1      -0.884  10.502  23.114  0.00  0.00    +0.000 C 
ENDBRANCH  21  35
ENDBRANCH   1  21
TORSDOF 11
ENDMDL
MODEL 7
REMARK VINA RESULT:      -6.3      1.244      1.672
REMARK  Name = 
REMARK  16 active torsions:
REMARK  status: ('A' for Active; 'I' for Inactive)
REMARK    1  A    between atoms: C_1  and  O_2
REMARK    2  A    between atoms: O_2  and  C_3
REMARK    3  A    between atoms: C_6  and  C_7
REMARK    4  A    between atoms: C_7  and  N_8
REMARK    5  A    between atoms: C_9  and  C_11
REMARK    6  A    between atoms: C_11  and  N_12
REMARK    7  A    between atoms: C_11  and  C_29
REMARK    8  A    between atoms: C_13  and  C_15
REMARK    9  A    between atoms: C_19  and  C_21
REMARK   10  A    between atoms: C_21  and  N_22
REMARK   11  A    between atoms: C_21  and  C_23
REMARK   12  A    between atoms: C_23  and  C_24
REMARK   13  A    between atoms: C_24  and  C_25
REMARK   14  A    between atoms: C_24  and  C_26
REMARK   15  A    between atoms: C_29  and  C_30
REMARK   16  A    between atoms: C_29  and  C_31
REMARK                            x       y       z     vdW  Elec       q    Type
REMARK                         _______ _______ _______ _____ _____    ______ ____
ROOT
ATOM      1  N   UNL     1       2.301   6.984  18.756  0.00  0.00    +0.000 N 
ATOM      2  C   UNL     1       1.866   8.180  19.271  0.00  0.00    +0.000 C 
ATOM      3  O   UNL     1       1.513   8.289  20.446  0.00  0.00    +0.000 OA
ATOM      4  H   UNL     1       2.729   6.955  17.840  0.00  0.00    +0.000 HD
ENDROOT
BRANCH   2   5
ATOM      5  C   UNL     1       1.824   9.342  18.278  0.00  0.00    +0.000 C 
ATOM      6  C   UNL     1       1.809  10.709  18.975  0.00  0.00    +0.000 C 
ATOM      7  C   UNL     1       0.459  11.010  19.627  0.00  0.00    +0.000 C 
ATOM      8  N   UNL     1      -0.627  10.861  18.661  0.00  0.00    +0.000 N 
ATOM      9  C   UNL     1      -1.539  11.902  18.496  0.00  0.00    +0.000 C 
ATOM     10  O   UNL     1      -1.468  12.934  19.167  0.00  0.00    +0.000 OA
ATOM     11  C   UNL     1      -0.702   9.544  18.031  0.00  0.00    +0.000 C 
ATOM     12  C   UNL     1       0.617   9.210  17.331  0.00  0.00    +0.000 C 
BRANCH   9  13
ATOM     13  C   UNL     1      -2.709  11.695  17.497  0.00  0.00    +0.000 C 
BRANCH  13  14
ATOM     14  N   UNL     1      -2.141  11.209  16.217  0.00  0.00    +0.000 NA
ATOM     15  H   UNL     1      -2.666  10.377  15.940  0.00  0.00    +0.000 HD
ATOM     16  H   UNL     1      -1.187  10.884  16.378  0.00  0.00    +0.000 HD
ENDBRANCH  13  14
BRANCH  13  17
ATOM     17  C   UNL     1      -3.740  10.672  18.003  0.00  0.00    +0.000 C 
BRANCH  17  18
ATOM     18  C   UNL     1      -5.137  11.259  18.306  0.00  0.00    +0.000 C 
ATOM     19  C   UNL     1      -5.182  12.089  19.591  0.00  0.00    +0.000 C 
ATOM     20  C   UNL     1      -5.595  12.121  17.126  0.00  0.00    +0.000 C 
ENDBRANCH  17  18
ENDBRANCH  13  17
ENDBRANCH   9  13
ENDBRANCH   2   5
BRANCH   1  21
ATOM     21  C   UNL     1       2.449   5.805  19.614  0.00  0.00    +0.000 C 
BRANCH  21  23
ATOM     22  N   UNL     1       4.549   5.864  18.324  0.00  0.00    +0.000 N 
ATOM     23  C   UNL     1       3.860   5.227  19.336  0.00  0.00    +0.000 C 
ATOM     24  O   UNL     1       4.287   4.223  19.902  0.00  0.00    +0.000 OA
ATOM     25  H   UNL     1       4.118   6.656  17.855  0.00  0.00    +0.000 HD
BRANCH  22  26
ATOM     26  C   UNL     1       5.911   5.510  17.992  0.00  0.00    +0.000 C 
BRANCH  26  30
ATOM     27  C   UNL     1       6.304   4.156  13.901  0.00  0.00    +0.000 A 
ATOM     28  C   UNL     1       5.152   3.861  14.633  0.00  0.00    +0.000 A 
ATOM     29  C   UNL     1       5.018   4.296  15.956  0.00  0.00    +0.000 A 
ATOM     30  C   UNL     1       6.045   5.025  16.572  0.00  0.00    +0.000 A 
ATOM     31  C   UNL     1       7.208   5.295  15.837  0.00  0.00    +0.000 A 
ATOM     32  C   UNL     1       7.335   4.866  14.510  0.00  0.00    +0.000 A 
BRANCH  27  34
ATOM     33  C   UNL     1       5.076   3.234  12.102  0.00  0.00    +0.000 C 
ATOM     34  O   UNL     1       6.328   3.668  12.622  0.00  0.00    +0.000 OA
ENDBRANCH  27  34
ENDBRANCH  26  30
ENDBRANCH  22  26
ENDBRANCH  21  23
BRANCH  21  35
ATOM     35  C   UNL     1       1.332   4.772  19.338  0.00  0.00    +0.000 C 
ATOM     36  C   UNL     1       1.572   4.038  18.013  0.00  0.00    +0.000 C 
ATOM     37  C   UNL     1       1.240   3.728  20.460  0.00  0.00    +0.000 C 
ENDBRANCH  21  35
ENDBRANCH   1  21
TORSDOF 11
ENDMDL
MODEL 8
REMARK VINA RESULT:      -6.3      1.452      2.297
REMARK  Name = 
REMARK  16 active torsions:
REMARK  status: ('A' for Active; 'I' for Inactive)
REMARK    1  A    between atoms: C_1  and  O_2
REMARK    2  A    between atoms: O_2  and  C_3
REMARK    3  A    between atoms: C_6  and  C_7
REMARK    4  A    between atoms: C_7  and  N_8
REMARK    5  A    between atoms: C_9  and  C_11
REMARK    6  A    between atoms: C_11  and  N_12
REMARK    7  A    between atoms: C_11  and  C_29
REMARK    8  A    between atoms: C_13  and  C_15
REMARK    9  A    between atoms: C_19  and  C_21
REMARK   10  A    between atoms: C_21  and  N_22
REMARK   11  A    between atoms: C_21  and  C_23
REMARK   12  A    between atoms: C_23  and  C_24
REMARK   13  A    between atoms: C_24  and  C_25
REMARK   14  A    between atoms: C_24  and  C_26
REMARK   15  A    between atoms: C_29  and  C_30
REMARK   16  A    between atoms: C_29  and  C_31
REMARK                            x       y       z     vdW  Elec       q    Type
REMARK                         _______ _______ _______ _____ _____    ______ ____
ROOT
ATOM      1  N   UNL     1       2.503   6.901  18.433  0.00  0.00    +0.000 N 
ATOM      2  C   UNL     1       1.951   8.060  18.922  0.00  0.00    +0.000 C 
ATOM      3  O   UNL     1       1.839   8.264  20.131  0.00  0.00    +0.000 OA
ATOM      4  H   UNL     1       2.725   6.824  17.449  0.00  0.00    +0.000 HD
ENDROOT
BRANCH   2   5
ATOM      5  C   UNL     1       1.464   9.049  17.862  0.00  0.00    +0.000 C 
ATOM      6  C   UNL     1       2.267  10.356  17.865  0.00  0.00    +0.000 C 
ATOM      7  C   UNL     1       1.932  11.237  19.070  0.00  0.00    +0.000 C 
ATOM      8  N   UNL     1       0.491  11.464  19.159  0.00  0.00    +0.000 N 
ATOM      9  C   UNL     1       0.013  12.768  19.264  0.00  0.00    +0.000 C 
ATOM     10  O   UNL     1       0.778  13.734  19.314  0.00  0.00    +0.000 OA
ATOM     11  C   UNL     1      -0.311  10.244  19.241  0.00  0.00    +0.000 C 
ATOM     12  C   UNL     1      -0.038   9.342  18.036  0.00  0.00    +0.000 C 
BRANCH   9  13
ATOM     13  C   UNL     1      -1.520  12.974  19.406  0.00  0.00    +0.000 C 
BRANCH  13  14
ATOM     14  N   UNL     1      -2.172  12.421  18.196  0.00  0.00    +0.000 NA
ATOM     15  H   UNL     1      -3.107  12.104  18.464  0.00  0.00    +0.000 HD
ATOM     16  H   UNL     1      -1.676  11.577  17.906  0.00  0.00    +0.000 HD
ENDBRANCH  13  14
BRANCH  13  17
ATOM     17  C   UNL     1      -2.095  12.271  20.647  0.00  0.00    +0.000 C 
BRANCH  17  18
ATOM     18  C   UNL     1      -1.364  12.595  21.970  0.00  0.00    +0.000 C 
ATOM     19  C   UNL     1      -1.811  13.914  22.604  0.00  0.00    +0.000 C 
ATOM     20  C   UNL     1      -1.580  11.451  22.965  0.00  0.00    +0.000 C 
ENDBRANCH  17  18
ENDBRANCH  13  17
ENDBRANCH   9  13
ENDBRANCH   2   5
BRANCH   1  21
ATOM     21  C   UNL     1       3.067   5.897  19.339  0.00  0.00    +0.000 C 
BRANCH  21  23
ATOM     22  N   UNL     1       4.850   6.256  17.675  0.00  0.00    +0.000 N 
ATOM     23  C   UNL     1       4.511   5.619  18.851  0.00  0.00    +0.000 C 
ATOM     24  O   UNL     1       5.256   4.819  19.412  0.00  0.00    +0.000 OA
ATOM     25  H   UNL     1       4.168   6.863  17.228  0.00  0.00    +0.000 HD
BRANCH  22  26
ATOM     26  C   UNL     1       6.184   6.176  17.124  0.00  0.00    +0.000 C 
BRANCH  26  30
ATOM     27  C   UNL     1       6.312   3.940  13.421  0.00  0.00    +0.000 A 
ATOM     28  C   UNL     1       5.214   3.824  14.277  0.00  0.00    +0.000 A 
ATOM     29  C   UNL     1       5.166   4.545  15.476  0.00  0.00    +0.000 A 
ATOM     30  C   UNL     1       6.226   5.385  15.842  0.00  0.00    +0.000 A 
ATOM     31  C   UNL     1       7.335   5.476  14.989  0.00  0.00    +0.000 A 
ATOM     32  C   UNL     1       7.376   4.761  13.786  0.00  0.00    +0.000 A 
BRANCH  27  34
ATOM     33  C   UNL     1       4.973   3.078  11.672  0.00  0.00    +0.000 C 
ATOM     34  O   UNL     1       6.254   3.178  12.286  0.00  0.00    +0.000 OA
ENDBRANCH  27  34
ENDBRANCH  26  30
ENDBRANCH  22  26
ENDBRANCH  21  23
BRANCH  21  35
ATOM     35  C   UNL     1       2.202   4.616  19.357  0.00  0.00    +0.000 C 
ATOM     36  C   UNL     1       1.095   4.708  20.415  0.00  0.00    +0.000 C 
ATOM     37  C   UNL     1       1.547   4.359  17.992  0.00  0.00    +0.000 C 
ENDBRANCH  21  35
ENDBRANCH   1  21
TORSDOF 11
ENDMDL
MODEL 9
REMARK VINA RESULT:      -6.2      4.084      7.003
REMARK  Name = 
REMARK  16 active torsions:
REMARK  status: ('A' for Active; 'I' for Inactive)
REMARK    1  A    between atoms: C_1  and  O_2
REMARK    2  A    between atoms: O_2  and  C_3
REMARK    3  A    between atoms: C_6  and  C_7
REMARK    4  A    between atoms: C_7  and  N_8
REMARK    5  A    between atoms: C_9  and  C_11
REMARK    6  A    between atoms: C_11  and  N_12
REMARK    7  A    between atoms: C_11  and  C_29
REMARK    8  A    between atoms: C_13  and  C_15
REMARK    9  A    between atoms: C_19  and  C_21
REMARK   10  A    between atoms: C_21  and  N_22
REMARK   11  A    between atoms: C_21  and  C_23
REMARK   12  A    between atoms: C_23  and  C_24
REMARK   13  A    between atoms: C_24  and  C_25
REMARK   14  A    between atoms: C_24  and  C_26
REMARK   15  A    between atoms: C_29  and  C_30
REMARK   16  A    between atoms: C_29  and  C_31
REMARK                            x       y       z     vdW  Elec       q    Type
REMARK                         _______ _______ _______ _____ _____    ______ ____
ROOT
ATOM      1  N   UNL     1      -1.496  11.818  19.582  0.00  0.00    +0.000 N 
ATOM      2  C   UNL     1      -1.137  11.683  20.901  0.00  0.00    +0.000 C 
ATOM      3  O   UNL     1      -0.681  10.629  21.342  0.00  0.00    +0.000 OA
ATOM      4  H   UNL     1      -1.720  12.733  19.212  0.00  0.00    +0.000 HD
ENDROOT
BRANCH   2   5
ATOM      5  C   UNL     1      -1.375  12.917  21.772  0.00  0.00    +0.000 C 
ATOM      6  C   UNL     1      -1.448  12.576  23.266  0.00  0.00    +0.000 C 
ATOM      7  C   UNL     1      -2.754  11.869  23.633  0.00  0.00    +0.000 C 
ATOM      8  N   UNL     1      -3.907  12.643  23.178  0.00  0.00    +0.000 N 
ATOM      9  C   UNL     1      -4.920  12.952  24.083  0.00  0.00    +0.000 C 
ATOM     10  O   UNL     1      -4.881  12.564  25.253  0.00  0.00    +0.000 OA
ATOM     11  C   UNL     1      -3.921  12.923  21.743  0.00  0.00    +0.000 C 
ATOM     12  C   UNL     1      -2.647  13.663  21.329  0.00  0.00    +0.000 C 
BRANCH   9  13
ATOM     13  C   UNL     1      -6.154  13.734  23.558  0.00  0.00    +0.000 C 
BRANCH  13  14
ATOM     14  N   UNL     1      -7.287  13.478  24.478  0.00  0.00    +0.000 NA
ATOM     15  H   UNL     1      -6.925  12.958  25.280  0.00  0.00    +0.000 HD
ATOM     16  H   UNL     1      -7.948  12.846  24.024  0.00  0.00    +0.000 HD
ENDBRANCH  13  14
BRANCH  13  17
ATOM     17  C   UNL     1      -5.903  15.250  23.488  0.00  0.00    +0.000 C 
BRANCH  17  18
ATOM     18  C   UNL     1      -7.002  16.053  22.757  0.00  0.00    +0.000 C 
ATOM     19  C   UNL     1      -7.263  17.429  23.376  0.00  0.00    +0.000 C 
ATOM     20  C   UNL     1      -6.618  16.221  21.284  0.00  0.00    +0.000 C 
ENDBRANCH  17  18
ENDBRANCH  13  17
ENDBRANCH   9  13
ENDBRANCH   2   5
BRANCH   1  21
ATOM     21  C   UNL     1      -1.264  10.734  18.624  0.00  0.00    +0.000 C 
BRANCH  21  23
ATOM     22  N   UNL     1       0.824   9.468  18.277  0.00  0.00    +0.000 N 
ATOM     23  C   UNL     1       0.257  10.725  18.324  0.00  0.00    +0.000 C 
ATOM     24  O   UNL     1       0.919  11.757  18.235  0.00  0.00    +0.000 OA
ATOM     25  H   UNL     1       0.231   8.654  18.414  0.00  0.00    +0.000 HD
BRANCH  22  26
ATOM     26  C   UNL     1       2.212   9.273  17.924  0.00  0.00    +0.000 C 
BRANCH  26  30
ATOM     27  C   UNL     1       3.617   5.304  18.920  0.00  0.00    +0.000 A 
ATOM     28  C   UNL     1       4.045   5.929  17.747  0.00  0.00    +0.000 A 
ATOM     29  C   UNL     1       3.594   7.213  17.419  0.00  0.00    +0.000 A 
ATOM     30  C   UNL     1       2.696   7.886  18.258  0.00  0.00    +0.000 A 
ATOM     31  C   UNL     1       2.253   7.240  19.421  0.00  0.00    +0.000 A 
ATOM     32  C   UNL     1       2.713   5.960  19.751  0.00  0.00    +0.000 A 
BRANCH  27  34
ATOM     33  C   UNL     1       4.143   3.194  17.988  0.00  0.00    +0.000 C 
ATOM     34  O   UNL     1       4.114   4.045  19.129  0.00  0.00    +0.000 OA
ENDBRANCH  27  34
ENDBRANCH  26  30
ENDBRANCH  22  26
ENDBRANCH  21  23
BRANCH  21  35
ATOM     35  C   UNL     1      -2.109  10.931  17.345  0.00  0.00    +0.000 C 
ATOM     36  C   UNL     1      -2.358   9.594  16.634  0.00  0.00    +0.000 C 
ATOM     37  C   UNL     1      -3.467  11.572  17.660  0.00  0.00    +0.000 C 
ENDBRANCH  21  35
ENDBRANCH   1  21
TORSDOF 11
ENDMDL
