MODEL 1
REMARK VINA RESULT:      -7.2      0.000      0.000
REMARK  Name = 
REMARK  1 active torsions:
REMARK  status: ('A' for Active; 'I' for Inactive)
REMARK    1  A    between atoms: C_1  and  C_2
REMARK                            x       y       z     vdW  Elec       q    Type
REMARK                         _______ _______ _______ _____ _____    ______ ____
ROOT
ATOM      1  C   UNL     1       2.333   4.601  20.755  0.00  0.00    +0.000 C 
ATOM      2  C   UNL     1       2.229   3.172  20.237  0.00  0.00    +0.000 C 
ATOM      3  C   UNL     1       2.377   3.057  18.716  0.00  0.00    +0.000 C 
ATOM      4  N   UNL     1       3.779   3.089  18.271  0.00  0.00    +0.000 N 
ATOM      5  C   UNL     1       4.177   4.286  17.629  0.00  0.00    +0.000 A 
ATOM      6  C   UNL     1       5.178   4.199  16.654  0.00  0.00    +0.000 A 
ATOM      7  C   UNL     1       5.564   5.335  15.947  0.00  0.00    +0.000 A 
ATOM      8  C   UNL     1       4.967   6.547  16.251  0.00  0.00    +0.000 A 
ATOM      9  C   UNL     1       3.999   6.551  17.238  0.00  0.00    +0.000 A 
ATOM     10 CL   UNL     1       3.228   8.014  17.700  0.00  0.00    +0.000 Cl
ATOM     11  N   UNL     1       3.576   5.462  17.911  0.00  0.00    +0.000 NA
ATOM     12  N   UNL     1       4.752   2.652  19.213  0.00  0.00    +0.000 N 
ATOM     13  C   UNL     1       4.465   2.189  20.472  0.00  0.00    +0.000 C 
ATOM     14  O   UNL     1       5.321   1.671  21.178  0.00  0.00    +0.000 OA
ATOM     15  N   UNL     1       3.183   2.314  20.909  0.00  0.00    +0.000 N 
ATOM     16  H   UNL     1       5.682   2.463  18.863  0.00  0.00    +0.000 HD
ATOM     17  H   UNL     1       3.033   2.031  21.867  0.00  0.00    +0.000 HD
ENDROOT
TORSDOF 0
ENDMDL
MODEL 2
REMARK VINA RESULT:      -7.0      3.059      4.746
REMARK  Name = 
REMARK  1 active torsions:
REMARK  status: ('A' for Active; 'I' for Inactive)
REMARK    1  A    between atoms: C_1  and  C_2
REMARK                            x       y       z     vdW  Elec       q    Type
REMARK                         _______ _______ _______ _____ _____    ______ ____
ROOT
ATOM      1  C   UNL     1       6.495   7.144  17.159  0.00  0.00    +0.000 C 
ATOM      2  C   UNL     1       7.274   5.835  17.096  0.00  0.00    +0.000 C 
ATOM      3  C   UNL     1       6.590   4.678  17.832  0.00  0.00    +0.000 C 
ATOM      4  N   UNL     1       5.518   4.049  17.045  0.00  0.00    +0.000 N 
ATOM      5  C   UNL     1       4.204   4.331  17.488  0.00  0.00    +0.000 A 
ATOM      6  C   UNL     1       3.223   3.356  17.273  0.00  0.00    +0.000 A 
ATOM      7  C   UNL     1       1.927   3.554  17.745  0.00  0.00    +0.000 A 
ATOM      8  C   UNL     1       1.625   4.741  18.394  0.00  0.00    +0.000 A 
ATOM      9  C   UNL     1       2.647   5.659  18.550  0.00  0.00    +0.000 A 
ATOM     10 CL   UNL     1       2.356   7.168  19.316  0.00  0.00    +0.000 Cl
ATOM     11  N   UNL     1       3.920   5.478  18.141  0.00  0.00    +0.000 NA
ATOM     12  N   UNL     1       5.627   4.155  15.630  0.00  0.00    +0.000 N 
ATOM     13  C   UNL     1       6.661   4.772  14.972  0.00  0.00    +0.000 C 
ATOM     14  O   UNL     1       6.790   4.689  13.756  0.00  0.00    +0.000 OA
ATOM     15  N   UNL     1       7.552   5.473  15.722  0.00  0.00    +0.000 N 
ATOM     16  H   UNL     1       5.030   3.556  15.074  0.00  0.00    +0.000 HD
ATOM     17  H   UNL     1       8.251   5.973  15.191  0.00  0.00    +0.000 HD
ENDROOT
TORSDOF 0
ENDMDL
MODEL 3
REMARK VINA RESULT:      -6.9      2.832      3.326
REMARK  Name = 
REMARK  1 active torsions:
REMARK  status: ('A' for Active; 'I' for Inactive)
REMARK    1  A    between atoms: C_1  and  C_2
REMARK                            x       y       z     vdW  Elec       q    Type
REMARK                         _______ _______ _______ _____ _____    ______ ____
ROOT
ATOM      1  C   UNL     1       1.916   3.776  17.568  0.00  0.00    +0.000 C 
ATOM      2  C   UNL     1       2.022   3.449  19.053  0.00  0.00    +0.000 C 
ATOM      3  C   UNL     1       3.452   3.150  19.516  0.00  0.00    +0.000 C 
ATOM      4  N   UNL     1       4.246   4.366  19.752  0.00  0.00    +0.000 N 
ATOM      5  C   UNL     1       5.243   4.630  18.782  0.00  0.00    +0.000 A 
ATOM      6  C   UNL     1       6.395   5.304  19.202  0.00  0.00    +0.000 A 
ATOM      7  C   UNL     1       7.435   5.535  18.304  0.00  0.00    +0.000 A 
ATOM      8  C   UNL     1       7.290   5.116  16.991  0.00  0.00    +0.000 A 
ATOM      9  C   UNL     1       6.114   4.472  16.653  0.00  0.00    +0.000 A 
ATOM     10 CL   UNL     1       5.837   3.946  15.043  0.00  0.00    +0.000 Cl
ATOM     11  N   UNL     1       5.108   4.200  17.509  0.00  0.00    +0.000 NA
ATOM     12  N   UNL     1       3.517   5.542  20.086  0.00  0.00    +0.000 N 
ATOM     13  C   UNL     1       2.154   5.601  20.223  0.00  0.00    +0.000 C 
ATOM     14  O   UNL     1       1.595   6.594  20.674  0.00  0.00    +0.000 OA
ATOM     15  N   UNL     1       1.438   4.507  19.851  0.00  0.00    +0.000 N 
ATOM     16  H   UNL     1       4.044   6.322  20.459  0.00  0.00    +0.000 HD
ATOM     17  H   UNL     1       0.435   4.621  19.897  0.00  0.00    +0.000 HD
ENDROOT
TORSDOF 0
ENDMDL
MODEL 4
REMARK VINA RESULT:      -6.7      2.503      4.613
REMARK  Name = 
REMARK  1 active torsions:
REMARK  status: ('A' for Active; 'I' for Inactive)
REMARK    1  A    between atoms: C_1  and  C_2
REMARK                            x       y       z     vdW  Elec       q    Type
REMARK                         _______ _______ _______ _____ _____    ______ ____
ROOT
ATOM      1  C   UNL     1       4.713   6.987  17.229  0.00  0.00    +0.000 C 
ATOM      2  C   UNL     1       6.079   6.324  17.354  0.00  0.00    +0.000 C 
ATOM      3  C   UNL     1       6.260   5.530  18.653  0.00  0.00    +0.000 C 
ATOM      4  N   UNL     1       5.645   4.195  18.601  0.00  0.00    +0.000 N 
ATOM      5  C   UNL     1       4.464   4.050  19.368  0.00  0.00    +0.000 A 
ATOM      6  C   UNL     1       4.185   2.784  19.898  0.00  0.00    +0.000 A 
ATOM      7  C   UNL     1       3.070   2.598  20.712  0.00  0.00    +0.000 A 
ATOM      8  C   UNL     1       2.233   3.675  20.956  0.00  0.00    +0.000 A 
ATOM      9  C   UNL     1       2.570   4.887  20.382  0.00  0.00    +0.000 A 
ATOM     10 CL   UNL     1       1.573   6.267  20.606  0.00  0.00    +0.000 Cl
ATOM     11  N   UNL     1       3.663   5.106  19.623  0.00  0.00    +0.000 NA
ATOM     12  N   UNL     1       5.504   3.613  17.311  0.00  0.00    +0.000 N 
ATOM     13  C   UNL     1       5.924   4.196  16.142  0.00  0.00    +0.000 C 
ATOM     14  O   UNL     1       5.931   3.582  15.082  0.00  0.00    +0.000 OA
ATOM     15  N   UNL     1       6.347   5.487  16.203  0.00  0.00    +0.000 N 
ATOM     16  H   UNL     1       5.288   2.625  17.270  0.00  0.00    +0.000 HD
ATOM     17  H   UNL     1       6.574   5.901  15.310  0.00  0.00    +0.000 HD
ENDROOT
TORSDOF 0
ENDMDL
MODEL 5
REMARK VINA RESULT:      -6.6      3.015      5.119
REMARK  Name = 
REMARK  1 active torsions:
REMARK  status: ('A' for Active; 'I' for Inactive)
REMARK    1  A    between atoms: C_1  and  C_2
REMARK                            x       y       z     vdW  Elec       q    Type
REMARK                         _______ _______ _______ _____ _____    ______ ____
ROOT
ATOM      1  C   UNL     1       6.438   4.020  15.905  0.00  0.00    +0.000 C 
ATOM      2  C   UNL     1       6.446   5.497  15.531  0.00  0.00    +0.000 C 
ATOM      3  C   UNL     1       5.083   6.179  15.694  0.00  0.00    +0.000 C 
ATOM      4  N   UNL     1       4.793   6.559  17.086  0.00  0.00    +0.000 N 
ATOM      5  C   UNL     1       3.815   5.766  17.732  0.00  0.00    +0.000 A 
ATOM      6  C   UNL     1       3.034   6.375  18.721  0.00  0.00    +0.000 A 
ATOM      7  C   UNL     1       2.015   5.660  19.346  0.00  0.00    +0.000 A 
ATOM      8  C   UNL     1       1.815   4.335  18.994  0.00  0.00    +0.000 A 
ATOM      9  C   UNL     1       2.640   3.803  18.020  0.00  0.00    +0.000 A 
ATOM     10 CL   UNL     1       2.483   2.161  17.544  0.00  0.00    +0.000 Cl
ATOM     11  N   UNL     1       3.608   4.481  17.370  0.00  0.00    +0.000 NA
ATOM     12  N   UNL     1       5.918   6.788  17.927  0.00  0.00    +0.000 N 
ATOM     13  C   UNL     1       7.225   6.706  17.519  0.00  0.00    +0.000 C 
ATOM     14  O   UNL     1       8.148   7.075  18.236  0.00  0.00    +0.000 OA
ATOM     15  N   UNL     1       7.465   6.207  16.277  0.00  0.00    +0.000 N 
ATOM     16  H   UNL     1       5.749   7.253  18.810  0.00  0.00    +0.000 HD
ATOM     17  H   UNL     1       8.442   6.092  16.047  0.00  0.00    +0.000 HD
ENDROOT
TORSDOF 0
ENDMDL
MODEL 6
REMARK VINA RESULT:      -6.5      2.399      3.029
REMARK  Name = 
REMARK  1 active torsions:
REMARK  status: ('A' for Active; 'I' for Inactive)
REMARK    1  A    between atoms: C_1  and  C_2
REMARK                            x       y       z     vdW  Elec       q    Type
REMARK                         _______ _______ _______ _____ _____    ______ ____
ROOT
ATOM      1  C   UNL     1       3.576   1.569  18.121  0.00  0.00    +0.000 C 
ATOM      2  C   UNL     1       3.704   2.168  19.517  0.00  0.00    +0.000 C 
ATOM      3  C   UNL     1       4.642   3.378  19.582  0.00  0.00    +0.000 C 
ATOM      4  N   UNL     1       4.004   4.625  19.133  0.00  0.00    +0.000 N 
ATOM      5  C   UNL     1       4.437   5.100  17.872  0.00  0.00    +0.000 A 
ATOM      6  C   UNL     1       4.417   6.482  17.656  0.00  0.00    +0.000 A 
ATOM      7  C   UNL     1       4.891   7.009  16.457  0.00  0.00    +0.000 A 
ATOM      8  C   UNL     1       5.345   6.140  15.478  0.00  0.00    +0.000 A 
ATOM      9  C   UNL     1       5.315   4.787  15.763  0.00  0.00    +0.000 A 
ATOM     10 CL   UNL     1       5.831   3.637  14.598  0.00  0.00    +0.000 Cl
ATOM     11  N   UNL     1       4.901   4.251  16.929  0.00  0.00    +0.000 NA
ATOM     12  N   UNL     1       2.588   4.692  19.259  0.00  0.00    +0.000 N 
ATOM     13  C   UNL     1       1.805   3.697  19.787  0.00  0.00    +0.000 C 
ATOM     14  O   UNL     1       0.616   3.873  20.026  0.00  0.00    +0.000 OA
ATOM     15  N   UNL     1       2.400   2.504  20.050  0.00  0.00    +0.000 N 
ATOM     16  H   UNL     1       2.158   5.603  19.162  0.00  0.00    +0.000 HD
ATOM     17  H   UNL     1       1.772   1.777  20.365  0.00  0.00    +0.000 HD
ENDROOT
TORSDOF 0
ENDMDL
MODEL 7
REMARK VINA RESULT:      -6.5      1.180      1.302
REMARK  Name = 
REMARK  1 active torsions:
REMARK  status: ('A' for Active; 'I' for Inactive)
REMARK    1  A    between atoms: C_1  and  C_2
REMARK                            x       y       z     vdW  Elec       q    Type
REMARK                         _______ _______ _______ _____ _____    ______ ____
ROOT
ATOM      1  C   UNL     1       1.393   5.496  20.697  0.00  0.00    +0.000 C 
ATOM      2  C   UNL     1       0.946   4.077  20.366  0.00  0.00    +0.000 C 
ATOM      3  C   UNL     1       1.237   3.663  18.920  0.00  0.00    +0.000 C 
ATOM      4  N   UNL     1       2.633   3.245  18.711  0.00  0.00    +0.000 N 
ATOM      5  C   UNL     1       3.432   4.163  17.988  0.00  0.00    +0.000 A 
ATOM      6  C   UNL     1       4.475   3.646  17.212  0.00  0.00    +0.000 A 
ATOM      7  C   UNL     1       5.254   4.497  16.431  0.00  0.00    +0.000 A 
ATOM      8  C   UNL     1       4.997   5.858  16.467  0.00  0.00    +0.000 A 
ATOM      9  C   UNL     1       3.959   6.290  17.272  0.00  0.00    +0.000 A 
ATOM     10 CL   UNL     1       3.590   7.962  17.400  0.00  0.00    +0.000 Cl
ATOM     11  N   UNL     1       3.164   5.487  18.007  0.00  0.00    +0.000 NA
ATOM     12  N   UNL     1       3.319   2.739  19.850  0.00  0.00    +0.000 N 
ATOM     13  C   UNL     1       2.761   2.596  21.095  0.00  0.00    +0.000 C 
ATOM     14  O   UNL     1       3.342   2.002  21.996  0.00  0.00    +0.000 OA
ATOM     15  N   UNL     1       1.527   3.130  21.295  0.00  0.00    +0.000 N 
ATOM     16  H   UNL     1       4.191   2.252  19.687  0.00  0.00    +0.000 HD
ATOM     17  H   UNL     1       1.187   3.068  22.244  0.00  0.00    +0.000 HD
ENDROOT
TORSDOF 0
ENDMDL
MODEL 8
REMARK VINA RESULT:      -6.5      3.299      5.340
REMARK  Name = 
REMARK  1 active torsions:
REMARK  status: ('A' for Active; 'I' for Inactive)
REMARK    1  A    between atoms: C_1  and  C_2
REMARK                            x       y       z     vdW  Elec       q    Type
REMARK                         _______ _______ _______ _____ _____    ______ ____
ROOT
ATOM      1  C   UNL     1       7.539   4.322  17.465  0.00  0.00    +0.000 C 
ATOM      2  C   UNL     1       7.046   5.170  16.299  0.00  0.00    +0.000 C 
ATOM      3  C   UNL     1       5.520   5.185  16.153  0.00  0.00    +0.000 C 
ATOM      4  N   UNL     1       4.862   6.120  17.079  0.00  0.00    +0.000 N 
ATOM      5  C   UNL     1       4.165   5.512  18.151  0.00  0.00    +0.000 A 
ATOM      6  C   UNL     1       3.047   6.181  18.661  0.00  0.00    +0.000 A 
ATOM      7  C   UNL     1       2.287   5.599  19.674  0.00  0.00    +0.000 A 
ATOM      8  C   UNL     1       2.679   4.371  20.182  0.00  0.00    +0.000 A 
ATOM      9  C   UNL     1       3.805   3.784  19.635  0.00  0.00    +0.000 A 
ATOM     10 CL   UNL     1       4.379   2.277  20.224  0.00  0.00    +0.000 Cl
ATOM     11  N   UNL     1       4.536   4.304  18.628  0.00  0.00    +0.000 NA
ATOM     12  N   UNL     1       5.643   7.224  17.523  0.00  0.00    +0.000 N 
ATOM     13  C   UNL     1       6.931   7.477  17.127  0.00  0.00    +0.000 C 
ATOM     14  O   UNL     1       7.496   8.528  17.407  0.00  0.00    +0.000 OA
ATOM     15  N   UNL     1       7.562   6.520  16.396  0.00  0.00    +0.000 N 
ATOM     16  H   UNL     1       5.152   7.983  17.979  0.00  0.00    +0.000 HD
ATOM     17  H   UNL     1       8.532   6.714  16.190  0.00  0.00    +0.000 HD
ENDROOT
TORSDOF 0
ENDMDL
MODEL 9
REMARK VINA RESULT:      -6.5      3.398      4.770
REMARK  Name = 
REMARK  1 active torsions:
REMARK  status: ('A' for Active; 'I' for Inactive)
REMARK    1  A    between atoms: C_1  and  C_2
REMARK                            x       y       z     vdW  Elec       q    Type
REMARK                         _______ _______ _______ _____ _____    ______ ____
ROOT
ATOM      1  C   UNL     1       7.490   6.715  17.241  0.00  0.00    +0.000 C 
ATOM      2  C   UNL     1       5.990   6.701  17.507  0.00  0.00    +0.000 C 
ATOM      3  C   UNL     1       5.144   6.505  16.243  0.00  0.00    +0.000 C 
ATOM      4  N   UNL     1       5.058   5.098  15.821  0.00  0.00    +0.000 N 
ATOM      5  C   UNL     1       5.803   4.773  14.662  0.00  0.00    +0.000 A 
ATOM      6  C   UNL     1       5.319   3.744  13.847  0.00  0.00    +0.000 A 
ATOM      7  C   UNL     1       5.978   3.424  12.661  0.00  0.00    +0.000 A 
ATOM      8  C   UNL     1       7.130   4.117  12.329  0.00  0.00    +0.000 A 
ATOM      9  C   UNL     1       7.551   5.107  13.197  0.00  0.00    +0.000 A 
ATOM     10 CL   UNL     1       8.985   5.997  12.879  0.00  0.00    +0.000 Cl
ATOM     11  N   UNL     1       6.913   5.466  14.329  0.00  0.00    +0.000 NA
ATOM     12  N   UNL     1       5.225   4.120  16.842  0.00  0.00    +0.000 N 
ATOM     13  C   UNL     1       5.430   4.405  18.167  0.00  0.00    +0.000 C 
ATOM     14  O   UNL     1       5.400   3.531  19.026  0.00  0.00    +0.000 OA
ATOM     15  N   UNL     1       5.657   5.703  18.502  0.00  0.00    +0.000 N 
ATOM     16  H   UNL     1       4.958   3.170  16.619  0.00  0.00    +0.000 HD
ATOM     17  H   UNL     1       5.878   5.857  19.476  0.00  0.00    +0.000 HD
ENDROOT
TORSDOF 0
ENDMDL
