MODEL 1
REMARK VINA RESULT:      -7.6      0.000      0.000
REMARK  Name = 
REMARK  5 active torsions:
REMARK  status: ('A' for Active; 'I' for Inactive)
REMARK    1  A    between atoms: C_1  and  C_2
REMARK    2  A    between atoms: C_4  and  C_5
REMARK    3  A    between atoms: C_8  and  C_9
REMARK    4  A    between atoms: C_11  and  C_12
REMARK    5  A    between atoms: C_16  and  O_17
REMARK                            x       y       z     vdW  Elec       q    Type
REMARK                         _______ _______ _______ _____ _____    ______ ____
ROOT
ATOM      1  C   UNL     1       4.812   1.573  20.271  0.00  0.00    +0.000 C 
ATOM      2  C   UNL     1       4.119   2.855  19.919  0.00  0.00    +0.000 A 
ATOM      3  C   UNL     1       2.822   3.107  20.353  0.00  0.00    +0.000 A 
ATOM      4  C   UNL     1       2.180   4.306  20.017  0.00  0.00    +0.000 A 
ATOM      5  C   UNL     1       0.767   4.539  20.496  0.00  0.00    +0.000 C 
ATOM      6  C   UNL     1       2.820   5.278  19.238  0.00  0.00    +0.000 A 
ATOM      7  N   UNL     1       2.146   6.408  18.956  0.00  0.00    +0.000 NA
ATOM      8  C   UNL     1       2.711   7.355  18.186  0.00  0.00    +0.000 A 
ATOM      9  C   UNL     1       1.902   8.578  17.875  0.00  0.00    +0.000 C 
ATOM     10  C   UNL     1       3.979   7.215  17.665  0.00  0.00    +0.000 A 
ATOM     11  C   UNL     1       4.710   6.053  17.950  0.00  0.00    +0.000 A 
ATOM     12  C   UNL     1       4.133   5.042  18.766  0.00  0.00    +0.000 A 
ATOM     13  C   UNL     1       4.764   3.821  19.134  0.00  0.00    +0.000 A 
ENDROOT
BRANCH  11  14
ATOM     14  C   UNL     1       6.024   5.888  17.229  0.00  0.00    +0.000 C 
ATOM     15  O   UNL     1       7.011   6.529  17.576  0.00  0.00    +0.000 OA
ATOM     16  N   UNL     1       6.098   4.856  16.303  0.00  0.00    +0.000 N 
ATOM     17  C   UNL     1       7.335   4.388  15.697  0.00  0.00    +0.000 C 
ATOM     18  C   UNL     1       7.078   4.390  14.211  0.00  0.00    +0.000 C 
ATOM     19  C   UNL     1       5.575   4.231  14.145  0.00  0.00    +0.000 C 
ATOM     20  O   UNL     1       5.053   4.855  15.332  0.00  0.00    +0.000 OA
BRANCH  18  21
ATOM     21  O   UNL     1       7.482   5.629  13.627  0.00  0.00    +0.000 OA
ATOM     22  H   UNL     1       6.721   6.238  13.677  0.00  0.00    +0.000 HD
ENDBRANCH  18  21
ENDBRANCH  11  14
TORSDOF 2
ENDMDL
MODEL 2
REMARK VINA RESULT:      -7.3      1.883      4.291
REMARK  Name = 
REMARK  5 active torsions:
REMARK  status: ('A' for Active; 'I' for Inactive)
REMARK    1  A    between atoms: C_1  and  C_2
REMARK    2  A    between atoms: C_4  and  C_5
REMARK    3  A    between atoms: C_8  and  C_9
REMARK    4  A    between atoms: C_11  and  C_12
REMARK    5  A    between atoms: C_16  and  O_17
REMARK                            x       y       z     vdW  Elec       q    Type
REMARK                         _______ _______ _______ _____ _____    ______ ____
ROOT
ATOM      1  C   UNL     1       2.250   9.908  17.606  0.00  0.00    +0.000 C 
ATOM      2  C   UNL     1       2.098   8.724  18.514  0.00  0.00    +0.000 A 
ATOM      3  C   UNL     1       1.391   8.827  19.707  0.00  0.00    +0.000 A 
ATOM      4  C   UNL     1       1.257   7.716  20.551  0.00  0.00    +0.000 A 
ATOM      5  C   UNL     1       0.494   7.870  21.845  0.00  0.00    +0.000 C 
ATOM      6  C   UNL     1       1.828   6.481  20.222  0.00  0.00    +0.000 A 
ATOM      7  N   UNL     1       1.656   5.457  21.077  0.00  0.00    +0.000 NA
ATOM      8  C   UNL     1       2.213   4.260  20.815  0.00  0.00    +0.000 A 
ATOM      9  C   UNL     1       2.019   3.164  21.819  0.00  0.00    +0.000 C 
ATOM     10  C   UNL     1       2.965   4.035  19.683  0.00  0.00    +0.000 A 
ATOM     11  C   UNL     1       3.152   5.081  18.767  0.00  0.00    +0.000 A 
ATOM     12  C   UNL     1       2.569   6.351  19.023  0.00  0.00    +0.000 A 
ATOM     13  C   UNL     1       2.678   7.492  18.180  0.00  0.00    +0.000 A 
ENDROOT
BRANCH  11  14
ATOM     14  C   UNL     1       4.109   4.820  17.631  0.00  0.00    +0.000 C 
ATOM     15  O   UNL     1       3.811   4.040  16.731  0.00  0.00    +0.000 OA
ATOM     16  N   UNL     1       5.229   5.636  17.563  0.00  0.00    +0.000 N 
ATOM     17  C   UNL     1       6.125   5.703  16.418  0.00  0.00    +0.000 C 
ATOM     18  C   UNL     1       7.510   5.508  16.981  0.00  0.00    +0.000 C 
ATOM     19  C   UNL     1       7.347   5.990  18.407  0.00  0.00    +0.000 C 
ATOM     20  O   UNL     1       5.983   5.710  18.772  0.00  0.00    +0.000 OA
BRANCH  18  21
ATOM     21  O   UNL     1       7.881   4.130  16.953  0.00  0.00    +0.000 OA
ATOM     22  H   UNL     1       7.917   3.818  17.876  0.00  0.00    +0.000 HD
ENDBRANCH  18  21
ENDBRANCH  11  14
TORSDOF 2
ENDMDL
MODEL 3
REMARK VINA RESULT:      -6.9      2.830      6.330
REMARK  Name = 
REMARK  5 active torsions:
REMARK  status: ('A' for Active; 'I' for Inactive)
REMARK    1  A    between atoms: C_1  and  C_2
REMARK    2  A    between atoms: C_4  and  C_5
REMARK    3  A    between atoms: C_8  and  C_9
REMARK    4  A    between atoms: C_11  and  C_12
REMARK    5  A    between atoms: C_16  and  O_17
REMARK                            x       y       z     vdW  Elec       q    Type
REMARK                         _______ _______ _______ _____ _____    ______ ____
ROOT
ATOM      1  C   UNL     1       5.068   2.708  11.720  0.00  0.00    +0.000 C 
ATOM      2  C   UNL     1       5.697   3.565  12.779  0.00  0.00    +0.000 A 
ATOM      3  C   UNL     1       6.889   4.239  12.535  0.00  0.00    +0.000 A 
ATOM      4  C   UNL     1       7.471   5.035  13.530  0.00  0.00    +0.000 A 
ATOM      5  C   UNL     1       8.773   5.741  13.234  0.00  0.00    +0.000 C 
ATOM      6  C   UNL     1       6.877   5.172  14.790  0.00  0.00    +0.000 A 
ATOM      7  N   UNL     1       7.489   5.955  15.697  0.00  0.00    +0.000 NA
ATOM      8  C   UNL     1       6.969   6.091  16.931  0.00  0.00    +0.000 A 
ATOM      9  C   UNL     1       7.711   6.947  17.912  0.00  0.00    +0.000 C 
ATOM     10  C   UNL     1       5.810   5.450  17.311  0.00  0.00    +0.000 A 
ATOM     11  C   UNL     1       5.143   4.636  16.383  0.00  0.00    +0.000 A 
ATOM     12  C   UNL     1       5.674   4.482  15.074  0.00  0.00    +0.000 A 
ATOM     13  C   UNL     1       5.098   3.693  14.040  0.00  0.00    +0.000 A 
ENDROOT
BRANCH  11  14
ATOM     14  C   UNL     1       3.971   3.843  16.903  0.00  0.00    +0.000 C 
ATOM     15  O   UNL     1       2.865   3.949  16.381  0.00  0.00    +0.000 OA
ATOM     16  N   UNL     1       4.252   2.868  17.851  0.00  0.00    +0.000 N 
ATOM     17  C   UNL     1       3.308   1.848  18.281  0.00  0.00    +0.000 C 
ATOM     18  C   UNL     1       3.298   1.921  19.787  0.00  0.00    +0.000 C 
ATOM     19  C   UNL     1       4.666   2.494  20.089  0.00  0.00    +0.000 C 
ATOM     20  O   UNL     1       5.008   3.331  18.969  0.00  0.00    +0.000 OA
BRANCH  18  21
ATOM     21  O   UNL     1       2.270   2.799  20.247  0.00  0.00    +0.000 OA
ATOM     22  H   UNL     1       1.928   3.281  19.471  0.00  0.00    +0.000 HD
ENDBRANCH  18  21
ENDBRANCH  11  14
TORSDOF 2
ENDMDL
MODEL 4
REMARK VINA RESULT:      -6.7      2.474      6.332
REMARK  Name = 
REMARK  5 active torsions:
REMARK  status: ('A' for Active; 'I' for Inactive)
REMARK    1  A    between atoms: C_1  and  C_2
REMARK    2  A    between atoms: C_4  and  C_5
REMARK    3  A    between atoms: C_8  and  C_9
REMARK    4  A    between atoms: C_11  and  C_12
REMARK    5  A    between atoms: C_16  and  O_17
REMARK                            x       y       z     vdW  Elec       q    Type
REMARK                         _______ _______ _______ _____ _____    ______ ____
ROOT
ATOM      1  C   UNL     1       5.225   2.509  11.797  0.00  0.00    +0.000 C 
ATOM      2  C   UNL     1       5.845   3.426  12.810  0.00  0.00    +0.000 A 
ATOM      3  C   UNL     1       6.933   4.226  12.475  0.00  0.00    +0.000 A 
ATOM      4  C   UNL     1       7.507   5.078  13.428  0.00  0.00    +0.000 A 
ATOM      5  C   UNL     1       8.695   5.921  13.033  0.00  0.00    +0.000 C 
ATOM      6  C   UNL     1       7.010   5.146  14.735  0.00  0.00    +0.000 A 
ATOM      7  N   UNL     1       7.608   5.988  15.597  0.00  0.00    +0.000 NA
ATOM      8  C   UNL     1       7.182   6.063  16.871  0.00  0.00    +0.000 A 
ATOM      9  C   UNL     1       7.907   6.992  17.797  0.00  0.00    +0.000 C 
ATOM     10  C   UNL     1       6.135   5.300  17.338  0.00  0.00    +0.000 A 
ATOM     11  C   UNL     1       5.484   4.421  16.460  0.00  0.00    +0.000 A 
ATOM     12  C   UNL     1       5.916   4.329  15.110  0.00  0.00    +0.000 A 
ATOM     13  C   UNL     1       5.344   3.485  14.118  0.00  0.00    +0.000 A 
ENDROOT
BRANCH  11  14
ATOM     14  C   UNL     1       4.452   3.504  17.066  0.00  0.00    +0.000 C 
ATOM     15  O   UNL     1       4.419   2.315  16.764  0.00  0.00    +0.000 OA
ATOM     16  N   UNL     1       3.689   4.026  18.102  0.00  0.00    +0.000 N 
ATOM     17  C   UNL     1       2.829   3.232  18.966  0.00  0.00    +0.000 C 
ATOM     18  C   UNL     1       1.488   3.921  18.939  0.00  0.00    +0.000 C 
ATOM     19  C   UNL     1       1.868   5.348  18.609  0.00  0.00    +0.000 C 
ATOM     20  O   UNL     1       3.060   5.271  17.805  0.00  0.00    +0.000 OA
BRANCH  18  21
ATOM     21  O   UNL     1       0.654   3.371  17.919  0.00  0.00    +0.000 OA
ATOM     22  H   UNL     1       1.238   3.005  17.229  0.00  0.00    +0.000 HD
ENDBRANCH  18  21
ENDBRANCH  11  14
TORSDOF 2
ENDMDL
MODEL 5
REMARK VINA RESULT:      -6.4      8.185     10.524
REMARK  Name = 
REMARK  5 active torsions:
REMARK  status: ('A' for Active; 'I' for Inactive)
REMARK    1  A    between atoms: C_1  and  C_2
REMARK    2  A    between atoms: C_4  and  C_5
REMARK    3  A    between atoms: C_8  and  C_9
REMARK    4  A    between atoms: C_11  and  C_12
REMARK    5  A    between atoms: C_16  and  O_17
REMARK                            x       y       z     vdW  Elec       q    Type
REMARK                         _______ _______ _______ _____ _____    ______ ____
ROOT
ATOM      1  C   UNL     1      -4.690  13.340  21.962  0.00  0.00    +0.000 C 
ATOM      2  C   UNL     1      -4.628  12.801  20.564  0.00  0.00    +0.000 A 
ATOM      3  C   UNL     1      -5.766  12.764  19.764  0.00  0.00    +0.000 A 
ATOM      4  C   UNL     1      -5.700  12.255  18.459  0.00  0.00    +0.000 A 
ATOM      5  C   UNL     1      -6.958  12.220  17.625  0.00  0.00    +0.000 C 
ATOM      6  C   UNL     1      -4.499  11.771  17.929  0.00  0.00    +0.000 A 
ATOM      7  N   UNL     1      -4.508  11.300  16.668  0.00  0.00    +0.000 NA
ATOM      8  C   UNL     1      -3.382  10.797  16.129  0.00  0.00    +0.000 A 
ATOM      9  C   UNL     1      -3.457  10.254  14.734  0.00  0.00    +0.000 C 
ATOM     10  C   UNL     1      -2.196  10.744  16.828  0.00  0.00    +0.000 A 
ATOM     11  C   UNL     1      -2.153  11.238  18.140  0.00  0.00    +0.000 A 
ATOM     12  C   UNL     1      -3.329  11.777  18.727  0.00  0.00    +0.000 A 
ATOM     13  C   UNL     1      -3.423  12.312  20.042  0.00  0.00    +0.000 A 
ENDROOT
BRANCH  11  14
ATOM     14  C   UNL     1      -0.872  11.012  18.904  0.00  0.00    +0.000 C 
ATOM     15  O   UNL     1      -0.724  10.007  19.592  0.00  0.00    +0.000 OA
ATOM     16  N   UNL     1       0.173  11.886  18.634  0.00  0.00    +0.000 N 
ATOM     17  C   UNL     1       1.544  11.683  19.077  0.00  0.00    +0.000 C 
ATOM     18  C   UNL     1       1.939  12.970  19.756  0.00  0.00    +0.000 C 
ATOM     19  C   UNL     1       1.032  13.979  19.086  0.00  0.00    +0.000 C 
ATOM     20  O   UNL     1      -0.169  13.267  18.734  0.00  0.00    +0.000 OA
BRANCH  18  21
ATOM     21  O   UNL     1       1.676  12.907  21.159  0.00  0.00    +0.000 OA
ATOM     22  H   UNL     1       2.118  12.109  21.503  0.00  0.00    +0.000 HD
ENDBRANCH  18  21
ENDBRANCH  11  14
TORSDOF 2
ENDMDL
MODEL 6
REMARK VINA RESULT:      -6.3      8.874     11.273
REMARK  Name = 
REMARK  5 active torsions:
REMARK  status: ('A' for Active; 'I' for Inactive)
REMARK    1  A    between atoms: C_1  and  C_2
REMARK    2  A    between atoms: C_4  and  C_5
REMARK    3  A    between atoms: C_8  and  C_9
REMARK    4  A    between atoms: C_11  and  C_12
REMARK    5  A    between atoms: C_16  and  O_17
REMARK                            x       y       z     vdW  Elec       q    Type
REMARK                         _______ _______ _______ _____ _____    ______ ____
ROOT
ATOM      1  C   UNL     1       9.076  10.100  18.773  0.00  0.00    +0.000 C 
ATOM      2  C   UNL     1       9.471  11.500  18.406  0.00  0.00    +0.000 A 
ATOM      3  C   UNL     1      10.663  11.750  17.734  0.00  0.00    +0.000 A 
ATOM      4  C   UNL     1      11.026  13.062  17.399  0.00  0.00    +0.000 A 
ATOM      5  C   UNL     1      12.333  13.297  16.681  0.00  0.00    +0.000 C 
ATOM      6  C   UNL     1      10.208  14.148  17.729  0.00  0.00    +0.000 A 
ATOM      7  N   UNL     1      10.617  15.380  17.373  0.00  0.00    +0.000 NA
ATOM      8  C   UNL     1       9.876  16.456  17.697  0.00  0.00    +0.000 A 
ATOM      9  C   UNL     1      10.397  17.806  17.306  0.00  0.00    +0.000 C 
ATOM     10  C   UNL     1       8.692  16.346  18.391  0.00  0.00    +0.000 A 
ATOM     11  C   UNL     1       8.234  15.075  18.766  0.00  0.00    +0.000 A 
ATOM     12  C   UNL     1       8.998  13.925  18.430  0.00  0.00    +0.000 A 
ATOM     13  C   UNL     1       8.649  12.583  18.746  0.00  0.00    +0.000 A 
ENDROOT
BRANCH  11  14
ATOM     14  C   UNL     1       7.016  15.032  19.654  0.00  0.00    +0.000 C 
ATOM     15  O   UNL     1       7.115  14.711  20.835  0.00  0.00    +0.000 OA
ATOM     16  N   UNL     1       5.842  15.550  19.124  0.00  0.00    +0.000 N 
ATOM     17  C   UNL     1       4.642  15.820  19.900  0.00  0.00    +0.000 C 
ATOM     18  C   UNL     1       3.522  15.136  19.159  0.00  0.00    +0.000 C 
ATOM     19  C   UNL     1       4.051  15.101  17.741  0.00  0.00    +0.000 C 
ATOM     20  O   UNL     1       5.484  15.019  17.849  0.00  0.00    +0.000 OA
BRANCH  18  21
ATOM     21  O   UNL     1       3.317  13.813  19.655  0.00  0.00    +0.000 OA
ATOM     22  H   UNL     1       2.469  13.494  19.293  0.00  0.00    +0.000 HD
ENDBRANCH  18  21
ENDBRANCH  11  14
TORSDOF 2
ENDMDL
MODEL 7
REMARK VINA RESULT:      -6.2      2.518      5.047
REMARK  Name = 
REMARK  5 active torsions:
REMARK  status: ('A' for Active; 'I' for Inactive)
REMARK    1  A    between atoms: C_1  and  C_2
REMARK    2  A    between atoms: C_4  and  C_5
REMARK    3  A    between atoms: C_8  and  C_9
REMARK    4  A    between atoms: C_11  and  C_12
REMARK    5  A    between atoms: C_16  and  O_17
REMARK                            x       y       z     vdW  Elec       q    Type
REMARK                         _______ _______ _______ _____ _____    ______ ____
ROOT
ATOM      1  C   UNL     1       0.368   2.918  18.675  0.00  0.00    +0.000 C 
ATOM      2  C   UNL     1       1.816   3.268  18.857  0.00  0.00    +0.000 A 
ATOM      3  C   UNL     1       2.679   2.404  19.523  0.00  0.00    +0.000 A 
ATOM      4  C   UNL     1       4.029   2.740  19.691  0.00  0.00    +0.000 A 
ATOM      5  C   UNL     1       4.933   1.784  20.430  0.00  0.00    +0.000 C 
ATOM      6  C   UNL     1       4.543   3.946  19.201  0.00  0.00    +0.000 A 
ATOM      7  N   UNL     1       5.850   4.203  19.395  0.00  0.00    +0.000 NA
ATOM      8  C   UNL     1       6.380   5.363  18.967  0.00  0.00    +0.000 A 
ATOM      9  C   UNL     1       7.833   5.612  19.241  0.00  0.00    +0.000 C 
ATOM     10  C   UNL     1       5.625   6.319  18.323  0.00  0.00    +0.000 A 
ATOM     11  C   UNL     1       4.262   6.075  18.096  0.00  0.00    +0.000 A 
ATOM     12  C   UNL     1       3.684   4.854  18.536  0.00  0.00    +0.000 A 
ATOM     13  C   UNL     1       2.322   4.481  18.369  0.00  0.00    +0.000 A 
ENDROOT
BRANCH  11  14
ATOM     14  C   UNL     1       3.458   7.217  17.528  0.00  0.00    +0.000 C 
ATOM     15  O   UNL     1       3.735   7.690  16.429  0.00  0.00    +0.000 OA
ATOM     16  N   UNL     1       2.301   7.562  18.212  0.00  0.00    +0.000 N 
ATOM     17  C   UNL     1       1.278   8.456  17.691  0.00  0.00    +0.000 C 
ATOM     18  C   UNL     1       1.053   9.481  18.774  0.00  0.00    +0.000 C 
ATOM     19  C   UNL     1       1.467   8.727  20.020  0.00  0.00    +0.000 C 
ATOM     20  O   UNL     1       2.485   7.797  19.607  0.00  0.00    +0.000 OA
BRANCH  18  21
ATOM     21  O   UNL     1       1.887  10.623  18.575  0.00  0.00    +0.000 OA
ATOM     22  H   UNL     1       2.247  10.878  19.445  0.00  0.00    +0.000 HD
ENDBRANCH  18  21
ENDBRANCH  11  14
TORSDOF 2
ENDMDL
MODEL 8
REMARK VINA RESULT:      -6.1      9.200     11.534
REMARK  Name = 
REMARK  5 active torsions:
REMARK  status: ('A' for Active; 'I' for Inactive)
REMARK    1  A    between atoms: C_1  and  C_2
REMARK    2  A    between atoms: C_4  and  C_5
REMARK    3  A    between atoms: C_8  and  C_9
REMARK    4  A    between atoms: C_11  and  C_12
REMARK    5  A    between atoms: C_16  and  O_17
REMARK                            x       y       z     vdW  Elec       q    Type
REMARK                         _______ _______ _______ _____ _____    ______ ____
ROOT
ATOM      1  C   UNL     1       8.803   9.757  18.418  0.00  0.00    +0.000 C 
ATOM      2  C   UNL     1       9.530  11.050  18.649  0.00  0.00    +0.000 A 
ATOM      3  C   UNL     1      10.500  11.491  17.755  0.00  0.00    +0.000 A 
ATOM      4  C   UNL     1      11.176  12.697  17.980  0.00  0.00    +0.000 A 
ATOM      5  C   UNL     1      12.233  13.137  16.996  0.00  0.00    +0.000 C 
ATOM      6  C   UNL     1      10.898  13.487  19.102  0.00  0.00    +0.000 A 
ATOM      7  N   UNL     1      11.583  14.636  19.253  0.00  0.00    +0.000 NA
ATOM      8  C   UNL     1      11.368  15.411  20.332  0.00  0.00    +0.000 A 
ATOM      9  C   UNL     1      12.184  16.662  20.467  0.00  0.00    +0.000 C 
ATOM     10  C   UNL     1      10.457  15.071  21.308  0.00  0.00    +0.000 A 
ATOM     11  C   UNL     1       9.721  13.885  21.173  0.00  0.00    +0.000 A 
ATOM     12  C   UNL     1       9.928  13.054  20.038  0.00  0.00    +0.000 A 
ATOM     13  C   UNL     1       9.249  11.832  19.778  0.00  0.00    +0.000 A 
ENDROOT
BRANCH  11  14
ATOM     14  C   UNL     1       8.856  13.491  22.343  0.00  0.00    +0.000 C 
ATOM     15  O   UNL     1       9.222  12.616  23.123  0.00  0.00    +0.000 OA
ATOM     16  N   UNL     1       7.746  14.287  22.591  0.00  0.00    +0.000 N 
ATOM     17  C   UNL     1       6.943  14.219  23.802  0.00  0.00    +0.000 C 
ATOM     18  C   UNL     1       5.518  14.080  23.330  0.00  0.00    +0.000 C 
ATOM     19  C   UNL     1       5.570  14.720  21.960  0.00  0.00    +0.000 C 
ATOM     20  O   UNL     1       6.901  14.492  21.460  0.00  0.00    +0.000 OA
BRANCH  18  21
ATOM     21  O   UNL     1       5.147  12.704  23.232  0.00  0.00    +0.000 OA
ATOM     22  H   UNL     1       4.705  12.460  24.067  0.00  0.00    +0.000 HD
ENDBRANCH  18  21
ENDBRANCH  11  14
TORSDOF 2
ENDMDL
MODEL 9
REMARK VINA RESULT:      -6.1      9.186     12.631
REMARK  Name = 
REMARK  5 active torsions:
REMARK  status: ('A' for Active; 'I' for Inactive)
REMARK    1  A    between atoms: C_1  and  C_2
REMARK    2  A    between atoms: C_4  and  C_5
REMARK    3  A    between atoms: C_8  and  C_9
REMARK    4  A    between atoms: C_11  and  C_12
REMARK    5  A    between atoms: C_16  and  O_17
REMARK                            x       y       z     vdW  Elec       q    Type
REMARK                         _______ _______ _______ _____ _____    ______ ____
ROOT
ATOM      1  C   UNL     1      -0.093  10.102  19.247  0.00  0.00    +0.000 C 
ATOM      2  C   UNL     1      -1.387  10.574  18.653  0.00  0.00    +0.000 A 
ATOM      3  C   UNL     1      -1.684  10.339  17.314  0.00  0.00    +0.000 A 
ATOM      4  C   UNL     1      -2.894  10.786  16.767  0.00  0.00    +0.000 A 
ATOM      5  C   UNL     1      -3.177  10.524  15.307  0.00  0.00    +0.000 C 
ATOM      6  C   UNL     1      -3.830  11.479  17.544  0.00  0.00    +0.000 A 
ATOM      7  N   UNL     1      -4.972  11.877  16.953  0.00  0.00    +0.000 NA
ATOM      8  C   UNL     1      -5.886  12.572  17.655  0.00  0.00    +0.000 A 
ATOM      9  C   UNL     1      -7.125  13.019  16.938  0.00  0.00    +0.000 C 
ATOM     10  C   UNL     1      -5.698  12.899  18.980  0.00  0.00    +0.000 A 
ATOM     11  C   UNL     1      -4.523  12.489  19.625  0.00  0.00    +0.000 A 
ATOM     12  C   UNL     1      -3.546  11.750  18.904  0.00  0.00    +0.000 A 
ATOM     13  C   UNL     1      -2.317  11.273  19.435  0.00  0.00    +0.000 A 
ENDROOT
BRANCH  11  14
ATOM     14  C   UNL     1      -4.305  13.008  21.024  0.00  0.00    +0.000 C 
ATOM     15  O   UNL     1      -3.191  13.373  21.388  0.00  0.00    +0.000 OA
ATOM     16  N   UNL     1      -5.443  13.224  21.789  0.00  0.00    +0.000 N 
ATOM     17  C   UNL     1      -5.454  13.945  23.053  0.00  0.00    +0.000 C 
ATOM     18  C   UNL     1      -6.163  13.037  24.025  0.00  0.00    +0.000 C 
ATOM     19  C   UNL     1      -7.037  12.206  23.110  0.00  0.00    +0.000 C 
ATOM     20  O   UNL     1      -6.330  12.110  21.860  0.00  0.00    +0.000 OA
BRANCH  18  21
ATOM     21  O   UNL     1      -5.231  12.209  24.722  0.00  0.00    +0.000 OA
ATOM     22  H   UNL     1      -5.745  11.570  25.249  0.00  0.00    +0.000 HD
ENDBRANCH  18  21
ENDBRANCH  11  14
TORSDOF 2
ENDMDL
