MODEL 1
REMARK VINA RESULT:      -8.4      0.000      0.000
REMARK  Name = 
REMARK  8 active torsions:
REMARK  status: ('A' for Active; 'I' for Inactive)
REMARK    1  A    between atoms: C_2  and  C_3
REMARK    2  A    between atoms: C_3  and  O_4
REMARK    3  A    between atoms: O_4  and  C_5
REMARK    4  A    between atoms: C_7  and  C_8
REMARK    5  A    between atoms: C_21  and  O_22
REMARK    6  A    between atoms: O_22  and  C_23
REMARK    7  A    between atoms: C_24  and  O_25
REMARK    8  A    between atoms: O_25  and  C_26
REMARK                            x       y       z     vdW  Elec       q    Type
REMARK                         _______ _______ _______ _____ _____    ______ ____
ROOT
ATOM      1  C   UNL     1       3.082   5.387  19.554  0.00  0.00    +0.000 A 
ATOM      2  N   UNL     1       2.370   6.398  20.126  0.00  0.00    +0.000 NA
ATOM      3  C   UNL     1       2.293   7.574  19.479  0.00  0.00    +0.000 A 
ATOM      4  C   UNL     1       2.986   7.785  18.296  0.00  0.00    +0.000 A 
ATOM      5  C   UNL     1       3.736   6.755  17.721  0.00  0.00    +0.000 A 
ATOM      6  C   UNL     1       4.414   7.009  16.525  0.00  0.00    +0.000 A 
ATOM      7  C   UNL     1       5.161   6.016  15.898  0.00  0.00    +0.000 A 
ATOM      8  C   UNL     1       5.223   4.730  16.436  0.00  0.00    +0.000 A 
ATOM      9  C   UNL     1       4.521   4.447  17.635  0.00  0.00    +0.000 A 
ATOM     10  C   UNL     1       3.792   5.483  18.325  0.00  0.00    +0.000 A 
ENDROOT
BRANCH   3  11
ATOM     11  C   UNL     1       1.388   8.588  20.064  0.00  0.00    +0.000 A 
ATOM     12  C   UNL     1       0.812   9.602  19.249  0.00  0.00    +0.000 A 
ATOM     13  C   UNL     1      -0.081  10.547  19.759  0.00  0.00    +0.000 A 
ATOM     14  C   UNL     1      -0.394  10.471  21.094  0.00  0.00    +0.000 A 
ATOM     15  C   UNL     1       0.149   9.507  21.908  0.00  0.00    +0.000 A 
ATOM     16  C   UNL     1       1.033   8.557  21.428  0.00  0.00    +0.000 A 
ATOM     17  O   UNL     1      -0.294   9.610  23.191  0.00  0.00    +0.000 OA
ATOM     18  C   UNL     1      -1.139  10.775  23.095  0.00  0.00    +0.000 C 
ATOM     19  O   UNL     1      -1.249  11.295  21.755  0.00  0.00    +0.000 OA
ENDBRANCH   3  11
BRANCH   8  20
ATOM     20  O   UNL     1       5.920   3.718  15.831  0.00  0.00    +0.000 OA
ATOM     21  C   UNL     1       6.269   3.841  14.458  0.00  0.00    +0.000 C 
ENDBRANCH   8  20
BRANCH   9  22
ATOM     22  O   UNL     1       4.385   3.193  18.188  0.00  0.00    +0.000 OA
ATOM     23  C   UNL     1       3.466   2.275  17.617  0.00  0.00    +0.000 C 
ENDBRANCH   9  22
BRANCH   1  24
ATOM     24  O   UNL     1       3.162   4.217  20.286  0.00  0.00    +0.000 OA
BRANCH  24  25
ATOM     25  C   UNL     1       2.140   4.130  21.280  0.00  0.00    +0.000 C 
BRANCH  25  27
ATOM     26  C   UNL     1       0.650   2.808  19.741  0.00  0.00    +0.000 C 
ATOM     27  C   UNL     1       1.244   2.978  20.928  0.00  0.00    +0.000 C 
ENDBRANCH  25  27
ENDBRANCH  24  25
ENDBRANCH   1  24
TORSDOF 6
ENDMDL
MODEL 2
REMARK VINA RESULT:      -8.1      0.699      1.438
REMARK  Name = 
REMARK  8 active torsions:
REMARK  status: ('A' for Active; 'I' for Inactive)
REMARK    1  A    between atoms: C_2  and  C_3
REMARK    2  A    between atoms: C_3  and  O_4
REMARK    3  A    between atoms: O_4  and  C_5
REMARK    4  A    between atoms: C_7  and  C_8
REMARK    5  A    between atoms: C_21  and  O_22
REMARK    6  A    between atoms: O_22  and  C_23
REMARK    7  A    between atoms: C_24  and  O_25
REMARK    8  A    between atoms: O_25  and  C_26
REMARK                            x       y       z     vdW  Elec       q    Type
REMARK                         _______ _______ _______ _____ _____    ______ ____
ROOT
ATOM      1  C   UNL     1       3.075   5.490  19.563  0.00  0.00    +0.000 A 
ATOM      2  N   UNL     1       2.318   6.491  20.093  0.00  0.00    +0.000 NA
ATOM      3  C   UNL     1       2.207   7.643  19.409  0.00  0.00    +0.000 A 
ATOM      4  C   UNL     1       2.910   7.845  18.231  0.00  0.00    +0.000 A 
ATOM      5  C   UNL     1       3.707   6.827  17.699  0.00  0.00    +0.000 A 
ATOM      6  C   UNL     1       4.394   7.070  16.506  0.00  0.00    +0.000 A 
ATOM      7  C   UNL     1       5.187   6.088  15.921  0.00  0.00    +0.000 A 
ATOM      8  C   UNL     1       5.289   4.821  16.499  0.00  0.00    +0.000 A 
ATOM      9  C   UNL     1       4.578   4.549  17.695  0.00  0.00    +0.000 A 
ATOM     10  C   UNL     1       3.800   5.576  18.343  0.00  0.00    +0.000 A 
ENDROOT
BRANCH   3  11
ATOM     11  C   UNL     1       1.255   8.639  19.949  0.00  0.00    +0.000 A 
ATOM     12  C   UNL     1       0.793   8.548  21.291  0.00  0.00    +0.000 A 
ATOM     13  C   UNL     1      -0.070   9.496  21.846  0.00  0.00    +0.000 A 
ATOM     14  C   UNL     1      -0.469  10.538  21.046  0.00  0.00    +0.000 A 
ATOM     15  C   UNL     1      -0.045  10.652  19.744  0.00  0.00    +0.000 A 
ATOM     16  C   UNL     1       0.813   9.729  19.171  0.00  0.00    +0.000 A 
ATOM     17  O   UNL     1      -0.557  11.754  19.132  0.00  0.00    +0.000 OA
ATOM     18  C   UNL     1      -1.385  12.291  20.186  0.00  0.00    +0.000 C 
ATOM     19  O   UNL     1      -1.293  11.552  21.420  0.00  0.00    +0.000 OA
ENDBRANCH   3  11
BRANCH   8  20
ATOM     20  O   UNL     1       6.033   3.819  15.935  0.00  0.00    +0.000 OA
ATOM     21  C   UNL     1       6.290   3.848  14.538  0.00  0.00    +0.000 C 
ENDBRANCH   8  20
BRANCH   9  22
ATOM     22  O   UNL     1       4.481   3.307  18.284  0.00  0.00    +0.000 OA
ATOM     23  C   UNL     1       3.622   2.331  17.715  0.00  0.00    +0.000 C 
ENDBRANCH   9  22
BRANCH   1  24
ATOM     24  O   UNL     1       3.187   4.347  20.331  0.00  0.00    +0.000 OA
BRANCH  24  25
ATOM     25  C   UNL     1       2.065   4.165  21.196  0.00  0.00    +0.000 C 
BRANCH  25  27
ATOM     26  C   UNL     1       0.631   2.866  19.585  0.00  0.00    +0.000 C 
ATOM     27  C   UNL     1       1.312   2.950  20.734  0.00  0.00    +0.000 C 
ENDBRANCH  25  27
ENDBRANCH  24  25
ENDBRANCH   1  24
TORSDOF 6
ENDMDL
MODEL 3
REMARK VINA RESULT:      -7.6      1.064      1.183
REMARK  Name = 
REMARK  8 active torsions:
REMARK  status: ('A' for Active; 'I' for Inactive)
REMARK    1  A    between atoms: C_2  and  C_3
REMARK    2  A    between atoms: C_3  and  O_4
REMARK    3  A    between atoms: O_4  and  C_5
REMARK    4  A    between atoms: C_7  and  C_8
REMARK    5  A    between atoms: C_21  and  O_22
REMARK    6  A    between atoms: O_22  and  C_23
REMARK    7  A    between atoms: C_24  and  O_25
REMARK    8  A    between atoms: O_25  and  C_26
REMARK                            x       y       z     vdW  Elec       q    Type
REMARK                         _______ _______ _______ _____ _____    ______ ____
ROOT
ATOM      1  C   UNL     1       2.482   6.127  19.675  0.00  0.00    +0.000 A 
ATOM      2  N   UNL     1       1.783   7.195  20.152  0.00  0.00    +0.000 NA
ATOM      3  C   UNL     1       1.813   8.345  19.457  0.00  0.00    +0.000 A 
ATOM      4  C   UNL     1       2.601   8.473  18.323  0.00  0.00    +0.000 A 
ATOM      5  C   UNL     1       3.339   7.385  17.846  0.00  0.00    +0.000 A 
ATOM      6  C   UNL     1       4.115   7.556  16.696  0.00  0.00    +0.000 A 
ATOM      7  C   UNL     1       4.854   6.504  16.165  0.00  0.00    +0.000 A 
ATOM      8  C   UNL     1       4.811   5.240  16.755  0.00  0.00    +0.000 A 
ATOM      9  C   UNL     1       4.009   5.041  17.907  0.00  0.00    +0.000 A 
ATOM     10  C   UNL     1       3.285   6.138  18.500  0.00  0.00    +0.000 A 
ENDROOT
BRANCH   3  11
ATOM     11  C   UNL     1       0.920   9.424  19.932  0.00  0.00    +0.000 A 
ATOM     12  C   UNL     1       0.124  10.164  19.015  0.00  0.00    +0.000 A 
ATOM     13  C   UNL     1      -0.763  11.159  19.433  0.00  0.00    +0.000 A 
ATOM     14  C   UNL     1      -0.847  11.409  20.781  0.00  0.00    +0.000 A 
ATOM     15  C   UNL     1      -0.088  10.716  21.692  0.00  0.00    +0.000 A 
ATOM     16  C   UNL     1       0.795   9.723  21.304  0.00  0.00    +0.000 A 
ATOM     17  O   UNL     1      -0.326  11.119  22.970  0.00  0.00    +0.000 OA
ATOM     18  C   UNL     1      -1.286  12.174  22.749  0.00  0.00    +0.000 C 
ATOM     19  O   UNL     1      -1.660  12.328  21.365  0.00  0.00    +0.000 OA
ENDBRANCH   3  11
BRANCH   8  20
ATOM     20  O   UNL     1       5.500   4.172  16.243  0.00  0.00    +0.000 OA
ATOM     21  C   UNL     1       6.860   4.339  15.867  0.00  0.00    +0.000 C 
ENDBRANCH   8  20
BRANCH   9  22
ATOM     22  O   UNL     1       3.770   3.819  18.495  0.00  0.00    +0.000 OA
ATOM     23  C   UNL     1       4.755   3.250  19.345  0.00  0.00    +0.000 C 
ENDBRANCH   9  22
BRANCH   1  24
ATOM     24  O   UNL     1       2.448   4.986  20.454  0.00  0.00    +0.000 OA
BRANCH  24  25
ATOM     25  C   UNL     1       1.128   4.457  20.579  0.00  0.00    +0.000 C 
BRANCH  25  27
ATOM     26  C   UNL     1       1.894   2.398  21.809  0.00  0.00    +0.000 C 
ATOM     27  C   UNL     1       1.239   2.975  20.794  0.00  0.00    +0.000 C 
ENDBRANCH  25  27
ENDBRANCH  24  25
ENDBRANCH   1  24
TORSDOF 6
ENDMDL
MODEL 4
REMARK VINA RESULT:      -7.5      1.945      8.581
REMARK  Name = 
REMARK  8 active torsions:
REMARK  status: ('A' for Active; 'I' for Inactive)
REMARK    1  A    between atoms: C_2  and  C_3
REMARK    2  A    between atoms: C_3  and  O_4
REMARK    3  A    between atoms: O_4  and  C_5
REMARK    4  A    between atoms: C_7  and  C_8
REMARK    5  A    between atoms: C_21  and  O_22
REMARK    6  A    between atoms: O_22  and  C_23
REMARK    7  A    between atoms: C_24  and  O_25
REMARK    8  A    between atoms: O_25  and  C_26
REMARK                            x       y       z     vdW  Elec       q    Type
REMARK                         _______ _______ _______ _____ _____    ______ ____
ROOT
ATOM      1  C   UNL     1       0.898  10.084  19.397  0.00  0.00    +0.000 A 
ATOM      2  N   UNL     1       1.631   8.990  19.046  0.00  0.00    +0.000 NA
ATOM      3  C   UNL     1       1.730   7.975  19.923  0.00  0.00    +0.000 A 
ATOM      4  C   UNL     1       1.171   8.068  21.188  0.00  0.00    +0.000 A 
ATOM      5  C   UNL     1       0.439   9.200  21.558  0.00  0.00    +0.000 A 
ATOM      6  C   UNL     1      -0.114   9.250  22.841  0.00  0.00    +0.000 A 
ATOM      7  C   UNL     1      -0.866  10.343  23.258  0.00  0.00    +0.000 A 
ATOM      8  C   UNL     1      -1.115  11.406  22.387  0.00  0.00    +0.000 A 
ATOM      9  C   UNL     1      -0.583  11.361  21.073  0.00  0.00    +0.000 A 
ATOM     10  C   UNL     1       0.247  10.261  20.650  0.00  0.00    +0.000 A 
ENDROOT
BRANCH   3  11
ATOM     11  C   UNL     1       2.407   6.752  19.438  0.00  0.00    +0.000 A 
ATOM     12  C   UNL     1       3.108   6.752  18.201  0.00  0.00    +0.000 A 
ATOM     13  C   UNL     1       3.795   5.629  17.736  0.00  0.00    +0.000 A 
ATOM     14  C   UNL     1       3.774   4.501  18.518  0.00  0.00    +0.000 A 
ATOM     15  C   UNL     1       3.100   4.466  19.716  0.00  0.00    +0.000 A 
ATOM     16  C   UNL     1       2.416   5.567  20.201  0.00  0.00    +0.000 A 
ATOM     17  O   UNL     1       3.207   3.257  20.329  0.00  0.00    +0.000 OA
ATOM     18  C   UNL     1       3.985   2.526  19.358  0.00  0.00    +0.000 C 
ATOM     19  O   UNL     1       4.393   3.326  18.230  0.00  0.00    +0.000 OA
ENDBRANCH   3  11
BRANCH   8  20
ATOM     20  O   UNL     1      -1.877  12.483  22.750  0.00  0.00    +0.000 OA
ATOM     21  C   UNL     1      -3.137  12.264  23.371  0.00  0.00    +0.000 C 
ENDBRANCH   8  20
BRANCH   9  22
ATOM     22  O   UNL     1      -0.871  12.270  20.080  0.00  0.00    +0.000 OA
ATOM     23  C   UNL     1      -2.151  12.251  19.467  0.00  0.00    +0.000 C 
ENDBRANCH   9  22
BRANCH   1  24
ATOM     24  O   UNL     1       0.868  11.111  18.474  0.00  0.00    +0.000 OA
BRANCH  24  25
ATOM     25  C   UNL     1       2.166  11.653  18.225  0.00  0.00    +0.000 C 
BRANCH  25  27
ATOM     26  C   UNL     1       3.133  13.976  18.309  0.00  0.00    +0.000 C 
ATOM     27  C   UNL     1       2.114  13.129  18.499  0.00  0.00    +0.000 C 
ENDBRANCH  25  27
ENDBRANCH  24  25
ENDBRANCH   1  24
TORSDOF 6
ENDMDL
MODEL 5
REMARK VINA RESULT:      -7.5      1.907      8.635
REMARK  Name = 
REMARK  8 active torsions:
REMARK  status: ('A' for Active; 'I' for Inactive)
REMARK    1  A    between atoms: C_2  and  C_3
REMARK    2  A    between atoms: C_3  and  O_4
REMARK    3  A    between atoms: O_4  and  C_5
REMARK    4  A    between atoms: C_7  and  C_8
REMARK    5  A    between atoms: C_21  and  O_22
REMARK    6  A    between atoms: O_22  and  C_23
REMARK    7  A    between atoms: C_24  and  O_25
REMARK    8  A    between atoms: O_25  and  C_26
REMARK                            x       y       z     vdW  Elec       q    Type
REMARK                         _______ _______ _______ _____ _____    ______ ____
ROOT
ATOM      1  C   UNL     1       0.913  10.061  19.385  0.00  0.00    +0.000 A 
ATOM      2  N   UNL     1       1.646   8.963  19.051  0.00  0.00    +0.000 NA
ATOM      3  C   UNL     1       1.734   7.955  19.937  0.00  0.00    +0.000 A 
ATOM      4  C   UNL     1       1.161   8.060  21.196  0.00  0.00    +0.000 A 
ATOM      5  C   UNL     1       0.429   9.198  21.548  0.00  0.00    +0.000 A 
ATOM      6  C   UNL     1      -0.136   9.260  22.826  0.00  0.00    +0.000 A 
ATOM      7  C   UNL     1      -0.890  10.359  23.225  0.00  0.00    +0.000 A 
ATOM      8  C   UNL     1      -1.127  11.414  22.343  0.00  0.00    +0.000 A 
ATOM      9  C   UNL     1      -0.582  11.357  21.035  0.00  0.00    +0.000 A 
ATOM     10  C   UNL     1       0.250  10.251  20.629  0.00  0.00    +0.000 A 
ENDROOT
BRANCH   3  11
ATOM     11  C   UNL     1       2.412   6.726  19.470  0.00  0.00    +0.000 A 
ATOM     12  C   UNL     1       2.301   5.513  20.205  0.00  0.00    +0.000 A 
ATOM     13  C   UNL     1       2.890   4.324  19.769  0.00  0.00    +0.000 A 
ATOM     14  C   UNL     1       3.594   4.357  18.591  0.00  0.00    +0.000 A 
ATOM     15  C   UNL     1       3.725   5.514  17.861  0.00  0.00    +0.000 A 
ATOM     16  C   UNL     1       3.148   6.704  18.268  0.00  0.00    +0.000 A 
ATOM     17  O   UNL     1       4.459   5.327  16.731  0.00  0.00    +0.000 OA
ATOM     18  C   UNL     1       4.810   3.933  16.861  0.00  0.00    +0.000 C 
ATOM     19  O   UNL     1       4.221   3.298  18.013  0.00  0.00    +0.000 OA
ENDBRANCH   3  11
BRANCH   8  20
ATOM     20  O   UNL     1      -1.890  12.497  22.688  0.00  0.00    +0.000 OA
ATOM     21  C   UNL     1      -1.266  13.620  23.297  0.00  0.00    +0.000 C 
ENDBRANCH   8  20
BRANCH   9  22
ATOM     22  O   UNL     1      -0.857  12.259  20.030  0.00  0.00    +0.000 OA
ATOM     23  C   UNL     1      -2.131  12.238  19.405  0.00  0.00    +0.000 C 
ENDBRANCH   9  22
BRANCH   1  24
ATOM     24  O   UNL     1       0.895  11.081  18.452  0.00  0.00    +0.000 OA
BRANCH  24  25
ATOM     25  C   UNL     1       2.207  11.555  18.145  0.00  0.00    +0.000 C 
BRANCH  25  27
ATOM     26  C   UNL     1       2.508  13.470  19.751  0.00  0.00    +0.000 C 
ATOM     27  C   UNL     1       2.275  13.009  18.517  0.00  0.00    +0.000 C 
ENDBRANCH  25  27
ENDBRANCH  24  25
ENDBRANCH   1  24
TORSDOF 6
ENDMDL
MODEL 6
REMARK VINA RESULT:      -7.4      1.709      7.519
REMARK  Name = 
REMARK  8 active torsions:
REMARK  status: ('A' for Active; 'I' for Inactive)
REMARK    1  A    between atoms: C_2  and  C_3
REMARK    2  A    between atoms: C_3  and  O_4
REMARK    3  A    between atoms: O_4  and  C_5
REMARK    4  A    between atoms: C_7  and  C_8
REMARK    5  A    between atoms: C_21  and  O_22
REMARK    6  A    between atoms: O_22  and  C_23
REMARK    7  A    between atoms: C_24  and  O_25
REMARK    8  A    between atoms: O_25  and  C_26
REMARK                            x       y       z     vdW  Elec       q    Type
REMARK                         _______ _______ _______ _____ _____    ______ ____
ROOT
ATOM      1  C   UNL     1       2.038   7.043  19.981  0.00  0.00    +0.000 A 
ATOM      2  N   UNL     1       3.012   6.404  19.275  0.00  0.00    +0.000 NA
ATOM      3  C   UNL     1       3.525   7.013  18.191  0.00  0.00    +0.000 A 
ATOM      4  C   UNL     1       3.020   8.227  17.750  0.00  0.00    +0.000 A 
ATOM      5  C   UNL     1       2.003   8.872  18.460  0.00  0.00    +0.000 A 
ATOM      6  C   UNL     1       1.528  10.097  17.983  0.00  0.00    +0.000 A 
ATOM      7  C   UNL     1       0.530  10.793  18.658  0.00  0.00    +0.000 A 
ATOM      8  C   UNL     1       0.002  10.295  19.851  0.00  0.00    +0.000 A 
ATOM      9  C   UNL     1       0.490   9.066  20.363  0.00  0.00    +0.000 A 
ATOM     10  C   UNL     1       1.482   8.307  19.641  0.00  0.00    +0.000 A 
ENDROOT
BRANCH   3  11
ATOM     11  C   UNL     1       4.681   6.350  17.550  0.00  0.00    +0.000 A 
ATOM     12  C   UNL     1       5.651   5.666  18.332  0.00  0.00    +0.000 A 
ATOM     13  C   UNL     1       6.730   4.992  17.756  0.00  0.00    +0.000 A 
ATOM     14  C   UNL     1       6.833   5.008  16.387  0.00  0.00    +0.000 A 
ATOM     15  C   UNL     1       5.916   5.665  15.603  0.00  0.00    +0.000 A 
ATOM     16  C   UNL     1       4.836   6.337  16.148  0.00  0.00    +0.000 A 
ATOM     17  O   UNL     1       6.203   5.556  14.278  0.00  0.00    +0.000 OA
ATOM     18  C   UNL     1       7.428   4.796  14.325  0.00  0.00    +0.000 C 
ATOM     19  O   UNL     1       7.806   4.400  15.659  0.00  0.00    +0.000 OA
ENDBRANCH   3  11
BRANCH   8  20
ATOM     20  O   UNL     1      -0.958  10.966  20.561  0.00  0.00    +0.000 OA
ATOM     21  C   UNL     1      -1.756  11.939  19.900  0.00  0.00    +0.000 C 
ENDBRANCH   8  20
BRANCH   9  22
ATOM     22  O   UNL     1       0.157   8.541  21.591  0.00  0.00    +0.000 OA
ATOM     23  C   UNL     1       0.526   9.238  22.771  0.00  0.00    +0.000 C 
ENDBRANCH   9  22
BRANCH   1  24
ATOM     24  O   UNL     1       1.520   6.349  21.058  0.00  0.00    +0.000 OA
BRANCH  24  25
ATOM     25  C   UNL     1       1.935   4.983  21.071  0.00  0.00    +0.000 C 
BRANCH  25  27
ATOM     26  C   UNL     1       1.075   3.126  19.604  0.00  0.00    +0.000 C 
ATOM     27  C   UNL     1       0.857   4.163  20.421  0.00  0.00    +0.000 C 
ENDBRANCH  25  27
ENDBRANCH  24  25
ENDBRANCH   1  24
TORSDOF 6
ENDMDL
MODEL 7
REMARK VINA RESULT:      -7.3      1.559      7.525
REMARK  Name = 
REMARK  8 active torsions:
REMARK  status: ('A' for Active; 'I' for Inactive)
REMARK    1  A    between atoms: C_2  and  C_3
REMARK    2  A    between atoms: C_3  and  O_4
REMARK    3  A    between atoms: O_4  and  C_5
REMARK    4  A    between atoms: C_7  and  C_8
REMARK    5  A    between atoms: C_21  and  O_22
REMARK    6  A    between atoms: O_22  and  C_23
REMARK    7  A    between atoms: C_24  and  O_25
REMARK    8  A    between atoms: O_25  and  C_26
REMARK                            x       y       z     vdW  Elec       q    Type
REMARK                         _______ _______ _______ _____ _____    ______ ____
ROOT
ATOM      1  C   UNL     1       2.076   6.875  19.873  0.00  0.00    +0.000 A 
ATOM      2  N   UNL     1       2.785   6.087  19.017  0.00  0.00    +0.000 NA
ATOM      3  C   UNL     1       3.243   6.631  17.875  0.00  0.00    +0.000 A 
ATOM      4  C   UNL     1       2.936   7.939  17.534  0.00  0.00    +0.000 A 
ATOM      5  C   UNL     1       2.188   8.741  18.401  0.00  0.00    +0.000 A 
ATOM      6  C   UNL     1       1.906  10.056  18.020  0.00  0.00    +0.000 A 
ATOM      7  C   UNL     1       1.182  10.905  18.851  0.00  0.00    +0.000 A 
ATOM      8  C   UNL     1       0.746  10.469  20.104  0.00  0.00    +0.000 A 
ATOM      9  C   UNL     1       1.045   9.146  20.517  0.00  0.00    +0.000 A 
ATOM     10  C   UNL     1       1.744   8.239  19.641  0.00  0.00    +0.000 A 
ENDROOT
BRANCH   3  11
ATOM     11  C   UNL     1       4.133   5.781  17.054  0.00  0.00    +0.000 A 
ATOM     12  C   UNL     1       4.093   4.364  17.170  0.00  0.00    +0.000 A 
ATOM     13  C   UNL     1       4.886   3.530  16.378  0.00  0.00    +0.000 A 
ATOM     14  C   UNL     1       5.723   4.127  15.467  0.00  0.00    +0.000 A 
ATOM     15  C   UNL     1       5.789   5.492  15.334  0.00  0.00    +0.000 A 
ATOM     16  C   UNL     1       5.011   6.340  16.103  0.00  0.00    +0.000 A 
ATOM     17  O   UNL     1       6.678   5.872  14.377  0.00  0.00    +0.000 OA
ATOM     18  C   UNL     1       7.194   4.591  13.959  0.00  0.00    +0.000 C 
ATOM     19  O   UNL     1       6.554   3.475  14.611  0.00  0.00    +0.000 OA
ENDBRANCH   3  11
BRANCH   8  20
ATOM     20  O   UNL     1       0.059  11.285  20.963  0.00  0.00    +0.000 OA
ATOM     21  C   UNL     1       0.505  12.621  21.156  0.00  0.00    +0.000 C 
ENDBRANCH   8  20
BRANCH   9  22
ATOM     22  O   UNL     1       0.799   8.643  21.776  0.00  0.00    +0.000 OA
ATOM     23  C   UNL     1      -0.514   8.716  22.311  0.00  0.00    +0.000 C 
ENDBRANCH   9  22
BRANCH   1  24
ATOM     24  O   UNL     1       1.595   6.251  21.009  0.00  0.00    +0.000 OA
BRANCH  24  25
ATOM     25  C   UNL     1       2.024   4.892  21.101  0.00  0.00    +0.000 C 
BRANCH  25  27
ATOM     26  C   UNL     1       1.041   3.112  19.616  0.00  0.00    +0.000 C 
ATOM     27  C   UNL     1       0.913   4.018  20.593  0.00  0.00    +0.000 C 
ENDBRANCH  25  27
ENDBRANCH  24  25
ENDBRANCH   1  24
TORSDOF 6
ENDMDL
MODEL 8
REMARK VINA RESULT:      -7.1      1.647      3.754
REMARK  Name = 
REMARK  8 active torsions:
REMARK  status: ('A' for Active; 'I' for Inactive)
REMARK    1  A    between atoms: C_2  and  C_3
REMARK    2  A    between atoms: C_3  and  O_4
REMARK    3  A    between atoms: O_4  and  C_5
REMARK    4  A    between atoms: C_7  and  C_8
REMARK    5  A    between atoms: C_21  and  O_22
REMARK    6  A    between atoms: O_22  and  C_23
REMARK    7  A    between atoms: C_24  and  O_25
REMARK    8  A    between atoms: O_25  and  C_26
REMARK                            x       y       z     vdW  Elec       q    Type
REMARK                         _______ _______ _______ _____ _____    ______ ____
ROOT
ATOM      1  C   UNL     1       3.187   6.303  18.658  0.00  0.00    +0.000 A 
ATOM      2  N   UNL     1       2.485   7.440  18.923  0.00  0.00    +0.000 NA
ATOM      3  C   UNL     1       1.706   7.473  20.018  0.00  0.00    +0.000 A 
ATOM      4  C   UNL     1       1.552   6.352  20.819  0.00  0.00    +0.000 A 
ATOM      5  C   UNL     1       2.253   5.176  20.534  0.00  0.00    +0.000 A 
ATOM      6  C   UNL     1       2.074   4.071  21.371  0.00  0.00    +0.000 A 
ATOM      7  C   UNL     1       2.759   2.882  21.147  0.00  0.00    +0.000 A 
ATOM      8  C   UNL     1       3.670   2.776  20.095  0.00  0.00    +0.000 A 
ATOM      9  C   UNL     1       3.884   3.895  19.251  0.00  0.00    +0.000 A 
ATOM     10  C   UNL     1       3.136   5.114  19.437  0.00  0.00    +0.000 A 
ENDROOT
BRANCH   3  11
ATOM     11  C   UNL     1       1.085   8.776  20.344  0.00  0.00    +0.000 A 
ATOM     12  C   UNL     1       0.820   9.730  19.322  0.00  0.00    +0.000 A 
ATOM     13  C   UNL     1       0.195  10.950  19.588  0.00  0.00    +0.000 A 
ATOM     14  C   UNL     1      -0.163  11.211  20.888  0.00  0.00    +0.000 A 
ATOM     15  C   UNL     1       0.084  10.314  21.898  0.00  0.00    +0.000 A 
ATOM     16  C   UNL     1       0.698   9.096  21.661  0.00  0.00    +0.000 A 
ATOM     17  O   UNL     1      -0.350  10.768  23.105  0.00  0.00    +0.000 OA
ATOM     18  C   UNL     1      -0.855  12.070  22.741  0.00  0.00    +0.000 C 
ATOM     19  O   UNL     1      -0.787  12.337  21.326  0.00  0.00    +0.000 OA
ENDBRANCH   3  11
BRANCH   8  20
ATOM     20  O   UNL     1       4.387   1.633  19.862  0.00  0.00    +0.000 OA
ATOM     21  C   UNL     1       5.267   1.149  20.869  0.00  0.00    +0.000 C 
ENDBRANCH   8  20
BRANCH   9  22
ATOM     22  O   UNL     1       4.851   3.966  18.273  0.00  0.00    +0.000 OA
ATOM     23  C   UNL     1       4.606   3.377  17.006  0.00  0.00    +0.000 C 
ENDBRANCH   9  22
BRANCH   1  24
ATOM     24  O   UNL     1       3.936   6.313  17.497  0.00  0.00    +0.000 OA
BRANCH  24  25
ATOM     25  C   UNL     1       4.889   7.377  17.478  0.00  0.00    +0.000 C 
BRANCH  25  27
ATOM     26  C   UNL     1       7.314   6.748  17.728  0.00  0.00    +0.000 C 
ATOM     27  C   UNL     1       6.198   6.821  16.993  0.00  0.00    +0.000 C 
ENDBRANCH  25  27
ENDBRANCH  24  25
ENDBRANCH   1  24
TORSDOF 6
ENDMDL
MODEL 9
REMARK VINA RESULT:      -7.0      2.685      8.819
REMARK  Name = 
REMARK  8 active torsions:
REMARK  status: ('A' for Active; 'I' for Inactive)
REMARK    1  A    between atoms: C_2  and  C_3
REMARK    2  A    between atoms: C_3  and  O_4
REMARK    3  A    between atoms: O_4  and  C_5
REMARK    4  A    between atoms: C_7  and  C_8
REMARK    5  A    between atoms: C_21  and  O_22
REMARK    6  A    between atoms: O_22  and  C_23
REMARK    7  A    between atoms: C_24  and  O_25
REMARK    8  A    between atoms: O_25  and  C_26
REMARK                            x       y       z     vdW  Elec       q    Type
REMARK                         _______ _______ _______ _____ _____    ______ ____
ROOT
ATOM      1  C   UNL     1      -0.741  10.762  18.670  0.00  0.00    +0.000 A 
ATOM      2  N   UNL     1       0.235   9.861  18.365  0.00  0.00    +0.000 NA
ATOM      3  C   UNL     1       0.966   9.343  19.368  0.00  0.00    +0.000 A 
ATOM      4  C   UNL     1       0.791   9.772  20.675  0.00  0.00    +0.000 A 
ATOM      5  C   UNL     1      -0.194  10.714  20.985  0.00  0.00    +0.000 A 
ATOM      6  C   UNL     1      -0.342  11.114  22.317  0.00  0.00    +0.000 A 
ATOM      7  C   UNL     1      -1.317  12.034  22.687  0.00  0.00    +0.000 A 
ATOM      8  C   UNL     1      -2.195  12.557  21.736  0.00  0.00    +0.000 A 
ATOM      9  C   UNL     1      -2.077  12.143  20.385  0.00  0.00    +0.000 A 
ATOM     10  C   UNL     1      -1.033  11.235  19.979  0.00  0.00    +0.000 A 
ENDROOT
BRANCH   3  11
ATOM     11  C   UNL     1       1.907   8.261  19.004  0.00  0.00    +0.000 A 
ATOM     12  C   UNL     1       2.671   8.336  17.807  0.00  0.00    +0.000 A 
ATOM     13  C   UNL     1       3.601   7.354  17.456  0.00  0.00    +0.000 A 
ATOM     14  C   UNL     1       3.760   6.293  18.312  0.00  0.00    +0.000 A 
ATOM     15  C   UNL     1       3.032   6.188  19.473  0.00  0.00    +0.000 A 
ATOM     16  C   UNL     1       2.108   7.148  19.847  0.00  0.00    +0.000 A 
ATOM     17  O   UNL     1       3.344   5.064  20.174  0.00  0.00    +0.000 OA
ATOM     18  C   UNL     1       4.315   4.456  19.296  0.00  0.00    +0.000 C 
ATOM     19  O   UNL     1       4.622   5.257  18.137  0.00  0.00    +0.000 OA
ENDBRANCH   3  11
BRANCH   8  20
ATOM     20  O   UNL     1      -3.189  13.440  22.067  0.00  0.00    +0.000 OA
ATOM     21  C   UNL     1      -4.197  13.038  22.985  0.00  0.00    +0.000 C 
ENDBRANCH   8  20
BRANCH   9  22
ATOM     22  O   UNL     1      -2.964  12.472  19.384  0.00  0.00    +0.000 OA
ATOM     23  C   UNL     1      -4.275  11.929  19.408  0.00  0.00    +0.000 C 
ENDBRANCH   9  22
BRANCH   1  24
ATOM     24  O   UNL     1      -1.430  11.292  17.596  0.00  0.00    +0.000 OA
BRANCH  24  25
ATOM     25  C   UNL     1      -2.123  10.289  16.851  0.00  0.00    +0.000 C 
BRANCH  25  27
ATOM     26  C   UNL     1      -3.274  10.365  14.613  0.00  0.00    +0.000 C 
ATOM     27  C   UNL     1      -2.865  10.968  15.735  0.00  0.00    +0.000 C 
ENDBRANCH  25  27
ENDBRANCH  24  25
ENDBRANCH   1  24
TORSDOF 6
ENDMDL
