MODEL 1
REMARK VINA RESULT:      -7.8      0.000      0.000
REMARK  Name = 
REMARK  4 active torsions:
REMARK  status: ('A' for Active; 'I' for Inactive)
REMARK    1  A    between atoms: C_1  and  C_2
REMARK    2  A    between atoms: C_4  and  C_5
REMARK    3  A    between atoms: C_9  and  O_10
REMARK    4  A    between atoms: O_10  and  C_11
REMARK                            x       y       z     vdW  Elec       q    Type
REMARK                         _______ _______ _______ _____ _____    ______ ____
ROOT
ATOM      1  C   UNL     1       5.443   2.231  11.508  0.00  0.00    +0.000 C 
ATOM      2  C   UNL     1       6.153   3.272  12.288  0.00  0.00    +0.000 A 
ATOM      3  C   UNL     1       7.096   4.203  11.818  0.00  0.00    +0.000 A 
ATOM      4  C   UNL     1       7.474   4.934  12.924  0.00  0.00    +0.000 A 
ATOM      5  C   UNL     1       8.476   6.026  13.024  0.00  0.00    +0.000 C 
ATOM      6  N   UNL     1       6.739   4.435  13.994  0.00  0.00    +0.000 N 
ATOM      7  C   UNL     1       6.768   4.865  15.361  0.00  0.00    +0.000 A 
ATOM      8  C   UNL     1       6.028   4.176  16.303  0.00  0.00    +0.000 A 
ATOM      9  C   UNL     1       6.137   4.642  17.593  0.00  0.00    +0.000 A 
ATOM     10  N   UNL     1       6.927   5.670  17.957  0.00  0.00    +0.000 NA
ATOM     11  C   UNL     1       7.573   6.287  16.969  0.00  0.00    +0.000 A 
ATOM     12  N   UNL     1       7.533   5.940  15.681  0.00  0.00    +0.000 NA
ATOM     13  N   UNL     1       5.937   3.402  13.598  0.00  0.00    +0.000 NA
ENDROOT
BRANCH   9  14
ATOM     14  O   UNL     1       5.388   3.992  18.570  0.00  0.00    +0.000 OA
BRANCH  14  15
ATOM     15  C   UNL     1       4.029   3.900  18.355  0.00  0.00    +0.000 A 
ATOM     16  C   UNL     1       3.356   2.672  18.296  0.00  0.00    +0.000 A 
ATOM     17  C   UNL     1       1.986   2.636  18.046  0.00  0.00    +0.000 A 
ATOM     18  C   UNL     1       1.274   3.824  17.908  0.00  0.00    +0.000 A 
ATOM     19  C   UNL     1       1.931   5.050  18.023  0.00  0.00    +0.000 A 
ATOM     20  C   UNL     1       3.309   5.090  18.250  0.00  0.00    +0.000 A 
ENDBRANCH  14  15
ENDBRANCH   9  14
TORSDOF 2
ENDMDL
MODEL 2
REMARK VINA RESULT:      -7.7      0.156      1.089
REMARK  Name = 
REMARK  4 active torsions:
REMARK  status: ('A' for Active; 'I' for Inactive)
REMARK    1  A    between atoms: C_1  and  C_2
REMARK    2  A    between atoms: C_4  and  C_5
REMARK    3  A    between atoms: C_9  and  O_10
REMARK    4  A    between atoms: O_10  and  C_11
REMARK                            x       y       z     vdW  Elec       q    Type
REMARK                         _______ _______ _______ _____ _____    ______ ____
ROOT
ATOM      1  C   UNL     1       5.576   2.024  11.474  0.00  0.00    +0.000 C 
ATOM      2  C   UNL     1       6.233   3.106  12.244  0.00  0.00    +0.000 A 
ATOM      3  C   UNL     1       7.149   4.062  11.771  0.00  0.00    +0.000 A 
ATOM      4  C   UNL     1       7.478   4.829  12.868  0.00  0.00    +0.000 A 
ATOM      5  C   UNL     1       8.438   5.959  12.963  0.00  0.00    +0.000 C 
ATOM      6  N   UNL     1       6.743   4.324  13.935  0.00  0.00    +0.000 N 
ATOM      7  C   UNL     1       6.730   4.783  15.293  0.00  0.00    +0.000 A 
ATOM      8  C   UNL     1       5.999   4.086  16.236  0.00  0.00    +0.000 A 
ATOM      9  C   UNL     1       6.067   4.582  17.517  0.00  0.00    +0.000 A 
ATOM     10  N   UNL     1       6.812   5.646  17.874  0.00  0.00    +0.000 NA
ATOM     11  C   UNL     1       7.452   6.267  16.885  0.00  0.00    +0.000 A 
ATOM     12  N   UNL     1       7.449   5.892  15.604  0.00  0.00    +0.000 NA
ATOM     13  N   UNL     1       5.988   3.255  13.547  0.00  0.00    +0.000 NA
ENDROOT
BRANCH   9  14
ATOM     14  O   UNL     1       5.325   3.925  18.494  0.00  0.00    +0.000 OA
BRANCH  14  15
ATOM     15  C   UNL     1       3.959   3.873  18.311  0.00  0.00    +0.000 A 
ATOM     16  C   UNL     1       3.189   5.015  18.052  0.00  0.00    +0.000 A 
ATOM     17  C   UNL     1       1.808   4.910  17.905  0.00  0.00    +0.000 A 
ATOM     18  C   UNL     1       1.197   3.660  17.963  0.00  0.00    +0.000 A 
ATOM     19  C   UNL     1       1.968   2.514  18.164  0.00  0.00    +0.000 A 
ATOM     20  C   UNL     1       3.350   2.619  18.336  0.00  0.00    +0.000 A 
ENDBRANCH  14  15
ENDBRANCH   9  14
TORSDOF 2
ENDMDL
MODEL 3
REMARK VINA RESULT:      -7.2      2.423      6.705
REMARK  Name = 
REMARK  4 active torsions:
REMARK  status: ('A' for Active; 'I' for Inactive)
REMARK    1  A    between atoms: C_1  and  C_2
REMARK    2  A    between atoms: C_4  and  C_5
REMARK    3  A    between atoms: C_9  and  O_10
REMARK    4  A    between atoms: O_10  and  C_11
REMARK                            x       y       z     vdW  Elec       q    Type
REMARK                         _______ _______ _______ _____ _____    ______ ____
ROOT
ATOM      1  C   UNL     1       1.640   2.891  21.407  0.00  0.00    +0.000 C 
ATOM      2  C   UNL     1       2.043   4.086  20.629  0.00  0.00    +0.000 A 
ATOM      3  C   UNL     1       1.608   5.412  20.804  0.00  0.00    +0.000 A 
ATOM      4  C   UNL     1       2.252   6.142  19.830  0.00  0.00    +0.000 A 
ATOM      5  C   UNL     1       2.136   7.590  19.518  0.00  0.00    +0.000 C 
ATOM      6  N   UNL     1       3.052   5.245  19.130  0.00  0.00    +0.000 N 
ATOM      7  C   UNL     1       3.923   5.515  18.024  0.00  0.00    +0.000 A 
ATOM      8  C   UNL     1       4.568   4.464  17.399  0.00  0.00    +0.000 A 
ATOM      9  C   UNL     1       5.361   4.814  16.331  0.00  0.00    +0.000 A 
ATOM     10  N   UNL     1       5.495   6.074  15.874  0.00  0.00    +0.000 NA
ATOM     11  C   UNL     1       4.858   7.016  16.566  0.00  0.00    +0.000 A 
ATOM     12  N   UNL     1       4.076   6.803  17.627  0.00  0.00    +0.000 NA
ATOM     13  N   UNL     1       2.908   3.978  19.620  0.00  0.00    +0.000 NA
ENDROOT
BRANCH   9  14
ATOM     14  O   UNL     1       6.050   3.790  15.688  0.00  0.00    +0.000 OA
BRANCH  14  15
ATOM     15  C   UNL     1       6.411   4.009  14.375  0.00  0.00    +0.000 A 
ATOM     16  C   UNL     1       5.743   3.408  13.299  0.00  0.00    +0.000 A 
ATOM     17  C   UNL     1       6.169   3.641  11.993  0.00  0.00    +0.000 A 
ATOM     18  C   UNL     1       7.227   4.513  11.752  0.00  0.00    +0.000 A 
ATOM     19  C   UNL     1       7.857   5.157  12.818  0.00  0.00    +0.000 A 
ATOM     20  C   UNL     1       7.448   4.908  14.131  0.00  0.00    +0.000 A 
ENDBRANCH  14  15
ENDBRANCH   9  14
TORSDOF 2
ENDMDL
MODEL 4
REMARK VINA RESULT:      -7.1      0.987      1.324
REMARK  Name = 
REMARK  4 active torsions:
REMARK  status: ('A' for Active; 'I' for Inactive)
REMARK    1  A    between atoms: C_1  and  C_2
REMARK    2  A    between atoms: C_4  and  C_5
REMARK    3  A    between atoms: C_9  and  O_10
REMARK    4  A    between atoms: O_10  and  C_11
REMARK                            x       y       z     vdW  Elec       q    Type
REMARK                         _______ _______ _______ _____ _____    ______ ____
ROOT
ATOM      1  C   UNL     1       4.643   2.829  11.557  0.00  0.00    +0.000 C 
ATOM      2  C   UNL     1       5.573   3.616  12.399  0.00  0.00    +0.000 A 
ATOM      3  C   UNL     1       6.890   4.005  12.093  0.00  0.00    +0.000 A 
ATOM      4  C   UNL     1       7.334   4.699  13.197  0.00  0.00    +0.000 A 
ATOM      5  C   UNL     1       8.669   5.303  13.445  0.00  0.00    +0.000 C 
ATOM      6  N   UNL     1       6.278   4.718  14.101  0.00  0.00    +0.000 N 
ATOM      7  C   UNL     1       6.238   5.323  15.400  0.00  0.00    +0.000 A 
ATOM      8  C   UNL     1       5.119   5.151  16.193  0.00  0.00    +0.000 A 
ATOM      9  C   UNL     1       5.181   5.744  17.433  0.00  0.00    +0.000 A 
ATOM     10  N   UNL     1       6.252   6.419  17.892  0.00  0.00    +0.000 NA
ATOM     11  C   UNL     1       7.264   6.555  17.038  0.00  0.00    +0.000 A 
ATOM     12  N   UNL     1       7.314   6.043  15.807  0.00  0.00    +0.000 NA
ATOM     13  N   UNL     1       5.200   4.038  13.608  0.00  0.00    +0.000 NA
ENDROOT
BRANCH   9  14
ATOM     14  O   UNL     1       4.064   5.617  18.254  0.00  0.00    +0.000 OA
BRANCH  14  15
ATOM     15  C   UNL     1       3.574   4.343  18.449  0.00  0.00    +0.000 A 
ATOM     16  C   UNL     1       4.301   3.349  19.120  0.00  0.00    +0.000 A 
ATOM     17  C   UNL     1       3.770   2.069  19.262  0.00  0.00    +0.000 A 
ATOM     18  C   UNL     1       2.492   1.791  18.785  0.00  0.00    +0.000 A 
ATOM     19  C   UNL     1       1.743   2.794  18.167  0.00  0.00    +0.000 A 
ATOM     20  C   UNL     1       2.282   4.072  18.001  0.00  0.00    +0.000 A 
ENDBRANCH  14  15
ENDBRANCH   9  14
TORSDOF 2
ENDMDL
MODEL 5
REMARK VINA RESULT:      -7.1      1.023      1.486
REMARK  Name = 
REMARK  4 active torsions:
REMARK  status: ('A' for Active; 'I' for Inactive)
REMARK    1  A    between atoms: C_1  and  C_2
REMARK    2  A    between atoms: C_4  and  C_5
REMARK    3  A    between atoms: C_9  and  O_10
REMARK    4  A    between atoms: O_10  and  C_11
REMARK                            x       y       z     vdW  Elec       q    Type
REMARK                         _______ _______ _______ _____ _____    ______ ____
ROOT
ATOM      1  C   UNL     1       4.539   2.831  11.439  0.00  0.00    +0.000 C 
ATOM      2  C   UNL     1       5.479   3.598  12.290  0.00  0.00    +0.000 A 
ATOM      3  C   UNL     1       6.805   3.960  11.994  0.00  0.00    +0.000 A 
ATOM      4  C   UNL     1       7.256   4.643  13.102  0.00  0.00    +0.000 A 
ATOM      5  C   UNL     1       8.601   5.219  13.361  0.00  0.00    +0.000 C 
ATOM      6  N   UNL     1       6.194   4.681  13.999  0.00  0.00    +0.000 N 
ATOM      7  C   UNL     1       6.158   5.284  15.299  0.00  0.00    +0.000 A 
ATOM      8  C   UNL     1       5.030   5.132  16.084  0.00  0.00    +0.000 A 
ATOM      9  C   UNL     1       5.095   5.720  17.326  0.00  0.00    +0.000 A 
ATOM     10  N   UNL     1       6.177   6.373  17.794  0.00  0.00    +0.000 NA
ATOM     11  C   UNL     1       7.198   6.490  16.948  0.00  0.00    +0.000 A 
ATOM     12  N   UNL     1       7.246   5.980  15.716  0.00  0.00    +0.000 NA
ATOM     13  N   UNL     1       5.106   4.024  13.498  0.00  0.00    +0.000 NA
ENDROOT
BRANCH   9  14
ATOM     14  O   UNL     1       3.971   5.615  18.140  0.00  0.00    +0.000 OA
BRANCH  14  15
ATOM     15  C   UNL     1       3.489   4.345  18.377  0.00  0.00    +0.000 A 
ATOM     16  C   UNL     1       2.227   3.922  17.937  0.00  0.00    +0.000 A 
ATOM     17  C   UNL     1       1.778   2.636  18.231  0.00  0.00    +0.000 A 
ATOM     18  C   UNL     1       2.605   1.752  18.917  0.00  0.00    +0.000 A 
ATOM     19  C   UNL     1       3.885   2.151  19.307  0.00  0.00    +0.000 A 
ATOM     20  C   UNL     1       4.329   3.447  19.035  0.00  0.00    +0.000 A 
ENDBRANCH  14  15
ENDBRANCH   9  14
TORSDOF 2
ENDMDL
MODEL 6
REMARK VINA RESULT:      -7.0      2.527      6.580
REMARK  Name = 
REMARK  4 active torsions:
REMARK  status: ('A' for Active; 'I' for Inactive)
REMARK    1  A    between atoms: C_1  and  C_2
REMARK    2  A    between atoms: C_4  and  C_5
REMARK    3  A    between atoms: C_9  and  O_10
REMARK    4  A    between atoms: O_10  and  C_11
REMARK                            x       y       z     vdW  Elec       q    Type
REMARK                         _______ _______ _______ _____ _____    ______ ____
ROOT
ATOM      1  C   UNL     1       1.566   9.845  17.837  0.00  0.00    +0.000 C 
ATOM      2  C   UNL     1       2.118   8.560  18.325  0.00  0.00    +0.000 A 
ATOM      3  C   UNL     1       1.690   7.806  19.432  0.00  0.00    +0.000 A 
ATOM      4  C   UNL     1       2.527   6.713  19.478  0.00  0.00    +0.000 A 
ATOM      5  C   UNL     1       2.562   5.604  20.467  0.00  0.00    +0.000 C 
ATOM      6  N   UNL     1       3.399   6.839  18.402  0.00  0.00    +0.000 N 
ATOM      7  C   UNL     1       4.455   5.952  18.013  0.00  0.00    +0.000 A 
ATOM      8  C   UNL     1       5.279   6.302  16.960  0.00  0.00    +0.000 A 
ATOM      9  C   UNL     1       6.282   5.405  16.675  0.00  0.00    +0.000 A 
ATOM     10  N   UNL     1       6.500   4.274  17.372  0.00  0.00    +0.000 NA
ATOM     11  C   UNL     1       5.631   4.013  18.346  0.00  0.00    +0.000 A 
ATOM     12  N   UNL     1       4.611   4.795  18.704  0.00  0.00    +0.000 NA
ATOM     13  N   UNL     1       3.149   7.986  17.703  0.00  0.00    +0.000 NA
ENDROOT
BRANCH   9  14
ATOM     14  O   UNL     1       7.120   5.706  15.605  0.00  0.00    +0.000 OA
BRANCH  14  15
ATOM     15  C   UNL     1       6.891   5.030  14.424  0.00  0.00    +0.000 A 
ATOM     16  C   UNL     1       5.815   4.147  14.256  0.00  0.00    +0.000 A 
ATOM     17  C   UNL     1       5.650   3.467  13.052  0.00  0.00    +0.000 A 
ATOM     18  C   UNL     1       6.523   3.705  11.994  0.00  0.00    +0.000 A 
ATOM     19  C   UNL     1       7.563   4.626  12.139  0.00  0.00    +0.000 A 
ATOM     20  C   UNL     1       7.746   5.291  13.354  0.00  0.00    +0.000 A 
ENDBRANCH  14  15
ENDBRANCH   9  14
TORSDOF 2
ENDMDL
MODEL 7
REMARK VINA RESULT:      -6.9      2.227      6.444
REMARK  Name = 
REMARK  4 active torsions:
REMARK  status: ('A' for Active; 'I' for Inactive)
REMARK    1  A    between atoms: C_1  and  C_2
REMARK    2  A    between atoms: C_4  and  C_5
REMARK    3  A    between atoms: C_9  and  O_10
REMARK    4  A    between atoms: O_10  and  C_11
REMARK                            x       y       z     vdW  Elec       q    Type
REMARK                         _______ _______ _______ _____ _____    ______ ____
ROOT
ATOM      1  C   UNL     1       4.974   1.008  20.930  0.00  0.00    +0.000 C 
ATOM      2  C   UNL     1       4.440   2.278  20.384  0.00  0.00    +0.000 A 
ATOM      3  C   UNL     1       3.262   2.947  20.763  0.00  0.00    +0.000 A 
ATOM      4  C   UNL     1       3.198   4.062  19.956  0.00  0.00    +0.000 A 
ATOM      5  C   UNL     1       2.144   5.108  19.889  0.00  0.00    +0.000 C 
ATOM      6  N   UNL     1       4.332   4.031  19.151  0.00  0.00    +0.000 N 
ATOM      7  C   UNL     1       4.728   4.974  18.147  0.00  0.00    +0.000 A 
ATOM      8  C   UNL     1       5.850   4.716  17.382  0.00  0.00    +0.000 A 
ATOM      9  C   UNL     1       6.138   5.662  16.425  0.00  0.00    +0.000 A 
ATOM     10  N   UNL     1       5.385   6.754  16.195  0.00  0.00    +0.000 NA
ATOM     11  C   UNL     1       4.344   6.926  17.007  0.00  0.00    +0.000 A 
ATOM     12  N   UNL     1       3.975   6.090  17.980  0.00  0.00    +0.000 NA
ATOM     13  N   UNL     1       5.086   2.922  19.412  0.00  0.00    +0.000 NA
ENDROOT
BRANCH   9  14
ATOM     14  O   UNL     1       7.275   5.455  15.649  0.00  0.00    +0.000 OA
BRANCH  14  15
ATOM     15  C   UNL     1       7.083   4.936  14.386  0.00  0.00    +0.000 A 
ATOM     16  C   UNL     1       7.859   5.324  13.284  0.00  0.00    +0.000 A 
ATOM     17  C   UNL     1       7.601   4.790  12.024  0.00  0.00    +0.000 A 
ATOM     18  C   UNL     1       6.605   3.830  11.867  0.00  0.00    +0.000 A 
ATOM     19  C   UNL     1       5.868   3.400  12.972  0.00  0.00    +0.000 A 
ATOM     20  C   UNL     1       6.108   3.951  14.233  0.00  0.00    +0.000 A 
ENDBRANCH  14  15
ENDBRANCH   9  14
TORSDOF 2
ENDMDL
MODEL 8
REMARK VINA RESULT:      -6.9      2.477      6.576
REMARK  Name = 
REMARK  4 active torsions:
REMARK  status: ('A' for Active; 'I' for Inactive)
REMARK    1  A    between atoms: C_1  and  C_2
REMARK    2  A    between atoms: C_4  and  C_5
REMARK    3  A    between atoms: C_9  and  O_10
REMARK    4  A    between atoms: O_10  and  C_11
REMARK                            x       y       z     vdW  Elec       q    Type
REMARK                         _______ _______ _______ _____ _____    ______ ____
ROOT
ATOM      1  C   UNL     1       1.610   9.752  17.829  0.00  0.00    +0.000 C 
ATOM      2  C   UNL     1       2.179   8.469  18.306  0.00  0.00    +0.000 A 
ATOM      3  C   UNL     1       1.758   7.698  19.404  0.00  0.00    +0.000 A 
ATOM      4  C   UNL     1       2.610   6.616  19.441  0.00  0.00    +0.000 A 
ATOM      5  C   UNL     1       2.658   5.498  20.419  0.00  0.00    +0.000 C 
ATOM      6  N   UNL     1       3.483   6.766  18.369  0.00  0.00    +0.000 N 
ATOM      7  C   UNL     1       4.553   5.898  17.974  0.00  0.00    +0.000 A 
ATOM      8  C   UNL     1       5.375   6.270  16.926  0.00  0.00    +0.000 A 
ATOM      9  C   UNL     1       6.391   5.389  16.635  0.00  0.00    +0.000 A 
ATOM     10  N   UNL     1       6.623   4.254  17.322  0.00  0.00    +0.000 NA
ATOM     11  C   UNL     1       5.755   3.971  18.291  0.00  0.00    +0.000 A 
ATOM     12  N   UNL     1       4.722   4.736  18.654  0.00  0.00    +0.000 NA
ATOM     13  N   UNL     1       3.220   7.916  17.681  0.00  0.00    +0.000 NA
ENDROOT
BRANCH   9  14
ATOM     14  O   UNL     1       7.227   5.713  15.570  0.00  0.00    +0.000 OA
BRANCH  14  15
ATOM     15  C   UNL     1       6.991   5.069  14.374  0.00  0.00    +0.000 A 
ATOM     16  C   UNL     1       7.786   5.274  13.237  0.00  0.00    +0.000 A 
ATOM     17  C   UNL     1       7.484   4.620  12.045  0.00  0.00    +0.000 A 
ATOM     18  C   UNL     1       6.423   3.720  11.996  0.00  0.00    +0.000 A 
ATOM     19  C   UNL     1       5.664   3.471  13.142  0.00  0.00    +0.000 A 
ATOM     20  C   UNL     1       5.949   4.143  14.332  0.00  0.00    +0.000 A 
ENDBRANCH  14  15
ENDBRANCH   9  14
TORSDOF 2
ENDMDL
MODEL 9
REMARK VINA RESULT:      -6.9      1.981      6.090
REMARK  Name = 
REMARK  4 active torsions:
REMARK  status: ('A' for Active; 'I' for Inactive)
REMARK    1  A    between atoms: C_1  and  C_2
REMARK    2  A    between atoms: C_4  and  C_5
REMARK    3  A    between atoms: C_9  and  O_10
REMARK    4  A    between atoms: O_10  and  C_11
REMARK                            x       y       z     vdW  Elec       q    Type
REMARK                         _______ _______ _______ _____ _____    ______ ____
ROOT
ATOM      1  C   UNL     1       1.748   1.805  18.988  0.00  0.00    +0.000 C 
ATOM      2  C   UNL     1       2.242   3.199  18.885  0.00  0.00    +0.000 A 
ATOM      3  C   UNL     1       1.660   4.359  19.426  0.00  0.00    +0.000 A 
ATOM      4  C   UNL     1       2.482   5.396  19.042  0.00  0.00    +0.000 A 
ATOM      5  C   UNL     1       2.329   6.852  19.295  0.00  0.00    +0.000 C 
ATOM      6  N   UNL     1       3.521   4.825  18.314  0.00  0.00    +0.000 N 
ATOM      7  C   UNL     1       4.637   5.485  17.702  0.00  0.00    +0.000 A 
ATOM      8  C   UNL     1       5.520   4.750  16.935  0.00  0.00    +0.000 A 
ATOM      9  C   UNL     1       6.544   5.470  16.365  0.00  0.00    +0.000 A 
ATOM     10  N   UNL     1       6.688   6.804  16.492  0.00  0.00    +0.000 NA
ATOM     11  C   UNL     1       5.802   7.413  17.277  0.00  0.00    +0.000 A 
ATOM     12  N   UNL     1       4.779   6.821  17.897  0.00  0.00    +0.000 NA
ATOM     13  N   UNL     1       3.360   3.473  18.210  0.00  0.00    +0.000 NA
ENDROOT
BRANCH   9  14
ATOM     14  O   UNL     1       7.473   4.765  15.605  0.00  0.00    +0.000 OA
BRANCH  14  15
ATOM     15  C   UNL     1       7.134   4.500  14.295  0.00  0.00    +0.000 A 
ATOM     16  C   UNL     1       6.074   3.652  13.946  0.00  0.00    +0.000 A 
ATOM     17  C   UNL     1       5.796   3.395  12.605  0.00  0.00    +0.000 A 
ATOM     18  C   UNL     1       6.538   4.024  11.609  0.00  0.00    +0.000 A 
ATOM     19  C   UNL     1       7.558   4.913  11.953  0.00  0.00    +0.000 A 
ATOM     20  C   UNL     1       7.856   5.154  13.297  0.00  0.00    +0.000 A 
ENDBRANCH  14  15
ENDBRANCH   9  14
TORSDOF 2
ENDMDL
