MODEL 1
REMARK VINA RESULT:      -8.3      0.000      0.000
REMARK  Name = 
REMARK  7 active torsions:
REMARK  status: ('A' for Active; 'I' for Inactive)
REMARK    1  A    between atoms: C_1  and  C_2
REMARK    2  A    between atoms: C_2  and  C_3
REMARK    3  A    between atoms: C_3  and  N_4
REMARK    4  A    between atoms: C_5  and  C_7
REMARK    5  A    between atoms: C_9  and  C_10
REMARK    6  A    between atoms: C_16  and  O_18
REMARK    7  A    between atoms: O_18  and  C_19
REMARK                            x       y       z     vdW  Elec       q    Type
REMARK                         _______ _______ _______ _____ _____    ______ ____
ROOT
ATOM      1  C   UNL     1       6.184   4.346  16.397  0.00  0.00    +0.000 A 
ATOM      2  C   UNL     1       4.860   4.017  16.773  0.00  0.00    +0.000 A 
ATOM      3  C   UNL     1       4.872   4.011  18.145  0.00  0.00    +0.000 A 
ATOM      4  O   UNL     1       6.129   4.317  18.574  0.00  0.00    +0.000 OA
ATOM      5  N   UNL     1       6.956   4.547  17.481  0.00  0.00    +0.000 NA
ENDROOT
BRANCH   3   6
ATOM      6  C   UNL     1       3.815   3.764  19.166  0.00  0.00    +0.000 C 
ATOM      7  C   UNL     1       2.838   2.660  18.727  0.00  0.00    +0.000 C 
ATOM      8  C   UNL     1       1.832   2.330  19.829  0.00  0.00    +0.000 C 
ATOM      9  C   UNL     1       1.131   3.591  20.331  0.00  0.00    +0.000 C 
ATOM     10  C   UNL     1       2.137   4.668  20.733  0.00  0.00    +0.000 C 
ATOM     11  N   UNL     1       3.069   4.948  19.637  0.00  0.00    +0.000 N 
ATOM     12  C   UNL     1       3.206   6.217  19.090  0.00  0.00    +0.000 C 
ATOM     13  O   UNL     1       3.974   6.521  18.185  0.00  0.00    +0.000 OA
BRANCH  12  14
ATOM     14  O   UNL     1       2.388   7.141  19.673  0.00  0.00    +0.000 OA
ATOM     15  C   UNL     1       2.051   8.226  18.803  0.00  0.00    +0.000 C 
ENDBRANCH  12  14
ENDBRANCH   3   6
BRANCH   1  17
ATOM     16  N   UNL     1       6.045   3.699  14.086  0.00  0.00    +0.000 N 
ATOM     17  C   UNL     1       6.671   4.492  15.026  0.00  0.00    +0.000 C 
ATOM     18  O   UNL     1       7.594   5.250  14.747  0.00  0.00    +0.000 OA
ATOM     19  H   UNL     1       5.328   3.061  14.420  0.00  0.00    +0.000 HD
BRANCH  16  20
ATOM     20  C   UNL     1       6.505   3.643  12.718  0.00  0.00    +0.000 C 
BRANCH  20  22
ATOM     21  C   UNL     1       4.343   3.262  11.446  0.00  0.00    +0.000 C 
ATOM     22  C   UNL     1       5.684   2.677  11.863  0.00  0.00    +0.000 C 
ENDBRANCH  20  22
ENDBRANCH  16  20
ENDBRANCH   1  17
TORSDOF 5
ENDMDL
MODEL 2
REMARK VINA RESULT:      -7.2      1.465      2.812
REMARK  Name = 
REMARK  7 active torsions:
REMARK  status: ('A' for Active; 'I' for Inactive)
REMARK    1  A    between atoms: C_1  and  C_2
REMARK    2  A    between atoms: C_2  and  C_3
REMARK    3  A    between atoms: C_3  and  N_4
REMARK    4  A    between atoms: C_5  and  C_7
REMARK    5  A    between atoms: C_9  and  C_10
REMARK    6  A    between atoms: C_16  and  O_18
REMARK    7  A    between atoms: O_18  and  C_19
REMARK                            x       y       z     vdW  Elec       q    Type
REMARK                         _______ _______ _______ _____ _____    ______ ____
ROOT
ATOM      1  C   UNL     1       5.984   5.390  15.638  0.00  0.00    +0.000 A 
ATOM      2  C   UNL     1       4.703   4.960  16.057  0.00  0.00    +0.000 A 
ATOM      3  C   UNL     1       4.460   5.646  17.219  0.00  0.00    +0.000 A 
ATOM      4  O   UNL     1       5.532   6.444  17.490  0.00  0.00    +0.000 OA
ATOM      5  N   UNL     1       6.487   6.303  16.491  0.00  0.00    +0.000 NA
ENDROOT
BRANCH   3   6
ATOM      6  C   UNL     1       3.300   5.677  18.155  0.00  0.00    +0.000 C 
ATOM      7  C   UNL     1       3.121   7.060  18.803  0.00  0.00    +0.000 C 
ATOM      8  C   UNL     1       1.861   7.116  19.667  0.00  0.00    +0.000 C 
ATOM      9  C   UNL     1       1.833   5.969  20.676  0.00  0.00    +0.000 C 
ATOM     10  C   UNL     1       2.039   4.618  19.992  0.00  0.00    +0.000 C 
ATOM     11  N   UNL     1       3.263   4.621  19.187  0.00  0.00    +0.000 N 
ATOM     12  C   UNL     1       4.293   3.717  19.406  0.00  0.00    +0.000 C 
ATOM     13  O   UNL     1       5.334   3.656  18.762  0.00  0.00    +0.000 OA
BRANCH  12  14
ATOM     14  O   UNL     1       4.040   2.857  20.435  0.00  0.00    +0.000 OA
ATOM     15  C   UNL     1       4.781   1.636  20.348  0.00  0.00    +0.000 C 
ENDBRANCH  12  14
ENDBRANCH   3   6
BRANCH   1  17
ATOM     16  N   UNL     1       5.971   4.091  13.616  0.00  0.00    +0.000 N 
ATOM     17  C   UNL     1       6.680   4.952  14.430  0.00  0.00    +0.000 C 
ATOM     18  O   UNL     1       7.827   5.308  14.180  0.00  0.00    +0.000 OA
ATOM     19  H   UNL     1       5.048   3.808  13.933  0.00  0.00    +0.000 HD
BRANCH  16  20
ATOM     20  C   UNL     1       6.576   3.476  12.457  0.00  0.00    +0.000 C 
BRANCH  20  22
ATOM     21  C   UNL     1       4.270   3.243  11.425  0.00  0.00    +0.000 C 
ATOM     22  C   UNL     1       5.605   2.569  11.701  0.00  0.00    +0.000 C 
ENDBRANCH  20  22
ENDBRANCH  16  20
ENDBRANCH   1  17
TORSDOF 5
ENDMDL
MODEL 3
REMARK VINA RESULT:      -6.9      1.548      2.124
REMARK  Name = 
REMARK  7 active torsions:
REMARK  status: ('A' for Active; 'I' for Inactive)
REMARK    1  A    between atoms: C_1  and  C_2
REMARK    2  A    between atoms: C_2  and  C_3
REMARK    3  A    between atoms: C_3  and  N_4
REMARK    4  A    between atoms: C_5  and  C_7
REMARK    5  A    between atoms: C_9  and  C_10
REMARK    6  A    between atoms: C_16  and  O_18
REMARK    7  A    between atoms: O_18  and  C_19
REMARK                            x       y       z     vdW  Elec       q    Type
REMARK                         _______ _______ _______ _____ _____    ______ ____
ROOT
ATOM      1  C   UNL     1       6.227   4.124  14.403  0.00  0.00    +0.000 A 
ATOM      2  C   UNL     1       5.170   3.895  15.316  0.00  0.00    +0.000 A 
ATOM      3  C   UNL     1       5.667   4.272  16.537  0.00  0.00    +0.000 A 
ATOM      4  O   UNL     1       6.950   4.702  16.375  0.00  0.00    +0.000 OA
ATOM      5  N   UNL     1       7.304   4.630  15.033  0.00  0.00    +0.000 NA
ENDROOT
BRANCH   3   6
ATOM      6  C   UNL     1       5.076   4.305  17.905  0.00  0.00    +0.000 C 
ATOM      7  C   UNL     1       4.109   3.132  18.142  0.00  0.00    +0.000 C 
ATOM      8  C   UNL     1       3.601   3.106  19.584  0.00  0.00    +0.000 C 
ATOM      9  C   UNL     1       3.020   4.459  19.988  0.00  0.00    +0.000 C 
ATOM     10  C   UNL     1       4.003   5.596  19.713  0.00  0.00    +0.000 C 
ATOM     11  N   UNL     1       4.448   5.576  18.317  0.00  0.00    +0.000 N 
ATOM     12  C   UNL     1       4.265   6.659  17.468  0.00  0.00    +0.000 C 
ATOM     13  O   UNL     1       4.624   6.714  16.298  0.00  0.00    +0.000 OA
BRANCH  12  14
ATOM     14  O   UNL     1       3.633   7.709  18.070  0.00  0.00    +0.000 OA
ATOM     15  C   UNL     1       2.310   7.933  17.573  0.00  0.00    +0.000 C 
ENDBRANCH  12  14
ENDBRANCH   3   6
BRANCH   1  17
ATOM     16  N   UNL     1       4.943   3.529  12.461  0.00  0.00    +0.000 N 
ATOM     17  C   UNL     1       6.177   3.889  12.961  0.00  0.00    +0.000 C 
ATOM     18  O   UNL     1       7.178   3.979  12.257  0.00  0.00    +0.000 OA
ATOM     19  H   UNL     1       4.183   3.426  13.129  0.00  0.00    +0.000 HD
BRANCH  16  20
ATOM     20  C   UNL     1       4.769   3.143  11.080  0.00  0.00    +0.000 C 
BRANCH  20  22
ATOM     21  C   UNL     1       2.966   4.219   9.657  0.00  0.00    +0.000 C 
ATOM     22  C   UNL     1       3.301   3.122  10.656  0.00  0.00    +0.000 C 
ENDBRANCH  20  22
ENDBRANCH  16  20
ENDBRANCH   1  17
TORSDOF 5
ENDMDL
MODEL 4
REMARK VINA RESULT:      -6.9      3.047      4.379
REMARK  Name = 
REMARK  7 active torsions:
REMARK  status: ('A' for Active; 'I' for Inactive)
REMARK    1  A    between atoms: C_1  and  C_2
REMARK    2  A    between atoms: C_2  and  C_3
REMARK    3  A    between atoms: C_3  and  N_4
REMARK    4  A    between atoms: C_5  and  C_7
REMARK    5  A    between atoms: C_9  and  C_10
REMARK    6  A    between atoms: C_16  and  O_18
REMARK    7  A    between atoms: O_18  and  C_19
REMARK                            x       y       z     vdW  Elec       q    Type
REMARK                         _______ _______ _______ _____ _____    ______ ____
ROOT
ATOM      1  C   UNL     1       6.611   5.784  18.198  0.00  0.00    +0.000 A 
ATOM      2  C   UNL     1       5.334   5.310  17.813  0.00  0.00    +0.000 A 
ATOM      3  C   UNL     1       5.009   4.365  18.752  0.00  0.00    +0.000 A 
ATOM      4  O   UNL     1       6.029   4.271  19.652  0.00  0.00    +0.000 OA
ATOM      5  N   UNL     1       7.032   5.174  19.321  0.00  0.00    +0.000 NA
ENDROOT
BRANCH   3   6
ATOM      6  C   UNL     1       3.810   3.502  18.949  0.00  0.00    +0.000 C 
ATOM      7  C   UNL     1       3.335   2.868  17.630  0.00  0.00    +0.000 C 
ATOM      8  C   UNL     1       2.181   1.893  17.859  0.00  0.00    +0.000 C 
ATOM      9  C   UNL     1       1.053   2.550  18.654  0.00  0.00    +0.000 C 
ATOM     10  C   UNL     1       1.573   3.186  19.942  0.00  0.00    +0.000 C 
ATOM     11  N   UNL     1       2.671   4.116  19.660  0.00  0.00    +0.000 N 
ATOM     12  C   UNL     1       2.613   5.456  20.018  0.00  0.00    +0.000 C 
ATOM     13  O   UNL     1       3.499   6.281  19.825  0.00  0.00    +0.000 OA
BRANCH  12  14
ATOM     14  O   UNL     1       1.445   5.794  20.638  0.00  0.00    +0.000 OA
ATOM     15  C   UNL     1       1.366   7.183  20.975  0.00  0.00    +0.000 C 
ENDBRANCH  12  14
ENDBRANCH   3   6
BRANCH   1  17
ATOM     16  N   UNL     1       7.689   7.931  18.273  0.00  0.00    +0.000 N 
ATOM     17  C   UNL     1       7.378   6.823  17.512  0.00  0.00    +0.000 C 
ATOM     18  O   UNL     1       7.694   6.719  16.331  0.00  0.00    +0.000 OA
ATOM     19  H   UNL     1       7.337   7.953  19.226  0.00  0.00    +0.000 HD
BRANCH  16  20
ATOM     20  C   UNL     1       8.330   9.090  17.695  0.00  0.00    +0.000 C 
BRANCH  20  22
ATOM     21  C   UNL     1       9.775  11.129  18.129  0.00  0.00    +0.000 C 
ATOM     22  C   UNL     1       9.003   9.973  18.746  0.00  0.00    +0.000 C 
ENDBRANCH  20  22
ENDBRANCH  16  20
ENDBRANCH   1  17
TORSDOF 5
ENDMDL
MODEL 5
REMARK VINA RESULT:      -6.9      1.573      2.870
REMARK  Name = 
REMARK  7 active torsions:
REMARK  status: ('A' for Active; 'I' for Inactive)
REMARK    1  A    between atoms: C_1  and  C_2
REMARK    2  A    between atoms: C_2  and  C_3
REMARK    3  A    between atoms: C_3  and  N_4
REMARK    4  A    between atoms: C_5  and  C_7
REMARK    5  A    between atoms: C_9  and  C_10
REMARK    6  A    between atoms: C_16  and  O_18
REMARK    7  A    between atoms: O_18  and  C_19
REMARK                            x       y       z     vdW  Elec       q    Type
REMARK                         _______ _______ _______ _____ _____    ______ ____
ROOT
ATOM      1  C   UNL     1       5.364   5.063  16.204  0.00  0.00    +0.000 A 
ATOM      2  C   UNL     1       4.508   4.022  16.635  0.00  0.00    +0.000 A 
ATOM      3  C   UNL     1       3.843   4.535  17.719  0.00  0.00    +0.000 A 
ATOM      4  O   UNL     1       4.272   5.812  17.934  0.00  0.00    +0.000 OA
ATOM      5  N   UNL     1       5.215   6.157  16.974  0.00  0.00    +0.000 NA
ENDROOT
BRANCH   3   6
ATOM      6  C   UNL     1       2.796   3.979  18.622  0.00  0.00    +0.000 C 
ATOM      7  C   UNL     1       1.902   5.083  19.213  0.00  0.00    +0.000 C 
ATOM      8  C   UNL     1       0.759   4.495  20.041  0.00  0.00    +0.000 C 
ATOM      9  C   UNL     1       1.284   3.516  21.091  0.00  0.00    +0.000 C 
ATOM     10  C   UNL     1       2.185   2.454  20.463  0.00  0.00    +0.000 C 
ATOM     11  N   UNL     1       3.266   3.074  19.691  0.00  0.00    +0.000 N 
ATOM     12  C   UNL     1       4.604   2.837  19.970  0.00  0.00    +0.000 C 
ATOM     13  O   UNL     1       5.553   3.311  19.357  0.00  0.00    +0.000 OA
BRANCH  12  14
ATOM     14  O   UNL     1       4.788   1.988  21.024  0.00  0.00    +0.000 OA
ATOM     15  C   UNL     1       5.383   0.742  20.649  0.00  0.00    +0.000 C 
ENDBRANCH  12  14
ENDBRANCH   3   6
BRANCH   1  17
ATOM     16  N   UNL     1       5.875   4.176  14.030  0.00  0.00    +0.000 N 
ATOM     17  C   UNL     1       6.272   5.004  15.060  0.00  0.00    +0.000 C 
ATOM     18  O   UNL     1       7.327   5.630  15.039  0.00  0.00    +0.000 OA
ATOM     19  H   UNL     1       5.013   3.654  14.159  0.00  0.00    +0.000 HD
BRANCH  16  20
ATOM     20  C   UNL     1       6.730   3.919  12.894  0.00  0.00    +0.000 C 
BRANCH  20  22
ATOM     21  C   UNL     1       4.484   3.262  11.914  0.00  0.00    +0.000 C 
ATOM     22  C   UNL     1       5.996   3.210  11.755  0.00  0.00    +0.000 C 
ENDBRANCH  20  22
ENDBRANCH  16  20
ENDBRANCH   1  17
TORSDOF 5
ENDMDL
MODEL 6
REMARK VINA RESULT:      -6.8      2.886      4.243
REMARK  Name = 
REMARK  7 active torsions:
REMARK  status: ('A' for Active; 'I' for Inactive)
REMARK    1  A    between atoms: C_1  and  C_2
REMARK    2  A    between atoms: C_2  and  C_3
REMARK    3  A    between atoms: C_3  and  N_4
REMARK    4  A    between atoms: C_5  and  C_7
REMARK    5  A    between atoms: C_9  and  C_10
REMARK    6  A    between atoms: C_16  and  O_18
REMARK    7  A    between atoms: O_18  and  C_19
REMARK                            x       y       z     vdW  Elec       q    Type
REMARK                         _______ _______ _______ _____ _____    ______ ____
ROOT
ATOM      1  C   UNL     1       5.824   5.994  17.330  0.00  0.00    +0.000 A 
ATOM      2  C   UNL     1       5.433   5.525  18.606  0.00  0.00    +0.000 A 
ATOM      3  C   UNL     1       4.287   4.804  18.383  0.00  0.00    +0.000 A 
ATOM      4  O   UNL     1       4.000   4.836  17.051  0.00  0.00    +0.000 OA
ATOM      5  N   UNL     1       4.973   5.567  16.379  0.00  0.00    +0.000 NA
ENDROOT
BRANCH   3   6
ATOM      6  C   UNL     1       3.383   4.035  19.284  0.00  0.00    +0.000 C 
ATOM      7  C   UNL     1       2.628   2.927  18.530  0.00  0.00    +0.000 C 
ATOM      8  C   UNL     1       1.795   2.068  19.482  0.00  0.00    +0.000 C 
ATOM      9  C   UNL     1       0.886   2.933  20.354  0.00  0.00    +0.000 C 
ATOM     10  C   UNL     1       1.673   4.034  21.063  0.00  0.00    +0.000 C 
ATOM     11  N   UNL     1       2.444   4.828  20.102  0.00  0.00    +0.000 N 
ATOM     12  C   UNL     1       2.273   6.200  19.973  0.00  0.00    +0.000 C 
ATOM     13  O   UNL     1       2.893   6.923  19.202  0.00  0.00    +0.000 OA
BRANCH  12  14
ATOM     14  O   UNL     1       1.326   6.702  20.817  0.00  0.00    +0.000 OA
ATOM     15  C   UNL     1       1.384   8.126  20.949  0.00  0.00    +0.000 C 
ENDBRANCH  12  14
ENDBRANCH   3   6
BRANCH   1  17
ATOM     16  N   UNL     1       7.161   7.929  17.826  0.00  0.00    +0.000 N 
ATOM     17  C   UNL     1       7.008   6.803  17.043  0.00  0.00    +0.000 C 
ATOM     18  O   UNL     1       7.790   6.508  16.145  0.00  0.00    +0.000 OA
ATOM     19  H   UNL     1       6.432   8.123  18.508  0.00  0.00    +0.000 HD
BRANCH  16  20
ATOM     20  C   UNL     1       8.210   8.889  17.573  0.00  0.00    +0.000 C 
BRANCH  20  22
ATOM     21  C   UNL     1       9.429  10.802  18.710  0.00  0.00    +0.000 C 
ATOM     22  C   UNL     1       8.861   9.399  18.859  0.00  0.00    +0.000 C 
ENDBRANCH  20  22
ENDBRANCH  16  20
ENDBRANCH   1  17
TORSDOF 5
ENDMDL
MODEL 7
REMARK VINA RESULT:      -6.7      1.295      1.476
REMARK  Name = 
REMARK  7 active torsions:
REMARK  status: ('A' for Active; 'I' for Inactive)
REMARK    1  A    between atoms: C_1  and  C_2
REMARK    2  A    between atoms: C_2  and  C_3
REMARK    3  A    between atoms: C_3  and  N_4
REMARK    4  A    between atoms: C_5  and  C_7
REMARK    5  A    between atoms: C_9  and  C_10
REMARK    6  A    between atoms: C_16  and  O_18
REMARK    7  A    between atoms: O_18  and  C_19
REMARK                            x       y       z     vdW  Elec       q    Type
REMARK                         _______ _______ _______ _____ _____    ______ ____
ROOT
ATOM      1  C   UNL     1       5.612   4.306  16.404  0.00  0.00    +0.000 A 
ATOM      2  C   UNL     1       5.523   4.284  17.817  0.00  0.00    +0.000 A 
ATOM      3  C   UNL     1       4.226   3.927  18.085  0.00  0.00    +0.000 A 
ATOM      4  O   UNL     1       3.567   3.745  16.906  0.00  0.00    +0.000 OA
ATOM      5  N   UNL     1       4.437   3.963  15.844  0.00  0.00    +0.000 NA
ENDROOT
BRANCH   3   6
ATOM      6  C   UNL     1       3.479   3.705  19.355  0.00  0.00    +0.000 C 
ATOM      7  C   UNL     1       2.479   2.541  19.238  0.00  0.00    +0.000 C 
ATOM      8  C   UNL     1       1.804   2.243  20.577  0.00  0.00    +0.000 C 
ATOM      9  C   UNL     1       1.192   3.507  21.180  0.00  0.00    +0.000 C 
ATOM     10  C   UNL     1       2.213   4.642  21.255  0.00  0.00    +0.000 C 
ATOM     11  N   UNL     1       2.819   4.888  19.943  0.00  0.00    +0.000 N 
ATOM     12  C   UNL     1       2.748   6.125  19.317  0.00  0.00    +0.000 C 
ATOM     13  O   UNL     1       3.243   6.401  18.231  0.00  0.00    +0.000 OA
BRANCH  12  14
ATOM     14  O   UNL     1       2.060   7.053  20.044  0.00  0.00    +0.000 OA
ATOM     15  C   UNL     1       1.874   8.291  19.350  0.00  0.00    +0.000 C 
ENDBRANCH  12  14
ENDBRANCH   3   6
BRANCH   1  17
ATOM     16  N   UNL     1       6.589   5.012  14.325  0.00  0.00    +0.000 N 
ATOM     17  C   UNL     1       6.811   4.617  15.629  0.00  0.00    +0.000 C 
ATOM     18  O   UNL     1       7.936   4.503  16.105  0.00  0.00    +0.000 OA
ATOM     19  H   UNL     1       5.626   5.023  14.001  0.00  0.00    +0.000 HD
BRANCH  16  20
ATOM     20  C   UNL     1       7.680   5.228  13.404  0.00  0.00    +0.000 C 
BRANCH  20  22
ATOM     21  C   UNL     1       6.386   3.453  12.135  0.00  0.00    +0.000 C 
ATOM     22  C   UNL     1       7.467   4.521  12.065  0.00  0.00    +0.000 C 
ENDBRANCH  20  22
ENDBRANCH  16  20
ENDBRANCH   1  17
TORSDOF 5
ENDMDL
MODEL 8
REMARK VINA RESULT:      -6.5      2.920      7.571
REMARK  Name = 
REMARK  7 active torsions:
REMARK  status: ('A' for Active; 'I' for Inactive)
REMARK    1  A    between atoms: C_1  and  C_2
REMARK    2  A    between atoms: C_2  and  C_3
REMARK    3  A    between atoms: C_3  and  N_4
REMARK    4  A    between atoms: C_5  and  C_7
REMARK    5  A    between atoms: C_9  and  C_10
REMARK    6  A    between atoms: C_16  and  O_18
REMARK    7  A    between atoms: O_18  and  C_19
REMARK                            x       y       z     vdW  Elec       q    Type
REMARK                         _______ _______ _______ _____ _____    ______ ____
ROOT
ATOM      1  C   UNL     1       1.886   8.320  19.081  0.00  0.00    +0.000 A 
ATOM      2  C   UNL     1       2.623   7.939  17.935  0.00  0.00    +0.000 A 
ATOM      3  C   UNL     1       3.330   6.829  18.320  0.00  0.00    +0.000 A 
ATOM      4  O   UNL     1       3.040   6.555  19.624  0.00  0.00    +0.000 OA
ATOM      5  N   UNL     1       2.118   7.477  20.104  0.00  0.00    +0.000 NA
ENDROOT
BRANCH   3   6
ATOM      6  C   UNL     1       4.277   5.930  17.601  0.00  0.00    +0.000 C 
ATOM      7  C   UNL     1       4.834   6.584  16.325  0.00  0.00    +0.000 C 
ATOM      8  C   UNL     1       5.892   5.705  15.660  0.00  0.00    +0.000 C 
ATOM      9  C   UNL     1       5.369   4.288  15.432  0.00  0.00    +0.000 C 
ATOM     10  C   UNL     1       4.804   3.687  16.719  0.00  0.00    +0.000 C 
ATOM     11  N   UNL     1       3.790   4.567  17.306  0.00  0.00    +0.000 N 
ATOM     12  C   UNL     1       2.488   4.144  17.535  0.00  0.00    +0.000 C 
ATOM     13  O   UNL     1       1.598   4.823  18.034  0.00  0.00    +0.000 OA
BRANCH  12  14
ATOM     14  O   UNL     1       2.270   2.853  17.152  0.00  0.00    +0.000 OA
ATOM     15  C   UNL     1       1.987   1.977  18.248  0.00  0.00    +0.000 C 
ENDBRANCH  12  14
ENDBRANCH   3   6
BRANCH   1  17
ATOM     16  N   UNL     1       0.510   9.754  20.433  0.00  0.00    +0.000 N 
ATOM     17  C   UNL     1       0.960   9.448  19.165  0.00  0.00    +0.000 C 
ATOM     18  O   UNL     1       0.592  10.058  18.165  0.00  0.00    +0.000 OA
ATOM     19  H   UNL     1       0.826   9.158  21.194  0.00  0.00    +0.000 HD
BRANCH  16  20
ATOM     20  C   UNL     1      -0.505  10.758  20.654  0.00  0.00    +0.000 C 
BRANCH  20  22
ATOM     21  C   UNL     1      -0.422   9.841  23.018  0.00  0.00    +0.000 C 
ATOM     22  C   UNL     1      -0.736  11.042  22.138  0.00  0.00    +0.000 C 
ENDBRANCH  20  22
ENDBRANCH  16  20
ENDBRANCH   1  17
TORSDOF 5
ENDMDL
MODEL 9
REMARK VINA RESULT:      -6.5      3.139      6.934
REMARK  Name = 
REMARK  7 active torsions:
REMARK  status: ('A' for Active; 'I' for Inactive)
REMARK    1  A    between atoms: C_1  and  C_2
REMARK    2  A    between atoms: C_2  and  C_3
REMARK    3  A    between atoms: C_3  and  N_4
REMARK    4  A    between atoms: C_5  and  C_7
REMARK    5  A    between atoms: C_9  and  C_10
REMARK    6  A    between atoms: C_16  and  O_18
REMARK    7  A    between atoms: O_18  and  C_19
REMARK                            x       y       z     vdW  Elec       q    Type
REMARK                         _______ _______ _______ _____ _____    ______ ____
ROOT
ATOM      1  C   UNL     1       1.815   8.667  18.515  0.00  0.00    +0.000 A 
ATOM      2  C   UNL     1       2.601   8.094  17.487  0.00  0.00    +0.000 A 
ATOM      3  C   UNL     1       3.271   7.059  18.087  0.00  0.00    +0.000 A 
ATOM      4  O   UNL     1       2.913   7.007  19.402  0.00  0.00    +0.000 OA
ATOM      5  N   UNL     1       1.984   8.004  19.675  0.00  0.00    +0.000 NA
ENDROOT
BRANCH   3   6
ATOM      6  C   UNL     1       4.236   6.045  17.576  0.00  0.00    +0.000 C 
ATOM      7  C   UNL     1       4.945   6.521  16.296  0.00  0.00    +0.000 C 
ATOM      8  C   UNL     1       6.018   5.529  15.847  0.00  0.00    +0.000 C 
ATOM      9  C   UNL     1       5.449   4.115  15.733  0.00  0.00    +0.000 C 
ATOM     10  C   UNL     1       4.734   3.694  17.016  0.00  0.00    +0.000 C 
ATOM     11  N   UNL     1       3.713   4.676  17.392  0.00  0.00    +0.000 N 
ATOM     12  C   UNL     1       2.376   4.333  17.535  0.00  0.00    +0.000 C 
ATOM     13  O   UNL     1       1.477   5.100  17.859  0.00  0.00    +0.000 OA
BRANCH  12  14
ATOM     14  O   UNL     1       2.132   3.014  17.282  0.00  0.00    +0.000 OA
ATOM     15  C   UNL     1       1.609   2.309  18.413  0.00  0.00    +0.000 C 
ENDBRANCH  12  14
ENDBRANCH   3   6
BRANCH   1  17
ATOM     16  N   UNL     1      -0.393   9.479  18.025  0.00  0.00    +0.000 N 
ATOM     17  C   UNL     1       0.905   9.801  18.364  0.00  0.00    +0.000 C 
ATOM     18  O   UNL     1       1.287  10.959  18.502  0.00  0.00    +0.000 OA
ATOM     19  H   UNL     1      -0.604   8.496  17.878  0.00  0.00    +0.000 HD
BRANCH  16  20
ATOM     20  C   UNL     1      -1.370  10.498  17.718  0.00  0.00    +0.000 C 
BRANCH  20  22
ATOM     21  C   UNL     1      -2.818  10.953  15.685  0.00  0.00    +0.000 C 
ATOM     22  C   UNL     1      -2.488   9.985  16.810  0.00  0.00    +0.000 C 
ENDBRANCH  20  22
ENDBRANCH  16  20
ENDBRANCH   1  17
TORSDOF 5
ENDMDL
