MODEL 1
REMARK VINA RESULT:      -6.5      0.000      0.000
REMARK  Name = 
REMARK  7 active torsions:
REMARK  status: ('A' for Active; 'I' for Inactive)
REMARK    1  A    between atoms: C_1  and  C_2
REMARK    2  A    between atoms: C_2  and  C_3
REMARK    3  A    between atoms: C_2  and  N_4
REMARK    4  A    between atoms: N_4  and  C_5
REMARK    5  A    between atoms: N_4  and  C_6
REMARK    6  A    between atoms: C_6  and  C_7
REMARK    7  A    between atoms: C_16  and  C_18
REMARK                            x       y       z     vdW  Elec       q    Type
REMARK                         _______ _______ _______ _____ _____    ______ ____
ROOT
ATOM      1  C   UNL     1       1.795   7.985  19.426  0.00  0.00    +0.000 A 
ATOM      2  C   UNL     1       1.803   7.970  20.762  0.00  0.00    +0.000 A 
ATOM      3  C   UNL     1       1.212   9.099  21.479  0.00  0.00    +0.000 A 
ATOM      4  O   UNL     1       1.204   9.083  22.708  0.00  0.00    +0.000 OA
ATOM      5  N   UNL     1       0.694  10.111  20.691  0.00  0.00    +0.000 N 
ATOM      6  C   UNL     1       0.759  10.026  19.309  0.00  0.00    +0.000 A 
ATOM      7  N   UNL     1       1.292   9.024  18.683  0.00  0.00    +0.000 NA
ATOM      8  C   UNL     1       0.208  11.193  18.471  0.00  0.00    +0.000 C 
ATOM      9  N   UNL     1      -1.239  11.388  18.636  0.00  0.00    +0.000 N 
ATOM     10  C   UNL     1      -2.089  10.924  17.628  0.00  0.00    +0.000 C 
ATOM     11  O   UNL     1      -1.630  10.482  16.573  0.00  0.00    +0.000 OA
ATOM     12  C   UNL     1      -1.650  12.140  19.815  0.00  0.00    +0.000 C 
ATOM     13  C   UNL     1      -1.414  11.349  21.094  0.00  0.00    +0.000 C 
ATOM     14  C   UNL     1       0.081  11.239  21.383  0.00  0.00    +0.000 C 
ENDROOT
BRANCH  10  15
ATOM     15  C   UNL     1      -3.533  11.028  17.780  0.00  0.00    +0.000 A 
ATOM     16  C   UNL     1      -4.503  10.196  18.320  0.00  0.00    +0.000 A 
ATOM     17  C   UNL     1      -5.759  10.845  18.217  0.00  0.00    +0.000 A 
ATOM     18  C   UNL     1      -5.551  12.026  17.548  0.00  0.00    +0.000 A 
ATOM     19  N   UNL     1      -4.217  12.106  17.250  0.00  0.00    +0.000 N 
ATOM     20  H   UNL     1      -3.767  12.852  16.732  0.00  0.00    +0.000 HD
ENDBRANCH  10  15
BRANCH   1  21
ATOM     21  C   UNL     1       2.308   6.778  18.657  0.00  0.00    +0.000 C 
BRANCH  21  22
ATOM     22  N   UNL     1       2.802   5.687  19.528  0.00  0.00    +0.000 NA
ATOM     23  C   UNL     1       4.256   5.582  19.405  0.00  0.00    +0.000 C 
BRANCH  22  25
ATOM     24  C   UNL     1       0.934   4.119  20.278  0.00  0.00    +0.000 C 
ATOM     25  C   UNL     1       2.084   4.407  19.305  0.00  0.00    +0.000 C 
ATOM     26  C   UNL     1       1.590   4.279  17.856  0.00  0.00    +0.000 C 
ENDBRANCH  22  25
ENDBRANCH  21  22
ENDBRANCH   1  21
TORSDOF 4
ENDMDL
MODEL 2
REMARK VINA RESULT:      -6.4      6.363      8.759
REMARK  Name = 
REMARK  7 active torsions:
REMARK  status: ('A' for Active; 'I' for Inactive)
REMARK    1  A    between atoms: C_1  and  C_2
REMARK    2  A    between atoms: C_2  and  C_3
REMARK    3  A    between atoms: C_2  and  N_4
REMARK    4  A    between atoms: N_4  and  C_5
REMARK    5  A    between atoms: N_4  and  C_6
REMARK    6  A    between atoms: C_6  and  C_7
REMARK    7  A    between atoms: C_16  and  C_18
REMARK                            x       y       z     vdW  Elec       q    Type
REMARK                         _______ _______ _______ _____ _____    ______ ____
ROOT
ATOM      1  C   UNL     1       5.781   4.688  14.579  0.00  0.00    +0.000 A 
ATOM      2  C   UNL     1       6.987   4.342  15.039  0.00  0.00    +0.000 A 
ATOM      3  C   UNL     1       7.309   4.619  16.438  0.00  0.00    +0.000 A 
ATOM      4  O   UNL     1       8.411   4.289  16.869  0.00  0.00    +0.000 OA
ATOM      5  N   UNL     1       6.318   5.241  17.176  0.00  0.00    +0.000 N 
ATOM      6  C   UNL     1       5.109   5.572  16.584  0.00  0.00    +0.000 A 
ATOM      7  N   UNL     1       4.835   5.328  15.341  0.00  0.00    +0.000 NA
ATOM      8  C   UNL     1       4.048   6.299  17.430  0.00  0.00    +0.000 C 
ATOM      9  N   UNL     1       3.557   5.493  18.556  0.00  0.00    +0.000 N 
ATOM     10  C   UNL     1       2.308   4.876  18.435  0.00  0.00    +0.000 C 
ATOM     11  O   UNL     1       1.585   5.107  17.464  0.00  0.00    +0.000 OA
ATOM     12  C   UNL     1       4.395   5.488  19.749  0.00  0.00    +0.000 C 
ATOM     13  C   UNL     1       5.693   4.727  19.517  0.00  0.00    +0.000 C 
ATOM     14  C   UNL     1       6.608   5.509  18.579  0.00  0.00    +0.000 C 
ENDROOT
BRANCH  10  15
ATOM     15  C   UNL     1       1.812   4.008  19.492  0.00  0.00    +0.000 A 
ATOM     16  C   UNL     1       1.067   4.226  20.642  0.00  0.00    +0.000 A 
ATOM     17  C   UNL     1       0.856   2.980  21.283  0.00  0.00    +0.000 A 
ATOM     18  C   UNL     1       1.537   2.032  20.560  0.00  0.00    +0.000 A 
ATOM     19  N   UNL     1       2.146   2.667  19.511  0.00  0.00    +0.000 N 
ATOM     20  H   UNL     1       2.745   2.232  18.819  0.00  0.00    +0.000 HD
ENDBRANCH  10  15
BRANCH   1  21
ATOM     21  C   UNL     1       5.382   4.319  13.159  0.00  0.00    +0.000 C 
BRANCH  21  22
ATOM     22  N   UNL     1       6.285   3.327  12.530  0.00  0.00    +0.000 NA
ATOM     23  C   UNL     1       7.269   4.020  11.698  0.00  0.00    +0.000 C 
BRANCH  22  25
ATOM     24  C   UNL     1       4.329   2.710  11.014  0.00  0.00    +0.000 C 
ATOM     25  C   UNL     1       5.549   2.250  11.822  0.00  0.00    +0.000 C 
ATOM     26  C   UNL     1       6.482   1.415  10.933  0.00  0.00    +0.000 C 
ENDBRANCH  22  25
ENDBRANCH  21  22
ENDBRANCH   1  21
TORSDOF 4
ENDMDL
MODEL 3
REMARK VINA RESULT:      -6.3      0.777      1.082
REMARK  Name = 
REMARK  7 active torsions:
REMARK  status: ('A' for Active; 'I' for Inactive)
REMARK    1  A    between atoms: C_1  and  C_2
REMARK    2  A    between atoms: C_2  and  C_3
REMARK    3  A    between atoms: C_2  and  N_4
REMARK    4  A    between atoms: N_4  and  C_5
REMARK    5  A    between atoms: N_4  and  C_6
REMARK    6  A    between atoms: C_6  and  C_7
REMARK    7  A    between atoms: C_16  and  C_18
REMARK                            x       y       z     vdW  Elec       q    Type
REMARK                         _______ _______ _______ _____ _____    ______ ____
ROOT
ATOM      1  C   UNL     1       1.769   7.867  20.232  0.00  0.00    +0.000 A 
ATOM      2  C   UNL     1       1.685   8.076  21.549  0.00  0.00    +0.000 A 
ATOM      3  C   UNL     1       1.111   9.334  22.024  0.00  0.00    +0.000 A 
ATOM      4  O   UNL     1       1.019   9.525  23.234  0.00  0.00    +0.000 OA
ATOM      5  N   UNL     1       0.705  10.222  21.043  0.00  0.00    +0.000 N 
ATOM      6  C   UNL     1       0.860   9.903  19.703  0.00  0.00    +0.000 A 
ATOM      7  N   UNL     1       1.377   8.788  19.293  0.00  0.00    +0.000 NA
ATOM      8  C   UNL     1       0.433  10.935  18.645  0.00  0.00    +0.000 C 
ATOM      9  N   UNL     1      -1.009  11.218  18.665  0.00  0.00    +0.000 N 
ATOM     10  C   UNL     1      -1.813  10.630  17.684  0.00  0.00    +0.000 C 
ATOM     11  O   UNL     1      -1.309   9.997  16.754  0.00  0.00    +0.000 OA
ATOM     12  C   UNL     1      -1.457  12.175  19.669  0.00  0.00    +0.000 C 
ATOM     13  C   UNL     1      -1.353  11.600  21.075  0.00  0.00    +0.000 C 
ATOM     14  C   UNL     1       0.110  11.475  21.492  0.00  0.00    +0.000 C 
ENDROOT
BRANCH  10  15
ATOM     15  C   UNL     1      -3.256  10.820  17.706  0.00  0.00    +0.000 A 
ATOM     16  C   UNL     1      -4.307  10.124  18.286  0.00  0.00    +0.000 A 
ATOM     17  C   UNL     1      -5.514  10.806  17.991  0.00  0.00    +0.000 A 
ATOM     18  C   UNL     1      -5.193  11.862  17.173  0.00  0.00    +0.000 A 
ATOM     19  N   UNL     1      -3.839  11.835  16.971  0.00  0.00    +0.000 N 
ATOM     20  H   UNL     1      -3.312  12.473  16.386  0.00  0.00    +0.000 HD
ENDBRANCH  10  15
BRANCH   1  21
ATOM     21  C   UNL     1       2.266   6.527  19.713  0.00  0.00    +0.000 C 
BRANCH  21  22
ATOM     22  N   UNL     1       1.553   5.366  20.294  0.00  0.00    +0.000 NA
ATOM     23  C   UNL     1       2.398   4.729  21.306  0.00  0.00    +0.000 C 
BRANCH  22  25
ATOM     24  C   UNL     1       1.815   4.430  17.936  0.00  0.00    +0.000 C 
ATOM     25  C   UNL     1       1.043   4.431  19.261  0.00  0.00    +0.000 C 
ATOM     26  C   UNL     1       0.926   2.998  19.801  0.00  0.00    +0.000 C 
ENDBRANCH  22  25
ENDBRANCH  21  22
ENDBRANCH   1  21
TORSDOF 4
ENDMDL
MODEL 4
REMARK VINA RESULT:      -6.3      0.893      1.670
REMARK  Name = 
REMARK  7 active torsions:
REMARK  status: ('A' for Active; 'I' for Inactive)
REMARK    1  A    between atoms: C_1  and  C_2
REMARK    2  A    between atoms: C_2  and  C_3
REMARK    3  A    between atoms: C_2  and  N_4
REMARK    4  A    between atoms: N_4  and  C_5
REMARK    5  A    between atoms: N_4  and  C_6
REMARK    6  A    between atoms: C_6  and  C_7
REMARK    7  A    between atoms: C_16  and  C_18
REMARK                            x       y       z     vdW  Elec       q    Type
REMARK                         _______ _______ _______ _____ _____    ______ ____
ROOT
ATOM      1  C   UNL     1       1.690   7.569  20.257  0.00  0.00    +0.000 A 
ATOM      2  C   UNL     1       1.676   7.923  21.546  0.00  0.00    +0.000 A 
ATOM      3  C   UNL     1       1.232   9.271  21.898  0.00  0.00    +0.000 A 
ATOM      4  O   UNL     1       1.204   9.595  23.083  0.00  0.00    +0.000 OA
ATOM      5  N   UNL     1       0.868  10.083  20.840  0.00  0.00    +0.000 N 
ATOM      6  C   UNL     1       0.942   9.613  19.538  0.00  0.00    +0.000 A 
ATOM      7  N   UNL     1       1.344   8.419  19.236  0.00  0.00    +0.000 NA
ATOM      8  C   UNL     1       0.566  10.563  18.387  0.00  0.00    +0.000 C 
ATOM      9  N   UNL     1      -0.843  10.976  18.418  0.00  0.00    +0.000 N 
ATOM     10  C   UNL     1      -1.733  10.363  17.530  0.00  0.00    +0.000 C 
ATOM     11  O   UNL     1      -1.322   9.593  16.661  0.00  0.00    +0.000 OA
ATOM     12  C   UNL     1      -1.167  12.070  19.325  0.00  0.00    +0.000 C 
ATOM     13  C   UNL     1      -1.059  11.639  20.782  0.00  0.00    +0.000 C 
ATOM     14  C   UNL     1       0.402  11.426  21.167  0.00  0.00    +0.000 C 
ENDROOT
BRANCH  10  15
ATOM     15  C   UNL     1      -3.152  10.685  17.574  0.00  0.00    +0.000 A 
ATOM     16  C   UNL     1      -4.244  10.121  18.216  0.00  0.00    +0.000 A 
ATOM     17  C   UNL     1      -5.393  10.892  17.909  0.00  0.00    +0.000 A 
ATOM     18  C   UNL     1      -5.001  11.868  17.026  0.00  0.00    +0.000 A 
ATOM     19  N   UNL     1      -3.661  11.707  16.795  0.00  0.00    +0.000 N 
ATOM     20  H   UNL     1      -3.096  12.262  16.163  0.00  0.00    +0.000 HD
ENDBRANCH  10  15
BRANCH   1  21
ATOM     21  C   UNL     1       2.048   6.143  19.873  0.00  0.00    +0.000 C 
BRANCH  21  22
ATOM     22  N   UNL     1       2.301   5.966  18.424  0.00  0.00    +0.000 NA
ATOM     23  C   UNL     1       1.493   4.854  17.919  0.00  0.00    +0.000 C 
BRANCH  22  25
ATOM     24  C   UNL     1       4.358   7.070  17.398  0.00  0.00    +0.000 C 
ATOM     25  C   UNL     1       3.746   5.855  18.104  0.00  0.00    +0.000 C 
ATOM     26  C   UNL     1       4.575   5.497  19.347  0.00  0.00    +0.000 C 
ENDBRANCH  22  25
ENDBRANCH  21  22
ENDBRANCH   1  21
TORSDOF 4
ENDMDL
MODEL 5
REMARK VINA RESULT:      -6.2      0.993      1.212
REMARK  Name = 
REMARK  7 active torsions:
REMARK  status: ('A' for Active; 'I' for Inactive)
REMARK    1  A    between atoms: C_1  and  C_2
REMARK    2  A    between atoms: C_2  and  C_3
REMARK    3  A    between atoms: C_2  and  N_4
REMARK    4  A    between atoms: N_4  and  C_5
REMARK    5  A    between atoms: N_4  and  C_6
REMARK    6  A    between atoms: C_6  and  C_7
REMARK    7  A    between atoms: C_16  and  C_18
REMARK                            x       y       z     vdW  Elec       q    Type
REMARK                         _______ _______ _______ _____ _____    ______ ____
ROOT
ATOM      1  C   UNL     1       1.302   8.192  20.441  0.00  0.00    +0.000 A 
ATOM      2  C   UNL     1       1.204   8.468  21.745  0.00  0.00    +0.000 A 
ATOM      3  C   UNL     1       0.649   9.759  22.149  0.00  0.00    +0.000 A 
ATOM      4  O   UNL     1       0.543  10.011  23.347  0.00  0.00    +0.000 OA
ATOM      5  N   UNL     1       0.275  10.605  21.120  0.00  0.00    +0.000 N 
ATOM      6  C   UNL     1       0.442  10.218  19.800  0.00  0.00    +0.000 A 
ATOM      7  N   UNL     1       0.942   9.074  19.452  0.00  0.00    +0.000 NA
ATOM      8  C   UNL     1       0.051  11.205  18.686  0.00  0.00    +0.000 C 
ATOM      9  N   UNL     1      -1.385  11.516  18.670  0.00  0.00    +0.000 N 
ATOM     10  C   UNL     1      -2.187  10.896  17.707  0.00  0.00    +0.000 C 
ATOM     11  O   UNL     1      -1.682  10.208  16.817  0.00  0.00    +0.000 OA
ATOM     12  C   UNL     1      -1.827  12.530  19.619  0.00  0.00    +0.000 C 
ATOM     13  C   UNL     1      -1.755  12.023  21.053  0.00  0.00    +0.000 C 
ATOM     14  C   UNL     1      -0.301  11.890  21.497  0.00  0.00    +0.000 C 
ENDROOT
BRANCH  10  15
ATOM     15  C   UNL     1      -3.626  11.115  17.698  0.00  0.00    +0.000 A 
ATOM     16  C   UNL     1      -4.698  10.471  18.297  0.00  0.00    +0.000 A 
ATOM     17  C   UNL     1      -5.887  11.160  17.949  0.00  0.00    +0.000 A 
ATOM     18  C   UNL     1      -5.534  12.166  17.084  0.00  0.00    +0.000 A 
ATOM     19  N   UNL     1      -4.178  12.103  16.904  0.00  0.00    +0.000 N 
ATOM     20  H   UNL     1      -3.630  12.699  16.295  0.00  0.00    +0.000 HD
ENDBRANCH  10  15
BRANCH   1  21
ATOM     21  C   UNL     1       1.779   6.819  19.996  0.00  0.00    +0.000 C 
BRANCH  21  22
ATOM     22  N   UNL     1       3.118   6.833  19.364  0.00  0.00    +0.000 NA
ATOM     23  C   UNL     1       3.007   7.332  17.993  0.00  0.00    +0.000 C 
BRANCH  22  25
ATOM     24  C   UNL     1       3.039   4.424  20.200  0.00  0.00    +0.000 C 
ATOM     25  C   UNL     1       3.818   5.529  19.476  0.00  0.00    +0.000 C 
ATOM     26  C   UNL     1       4.295   5.022  18.106  0.00  0.00    +0.000 C 
ENDBRANCH  22  25
ENDBRANCH  21  22
ENDBRANCH   1  21
TORSDOF 4
ENDMDL
MODEL 6
REMARK VINA RESULT:      -5.9      1.386      1.912
REMARK  Name = 
REMARK  7 active torsions:
REMARK  status: ('A' for Active; 'I' for Inactive)
REMARK    1  A    between atoms: C_1  and  C_2
REMARK    2  A    between atoms: C_2  and  C_3
REMARK    3  A    between atoms: C_2  and  N_4
REMARK    4  A    between atoms: N_4  and  C_5
REMARK    5  A    between atoms: N_4  and  C_6
REMARK    6  A    between atoms: C_6  and  C_7
REMARK    7  A    between atoms: C_16  and  C_18
REMARK                            x       y       z     vdW  Elec       q    Type
REMARK                         _______ _______ _______ _____ _____    ______ ____
ROOT
ATOM      1  C   UNL     1       1.095   8.706  20.470  0.00  0.00    +0.000 A 
ATOM      2  C   UNL     1       0.941   8.827  21.792  0.00  0.00    +0.000 A 
ATOM      3  C   UNL     1       0.252  10.006  22.312  0.00  0.00    +0.000 A 
ATOM      4  O   UNL     1       0.096  10.115  23.526  0.00  0.00    +0.000 OA
ATOM      5  N   UNL     1      -0.182  10.919  21.367  0.00  0.00    +0.000 N 
ATOM      6  C   UNL     1       0.051  10.696  20.019  0.00  0.00    +0.000 A 
ATOM      7  N   UNL     1       0.671   9.650  19.569  0.00  0.00    +0.000 NA
ATOM      8  C   UNL     1      -0.412  11.756  19.005  0.00  0.00    +0.000 C 
ATOM      9  N   UNL     1      -1.871  11.927  18.975  0.00  0.00    +0.000 N 
ATOM     10  C   UNL     1      -2.586  11.340  17.927  0.00  0.00    +0.000 C 
ATOM     11  O   UNL     1      -1.997  10.806  16.986  0.00  0.00    +0.000 OA
ATOM     12  C   UNL     1      -2.433  12.784  20.012  0.00  0.00    +0.000 C 
ATOM     13  C   UNL     1      -2.341  12.134  21.386  0.00  0.00    +0.000 C 
ATOM     14  C   UNL     1      -0.891  12.094  21.860  0.00  0.00    +0.000 C 
ENDROOT
BRANCH  10  15
ATOM     15  C   UNL     1      -4.039  11.419  17.895  0.00  0.00    +0.000 A 
ATOM     16  C   UNL     1      -5.054  10.661  18.459  0.00  0.00    +0.000 A 
ATOM     17  C   UNL     1      -6.298  11.239  18.103  0.00  0.00    +0.000 A 
ATOM     18  C   UNL     1      -6.030  12.294  17.266  0.00  0.00    +0.000 A 
ATOM     19  N   UNL     1      -4.671  12.366  17.111  0.00  0.00    +0.000 N 
ATOM     20  H   UNL     1      -4.174  13.027  16.525  0.00  0.00    +0.000 HD
ENDBRANCH  10  15
BRANCH   1  21
ATOM     21  C   UNL     1       1.715   7.441  19.898  0.00  0.00    +0.000 C 
BRANCH  21  22
ATOM     22  N   UNL     1       2.674   7.697  18.798  0.00  0.00    +0.000 NA
ATOM     23  C   UNL     1       2.005   8.439  17.728  0.00  0.00    +0.000 C 
BRANCH  22  25
ATOM     24  C   UNL     1       4.539   6.686  17.382  0.00  0.00    +0.000 C 
ATOM     25  C   UNL     1       3.360   6.465  18.338  0.00  0.00    +0.000 C 
ATOM     26  C   UNL     1       3.800   5.587  19.519  0.00  0.00    +0.000 C 
ENDBRANCH  22  25
ENDBRANCH  21  22
ENDBRANCH   1  21
TORSDOF 4
ENDMDL
MODEL 7
REMARK VINA RESULT:      -5.9      1.111      1.215
REMARK  Name = 
REMARK  7 active torsions:
REMARK  status: ('A' for Active; 'I' for Inactive)
REMARK    1  A    between atoms: C_1  and  C_2
REMARK    2  A    between atoms: C_2  and  C_3
REMARK    3  A    between atoms: C_2  and  N_4
REMARK    4  A    between atoms: N_4  and  C_5
REMARK    5  A    between atoms: N_4  and  C_6
REMARK    6  A    between atoms: C_6  and  C_7
REMARK    7  A    between atoms: C_16  and  C_18
REMARK                            x       y       z     vdW  Elec       q    Type
REMARK                         _______ _______ _______ _____ _____    ______ ____
ROOT
ATOM      1  C   UNL     1       1.717   8.394  18.826  0.00  0.00    +0.000 A 
ATOM      2  C   UNL     1       1.840   8.112  20.127  0.00  0.00    +0.000 A 
ATOM      3  C   UNL     1       1.299   9.056  21.103  0.00  0.00    +0.000 A 
ATOM      4  O   UNL     1       1.397   8.794  22.299  0.00  0.00    +0.000 OA
ATOM      5  N   UNL     1       0.702  10.190  20.581  0.00  0.00    +0.000 N 
ATOM      6  C   UNL     1       0.649  10.386  19.210  0.00  0.00    +0.000 A 
ATOM      7  N   UNL     1       1.139   9.546  18.353  0.00  0.00    +0.000 NA
ATOM      8  C   UNL     1       0.013  11.679  18.672  0.00  0.00    +0.000 C 
ATOM      9  N   UNL     1      -1.417  11.794  18.991  0.00  0.00    +0.000 N 
ATOM     10  C   UNL     1      -2.345  11.516  17.983  0.00  0.00    +0.000 C 
ATOM     11  O   UNL     1      -1.973  11.308  16.826  0.00  0.00    +0.000 OA
ATOM     12  C   UNL     1      -1.735  12.282  20.327  0.00  0.00    +0.000 C 
ATOM     13  C   UNL     1      -1.379  11.258  21.396  0.00  0.00    +0.000 C 
ATOM     14  C   UNL     1       0.136  11.137  21.534  0.00  0.00    +0.000 C 
ENDROOT
BRANCH  10  15
ATOM     15  C   UNL     1      -3.772  11.544  18.270  0.00  0.00    +0.000 A 
ATOM     16  C   UNL     1      -4.808  10.643  18.070  0.00  0.00    +0.000 A 
ATOM     17  C   UNL     1      -6.000  11.209  18.587  0.00  0.00    +0.000 A 
ATOM     18  C   UNL     1      -5.692  12.474  19.025  0.00  0.00    +0.000 A 
ATOM     19  N   UNL     1      -4.359  12.682  18.788  0.00  0.00    +0.000 N 
ATOM     20  H   UNL     1      -3.848  13.536  18.978  0.00  0.00    +0.000 HD
ENDBRANCH  10  15
BRANCH   1  21
ATOM     21  C   UNL     1       2.178   7.382  17.790  0.00  0.00    +0.000 C 
BRANCH  21  22
ATOM     22  N   UNL     1       3.375   6.614  18.204  0.00  0.00    +0.000 NA
ATOM     23  C   UNL     1       4.537   7.070  17.441  0.00  0.00    +0.000 C 
BRANCH  22  25
ATOM     24  C   UNL     1       1.701   4.701  17.986  0.00  0.00    +0.000 C 
ATOM     25  C   UNL     1       3.159   5.146  18.153  0.00  0.00    +0.000 C 
ATOM     26  C   UNL     1       4.037   4.481  17.082  0.00  0.00    +0.000 C 
ENDBRANCH  22  25
ENDBRANCH  21  22
ENDBRANCH   1  21
TORSDOF 4
ENDMDL
MODEL 8
REMARK VINA RESULT:      -5.8      0.917      1.227
REMARK  Name = 
REMARK  7 active torsions:
REMARK  status: ('A' for Active; 'I' for Inactive)
REMARK    1  A    between atoms: C_1  and  C_2
REMARK    2  A    between atoms: C_2  and  C_3
REMARK    3  A    between atoms: C_2  and  N_4
REMARK    4  A    between atoms: N_4  and  C_5
REMARK    5  A    between atoms: N_4  and  C_6
REMARK    6  A    between atoms: C_6  and  C_7
REMARK    7  A    between atoms: C_16  and  C_18
REMARK                            x       y       z     vdW  Elec       q    Type
REMARK                         _______ _______ _______ _____ _____    ______ ____
ROOT
ATOM      1  C   UNL     1       1.587   8.595  19.259  0.00  0.00    +0.000 A 
ATOM      2  C   UNL     1       1.726   8.436  20.579  0.00  0.00    +0.000 A 
ATOM      3  C   UNL     1       1.181   9.460  21.469  0.00  0.00    +0.000 A 
ATOM      4  O   UNL     1       1.293   9.311  22.684  0.00  0.00    +0.000 OA
ATOM      5  N   UNL     1       0.565  10.533  20.851  0.00  0.00    +0.000 N 
ATOM      6  C   UNL     1       0.497  10.600  19.468  0.00  0.00    +0.000 A 
ATOM      7  N   UNL     1       0.990   9.691  18.687  0.00  0.00    +0.000 NA
ATOM      8  C   UNL     1      -0.161  11.831  18.820  0.00  0.00    +0.000 C 
ATOM      9  N   UNL     1      -1.589  11.957  19.141  0.00  0.00    +0.000 N 
ATOM     10  C   UNL     1      -2.523  11.576  18.172  0.00  0.00    +0.000 C 
ATOM     11  O   UNL     1      -2.158  11.266  17.036  0.00  0.00    +0.000 OA
ATOM     12  C   UNL     1      -1.901  12.563  20.429  0.00  0.00    +0.000 C 
ATOM     13  C   UNL     1      -1.523  11.647  21.585  0.00  0.00    +0.000 C 
ATOM     14  C   UNL     1      -0.005  11.558  21.718  0.00  0.00    +0.000 C 
ENDROOT
BRANCH  10  15
ATOM     15  C   UNL     1      -3.947  11.613  18.470  0.00  0.00    +0.000 A 
ATOM     16  C   UNL     1      -4.743  12.440  19.248  0.00  0.00    +0.000 A 
ATOM     17  C   UNL     1      -6.088  12.006  19.133  0.00  0.00    +0.000 A 
ATOM     18  C   UNL     1      -6.084  10.878  18.350  0.00  0.00    +0.000 A 
ATOM     19  N   UNL     1      -4.787  10.624  17.993  0.00  0.00    +0.000 N 
ATOM     20  H   UNL     1      -4.465   9.838  17.440  0.00  0.00    +0.000 HD
ENDBRANCH  10  15
BRANCH   1  21
ATOM     21  C   UNL     1       2.052   7.497  18.317  0.00  0.00    +0.000 C 
BRANCH  21  22
ATOM     22  N   UNL     1       2.631   6.324  19.013  0.00  0.00    +0.000 NA
ATOM     23  C   UNL     1       3.999   6.103  18.544  0.00  0.00    +0.000 C 
BRANCH  22  25
ATOM     24  C   UNL     1       2.228   4.044  17.943  0.00  0.00    +0.000 C 
ATOM     25  C   UNL     1       1.763   5.123  18.928  0.00  0.00    +0.000 C 
ATOM     26  C   UNL     1       1.521   4.500  20.312  0.00  0.00    +0.000 C 
ENDBRANCH  22  25
ENDBRANCH  21  22
ENDBRANCH   1  21
TORSDOF 4
ENDMDL
MODEL 9
REMARK VINA RESULT:      -5.8      3.343      8.293
REMARK  Name = 
REMARK  7 active torsions:
REMARK  status: ('A' for Active; 'I' for Inactive)
REMARK    1  A    between atoms: C_1  and  C_2
REMARK    2  A    between atoms: C_2  and  C_3
REMARK    3  A    between atoms: C_2  and  N_4
REMARK    4  A    between atoms: N_4  and  C_5
REMARK    5  A    between atoms: N_4  and  C_6
REMARK    6  A    between atoms: C_6  and  C_7
REMARK    7  A    between atoms: C_16  and  C_18
REMARK                            x       y       z     vdW  Elec       q    Type
REMARK                         _______ _______ _______ _____ _____    ______ ____
ROOT
ATOM      1  C   UNL     1      -5.306  12.654  21.015  0.00  0.00    +0.000 A 
ATOM      2  C   UNL     1      -6.109  12.036  20.143  0.00  0.00    +0.000 A 
ATOM      3  C   UNL     1      -5.528  11.490  18.919  0.00  0.00    +0.000 A 
ATOM      4  O   UNL     1      -6.260  10.908  18.122  0.00  0.00    +0.000 OA
ATOM      5  N   UNL     1      -4.166  11.675  18.761  0.00  0.00    +0.000 N 
ATOM      6  C   UNL     1      -3.435  12.351  19.726  0.00  0.00    +0.000 A 
ATOM      7  N   UNL     1      -3.962  12.838  20.805  0.00  0.00    +0.000 NA
ATOM      8  C   UNL     1      -1.930  12.571  19.492  0.00  0.00    +0.000 C 
ATOM      9  N   UNL     1      -1.166  11.318  19.440  0.00  0.00    +0.000 N 
ATOM     10  C   UNL     1      -0.423  10.947  20.565  0.00  0.00    +0.000 C 
ATOM     11  O   UNL     1      -0.310  11.714  21.524  0.00  0.00    +0.000 OA
ATOM     12  C   UNL     1      -1.183  10.613  18.164  0.00  0.00    +0.000 C 
ATOM     13  C   UNL     1      -2.554  10.017  17.874  0.00  0.00    +0.000 C 
ATOM     14  C   UNL     1      -3.558  11.121  17.557  0.00  0.00    +0.000 C 
ENDROOT
BRANCH  10  15
ATOM     15  C   UNL     1       0.291   9.679  20.589  0.00  0.00    +0.000 A 
ATOM     16  C   UNL     1       0.252   8.572  21.424  0.00  0.00    +0.000 A 
ATOM     17  C   UNL     1       1.164   7.606  20.932  0.00  0.00    +0.000 A 
ATOM     18  C   UNL     1       1.802   8.164  19.852  0.00  0.00    +0.000 A 
ATOM     19  N   UNL     1       1.302   9.427  19.681  0.00  0.00    +0.000 N 
ATOM     20  H   UNL     1       1.601  10.096  18.980  0.00  0.00    +0.000 HD
ENDBRANCH  10  15
BRANCH   1  21
ATOM     21  C   UNL     1      -5.866  13.139  22.342  0.00  0.00    +0.000 C 
BRANCH  21  22
ATOM     22  N   UNL     1      -4.824  13.567  23.304  0.00  0.00    +0.000 NA
ATOM     23  C   UNL     1      -4.747  12.602  24.402  0.00  0.00    +0.000 C 
BRANCH  22  25
ATOM     24  C   UNL     1      -4.218  16.017  22.940  0.00  0.00    +0.000 C 
ATOM     25  C   UNL     1      -4.996  14.972  23.748  0.00  0.00    +0.000 C 
ATOM     26  C   UNL     1      -6.480  15.365  23.822  0.00  0.00    +0.000 C 
ENDBRANCH  22  25
ENDBRANCH  21  22
ENDBRANCH   1  21
TORSDOF 4
ENDMDL
