MODEL 1
REMARK VINA RESULT:      -8.9      0.000      0.000
REMARK  Name = 
REMARK  2 active torsions:
REMARK  status: ('A' for Active; 'I' for Inactive)
REMARK    1  A    between atoms: C_1  and  N_2
REMARK    2  A    between atoms: N_5  and  C_6
REMARK                            x       y       z     vdW  Elec       q    Type
REMARK                         _______ _______ _______ _____ _____    ______ ____
ROOT
ATOM      1  C   UNL     1       5.307   5.019  17.510  0.00  0.00    +0.000 A 
ATOM      2  N   UNL     1       6.126   5.913  18.136  0.00  0.00    +0.000 NA
ATOM      3  C   UNL     1       7.175   6.455  17.504  0.00  0.00    +0.000 A 
ATOM      4  N   UNL     1       7.945   7.331  18.245  0.00  0.00    +0.000 N 
ATOM      5  N   UNL     1       7.572   6.192  16.260  0.00  0.00    +0.000 NA
ATOM      6  C   UNL     1       6.764   5.334  15.601  0.00  0.00    +0.000 A 
ATOM      7  C   UNL     1       5.649   4.751  16.183  0.00  0.00    +0.000 A 
ATOM      8  O   UNL     1       5.016   3.948  15.277  0.00  0.00    +0.000 OA
ATOM      9  C   UNL     1       5.728   4.019  14.118  0.00  0.00    +0.000 A 
ATOM     10  C   UNL     1       5.402   3.358  12.932  0.00  0.00    +0.000 A 
ATOM     11  C   UNL     1       6.259   3.562  11.843  0.00  0.00    +0.000 A 
ATOM     12  C   UNL     1       7.388   4.376  11.959  0.00  0.00    +0.000 A 
ATOM     13  C   UNL     1       7.680   5.018  13.167  0.00  0.00    +0.000 A 
ATOM     14  F   UNL     1       8.771   5.791  13.246  0.00  0.00    +0.000 F 
ATOM     15  C   UNL     1       6.832   4.849  14.270  0.00  0.00    +0.000 A 
ATOM     16  H   UNL     1       7.817   7.138  19.228  0.00  0.00    +0.000 HD
ATOM     17  H   UNL     1       8.894   7.335  17.893  0.00  0.00    +0.000 HD
ENDROOT
BRANCH   1  22
ATOM     18  C   UNL     1       1.373   3.297  21.101  0.00  0.00    +0.000 C 
ATOM     19  N   UNL     1       2.110   3.366  19.841  0.00  0.00    +0.000 NA
ATOM     20  C   UNL     1       3.513   2.936  20.038  0.00  0.00    +0.000 C 
ATOM     21  C   UNL     1       4.376   3.059  18.758  0.00  0.00    +0.000 C 
ATOM     22  N   UNL     1       4.296   4.429  18.246  0.00  0.00    +0.000 N 
ATOM     23  C   UNL     1       2.924   4.907  18.018  0.00  0.00    +0.000 C 
ATOM     24  C   UNL     1       2.095   4.750  19.313  0.00  0.00    +0.000 C 
ENDBRANCH   1  22
TORSDOF 1
ENDMDL
MODEL 2
REMARK VINA RESULT:      -8.8      0.555      1.124
REMARK  Name = 
REMARK  2 active torsions:
REMARK  status: ('A' for Active; 'I' for Inactive)
REMARK    1  A    between atoms: C_1  and  N_2
REMARK    2  A    between atoms: N_5  and  C_6
REMARK                            x       y       z     vdW  Elec       q    Type
REMARK                         _______ _______ _______ _____ _____    ______ ____
ROOT
ATOM      1  C   UNL     1       5.456   5.331  17.718  0.00  0.00    +0.000 A 
ATOM      2  N   UNL     1       6.303   6.269  18.231  0.00  0.00    +0.000 NA
ATOM      3  C   UNL     1       7.314   6.764  17.504  0.00  0.00    +0.000 A 
ATOM      4  N   UNL     1       8.118   7.693  18.136  0.00  0.00    +0.000 N 
ATOM      5  N   UNL     1       7.643   6.411  16.264  0.00  0.00    +0.000 NA
ATOM      6  C   UNL     1       6.804   5.507  15.714  0.00  0.00    +0.000 A 
ATOM      7  C   UNL     1       5.726   4.966  16.398  0.00  0.00    +0.000 A 
ATOM      8  O   UNL     1       5.048   4.098  15.589  0.00  0.00    +0.000 OA
ATOM      9  C   UNL     1       5.695   4.085  14.390  0.00  0.00    +0.000 A 
ATOM     10  C   UNL     1       5.308   3.339  13.276  0.00  0.00    +0.000 A 
ATOM     11  C   UNL     1       6.103   3.463  12.129  0.00  0.00    +0.000 A 
ATOM     12  C   UNL     1       7.232   4.285  12.124  0.00  0.00    +0.000 A 
ATOM     13  C   UNL     1       7.587   5.014  13.263  0.00  0.00    +0.000 A 
ATOM     14  F   UNL     1       8.677   5.791  13.225  0.00  0.00    +0.000 F 
ATOM     15  C   UNL     1       6.802   4.926  14.421  0.00  0.00    +0.000 A 
ATOM     16  H   UNL     1       8.045   7.573  19.136  0.00  0.00    +0.000 HD
ATOM     17  H   UNL     1       9.047   7.672  17.733  0.00  0.00    +0.000 HD
ENDROOT
BRANCH   1  22
ATOM     18  C   UNL     1       1.163   2.846  20.313  0.00  0.00    +0.000 C 
ATOM     19  N   UNL     1       2.456   3.515  20.187  0.00  0.00    +0.000 NA
ATOM     20  C   UNL     1       2.281   4.876  19.633  0.00  0.00    +0.000 C 
ATOM     21  C   UNL     1       3.621   5.618  19.397  0.00  0.00    +0.000 C 
ATOM     22  N   UNL     1       4.489   4.796  18.550  0.00  0.00    +0.000 N 
ATOM     23  C   UNL     1       4.709   3.433  19.057  0.00  0.00    +0.000 C 
ATOM     24  C   UNL     1       3.350   2.739  19.295  0.00  0.00    +0.000 C 
ENDBRANCH   1  22
TORSDOF 1
ENDMDL
MODEL 3
REMARK VINA RESULT:      -7.7      4.037      7.326
REMARK  Name = 
REMARK  2 active torsions:
REMARK  status: ('A' for Active; 'I' for Inactive)
REMARK    1  A    between atoms: C_1  and  N_2
REMARK    2  A    between atoms: N_5  and  C_6
REMARK                            x       y       z     vdW  Elec       q    Type
REMARK                         _______ _______ _______ _____ _____    ______ ____
ROOT
ATOM      1  C   UNL     1       3.597   5.387  18.709  0.00  0.00    +0.000 A 
ATOM      2  N   UNL     1       3.299   4.474  19.677  0.00  0.00    +0.000 NA
ATOM      3  C   UNL     1       2.446   4.765  20.668  0.00  0.00    +0.000 A 
ATOM      4  N   UNL     1       2.237   3.770  21.603  0.00  0.00    +0.000 N 
ATOM      5  N   UNL     1       1.827   5.928  20.863  0.00  0.00    +0.000 NA
ATOM      6  C   UNL     1       2.076   6.845  19.903  0.00  0.00    +0.000 A 
ATOM      7  C   UNL     1       2.930   6.607  18.837  0.00  0.00    +0.000 A 
ATOM      8  O   UNL     1       2.972   7.701  18.020  0.00  0.00    +0.000 OA
ATOM      9  C   UNL     1       2.146   8.636  18.565  0.00  0.00    +0.000 A 
ATOM     10  C   UNL     1       1.889   9.896  18.023  0.00  0.00    +0.000 A 
ATOM     11  C   UNL     1       1.002  10.717  18.732  0.00  0.00    +0.000 A 
ATOM     12  C   UNL     1       0.425  10.286  19.928  0.00  0.00    +0.000 A 
ATOM     13  C   UNL     1       0.711   9.016  20.439  0.00  0.00    +0.000 A 
ATOM     14  F   UNL     1       0.142   8.633  21.589  0.00  0.00    +0.000 F 
ATOM     15  C   UNL     1       1.580   8.164  19.743  0.00  0.00    +0.000 A 
ATOM     16  H   UNL     1       3.025   3.138  21.599  0.00  0.00    +0.000 HD
ATOM     17  H   UNL     1       1.977   4.183  22.490  0.00  0.00    +0.000 HD
ENDROOT
BRANCH   1  22
ATOM     18  C   UNL     1       7.219   4.821  14.478  0.00  0.00    +0.000 C 
ATOM     19  N   UNL     1       6.611   4.542  15.777  0.00  0.00    +0.000 NA
ATOM     20  C   UNL     1       5.214   4.082  15.605  0.00  0.00    +0.000 C 
ATOM     21  C   UNL     1       4.479   3.842  16.947  0.00  0.00    +0.000 C 
ATOM     22  N   UNL     1       4.553   5.055  17.766  0.00  0.00    +0.000 N 
ATOM     23  C   UNL     1       5.920   5.553  17.982  0.00  0.00    +0.000 C 
ATOM     24  C   UNL     1       6.621   5.760  16.621  0.00  0.00    +0.000 C 
ENDBRANCH   1  22
TORSDOF 1
ENDMDL
MODEL 4
REMARK VINA RESULT:      -7.4      3.843      5.786
REMARK  Name = 
REMARK  2 active torsions:
REMARK  status: ('A' for Active; 'I' for Inactive)
REMARK    1  A    between atoms: C_1  and  N_2
REMARK    2  A    between atoms: N_5  and  C_6
REMARK                            x       y       z     vdW  Elec       q    Type
REMARK                         _______ _______ _______ _____ _____    ______ ____
ROOT
ATOM      1  C   UNL     1       1.937   6.637  19.934  0.00  0.00    +0.000 A 
ATOM      2  N   UNL     1       1.414   5.607  20.660  0.00  0.00    +0.000 NA
ATOM      3  C   UNL     1       1.713   4.333  20.374  0.00  0.00    +0.000 A 
ATOM      4  N   UNL     1       1.109   3.375  21.164  0.00  0.00    +0.000 N 
ATOM      5  N   UNL     1       2.488   3.907  19.379  0.00  0.00    +0.000 NA
ATOM      6  C   UNL     1       3.047   4.903  18.659  0.00  0.00    +0.000 A 
ATOM      7  C   UNL     1       2.801   6.244  18.910  0.00  0.00    +0.000 A 
ATOM      8  O   UNL     1       3.515   7.020  18.041  0.00  0.00    +0.000 OA
ATOM      9  C   UNL     1       4.215   6.174  17.236  0.00  0.00    +0.000 A 
ATOM     10  C   UNL     1       5.088   6.568  16.221  0.00  0.00    +0.000 A 
ATOM     11  C   UNL     1       5.720   5.545  15.503  0.00  0.00    +0.000 A 
ATOM     12  C   UNL     1       5.465   4.202  15.791  0.00  0.00    +0.000 A 
ATOM     13  C   UNL     1       4.581   3.850  16.814  0.00  0.00    +0.000 A 
ATOM     14  F   UNL     1       4.356   2.553  17.064  0.00  0.00    +0.000 F 
ATOM     15  C   UNL     1       3.946   4.850  17.564  0.00  0.00    +0.000 A 
ATOM     16  H   UNL     1       0.270   3.761  21.575  0.00  0.00    +0.000 HD
ATOM     17  H   UNL     1       1.014   2.512  20.644  0.00  0.00    +0.000 HD
ENDROOT
BRANCH   1  22
ATOM     18  C   UNL     1      -0.587  11.464  21.228  0.00  0.00    +0.000 C 
ATOM     19  N   UNL     1       0.526  10.552  20.972  0.00  0.00    +0.000 NA
ATOM     20  C   UNL     1       0.478  10.057  19.578  0.00  0.00    +0.000 C 
ATOM     21  C   UNL     1       1.584   9.021  19.257  0.00  0.00    +0.000 C 
ATOM     22  N   UNL     1       1.518   7.923  20.224  0.00  0.00    +0.000 N 
ATOM     23  C   UNL     1       1.574   8.354  21.629  0.00  0.00    +0.000 C 
ATOM     24  C   UNL     1       0.467   9.398  21.899  0.00  0.00    +0.000 C 
ENDBRANCH   1  22
TORSDOF 1
ENDMDL
MODEL 5
REMARK VINA RESULT:      -7.3      3.911      5.699
REMARK  Name = 
REMARK  2 active torsions:
REMARK  status: ('A' for Active; 'I' for Inactive)
REMARK    1  A    between atoms: C_1  and  N_2
REMARK    2  A    between atoms: N_5  and  C_6
REMARK                            x       y       z     vdW  Elec       q    Type
REMARK                         _______ _______ _______ _____ _____    ______ ____
ROOT
ATOM      1  C   UNL     1       2.122   6.821  19.850  0.00  0.00    +0.000 A 
ATOM      2  N   UNL     1       1.713   5.826  20.688  0.00  0.00    +0.000 NA
ATOM      3  C   UNL     1       2.076   4.553  20.485  0.00  0.00    +0.000 A 
ATOM      4  N   UNL     1       1.584   3.629  21.386  0.00  0.00    +0.000 N 
ATOM      5  N   UNL     1       2.815   4.092  19.478  0.00  0.00    +0.000 NA
ATOM      6  C   UNL     1       3.264   5.057  18.646  0.00  0.00    +0.000 A 
ATOM      7  C   UNL     1       2.947   6.398  18.806  0.00  0.00    +0.000 A 
ATOM      8  O   UNL     1       3.554   7.140  17.834  0.00  0.00    +0.000 OA
ATOM      9  C   UNL     1       4.258   6.274  17.054  0.00  0.00    +0.000 A 
ATOM     10  C   UNL     1       5.041   6.634  15.956  0.00  0.00    +0.000 A 
ATOM     11  C   UNL     1       5.694   5.594  15.281  0.00  0.00    +0.000 A 
ATOM     12  C   UNL     1       5.545   4.267  15.690  0.00  0.00    +0.000 A 
ATOM     13  C   UNL     1       4.748   3.948  16.794  0.00  0.00    +0.000 A 
ATOM     14  F   UNL     1       4.625   2.666  17.159  0.00  0.00    +0.000 F 
ATOM     15  C   UNL     1       4.097   4.968  17.502  0.00  0.00    +0.000 A 
ATOM     16  H   UNL     1       0.749   3.997  21.820  0.00  0.00    +0.000 HD
ATOM     17  H   UNL     1       1.515   2.721  20.943  0.00  0.00    +0.000 HD
ENDROOT
BRANCH   1  22
ATOM     18  C   UNL     1       1.043  12.253  20.670  0.00  0.00    +0.000 C 
ATOM     19  N   UNL     1       0.752  10.849  20.388  0.00  0.00    +0.000 NA
ATOM     20  C   UNL     1       1.132  10.001  21.541  0.00  0.00    +0.000 C 
ATOM     21  C   UNL     1       0.924   8.488  21.283  0.00  0.00    +0.000 C 
ATOM     22  N   UNL     1       1.638   8.099  20.065  0.00  0.00    +0.000 N 
ATOM     23  C   UNL     1       1.292   8.901  18.881  0.00  0.00    +0.000 C 
ATOM     24  C   UNL     1       1.496  10.401  19.189  0.00  0.00    +0.000 C 
ENDBRANCH   1  22
TORSDOF 1
ENDMDL
MODEL 6
REMARK VINA RESULT:      -7.1      4.211      6.712
REMARK  Name = 
REMARK  2 active torsions:
REMARK  status: ('A' for Active; 'I' for Inactive)
REMARK    1  A    between atoms: C_1  and  N_2
REMARK    2  A    between atoms: N_5  and  C_6
REMARK                            x       y       z     vdW  Elec       q    Type
REMARK                         _______ _______ _______ _____ _____    ______ ____
ROOT
ATOM      1  C   UNL     1       2.549   7.577  18.569  0.00  0.00    +0.000 A 
ATOM      2  N   UNL     1       3.441   7.725  17.547  0.00  0.00    +0.000 NA
ATOM      3  C   UNL     1       4.307   6.752  17.234  0.00  0.00    +0.000 A 
ATOM      4  N   UNL     1       5.176   7.023  16.195  0.00  0.00    +0.000 N 
ATOM      5  N   UNL     1       4.442   5.583  17.856  0.00  0.00    +0.000 NA
ATOM      6  C   UNL     1       3.552   5.390  18.853  0.00  0.00    +0.000 A 
ATOM      7  C   UNL     1       2.613   6.343  19.220  0.00  0.00    +0.000 A 
ATOM      8  O   UNL     1       1.839   5.867  20.240  0.00  0.00    +0.000 OA
ATOM      9  C   UNL     1       2.284   4.612  20.524  0.00  0.00    +0.000 A 
ATOM     10  C   UNL     1       1.744   3.768  21.495  0.00  0.00    +0.000 A 
ATOM     11  C   UNL     1       2.340   2.508  21.635  0.00  0.00    +0.000 A 
ATOM     12  C   UNL     1       3.430   2.137  20.845  0.00  0.00    +0.000 A 
ATOM     13  C   UNL     1       3.943   3.014  19.884  0.00  0.00    +0.000 A 
ATOM     14  F   UNL     1       4.990   2.629  19.144  0.00  0.00    +0.000 F 
ATOM     15  C   UNL     1       3.357   4.275  19.707  0.00  0.00    +0.000 A 
ATOM     16  H   UNL     1       5.269   8.024  16.090  0.00  0.00    +0.000 HD
ATOM     17  H   UNL     1       6.028   6.489  16.313  0.00  0.00    +0.000 HD
ENDROOT
BRANCH   1  22
ATOM     18  C   UNL     1      -1.402  11.336  19.832  0.00  0.00    +0.000 C 
ATOM     19  N   UNL     1      -0.051  10.795  19.698  0.00  0.00    +0.000 NA
ATOM     20  C   UNL     1       0.252  10.507  18.278  0.00  0.00    +0.000 C 
ATOM     21  C   UNL     1       1.641   9.855  18.068  0.00  0.00    +0.000 C 
ATOM     22  N   UNL     1       1.745   8.653  18.898  0.00  0.00    +0.000 N 
ATOM     23  C   UNL     1       1.466   8.879  20.324  0.00  0.00    +0.000 C 
ATOM     24  C   UNL     1       0.081   9.546  20.485  0.00  0.00    +0.000 C 
ENDBRANCH   1  22
TORSDOF 1
ENDMDL
MODEL 7
REMARK VINA RESULT:      -6.9      4.376      7.776
REMARK  Name = 
REMARK  2 active torsions:
REMARK  status: ('A' for Active; 'I' for Inactive)
REMARK    1  A    between atoms: C_1  and  N_2
REMARK    2  A    between atoms: N_5  and  C_6
REMARK                            x       y       z     vdW  Elec       q    Type
REMARK                         _______ _______ _______ _____ _____    ______ ____
ROOT
ATOM      1  C   UNL     1       3.137   5.806  18.755  0.00  0.00    +0.000 A 
ATOM      2  N   UNL     1       2.977   4.786  19.647  0.00  0.00    +0.000 NA
ATOM      3  C   UNL     1       2.240   4.940  20.754  0.00  0.00    +0.000 A 
ATOM      4  N   UNL     1       2.167   3.845  21.593  0.00  0.00    +0.000 N 
ATOM      5  N   UNL     1       1.620   6.052  21.143  0.00  0.00    +0.000 NA
ATOM      6  C   UNL     1       1.731   7.073  20.266  0.00  0.00    +0.000 A 
ATOM      7  C   UNL     1       2.460   6.980  19.090  0.00  0.00    +0.000 A 
ATOM      8  O   UNL     1       2.379   8.155  18.397  0.00  0.00    +0.000 OA
ATOM      9  C   UNL     1       1.599   8.996  19.130  0.00  0.00    +0.000 A 
ATOM     10  C   UNL     1       1.249  10.295  18.761  0.00  0.00    +0.000 A 
ATOM     11  C   UNL     1       0.432  11.004  19.652  0.00  0.00    +0.000 A 
ATOM     12  C   UNL     1       0.010  10.429  20.852  0.00  0.00    +0.000 A 
ATOM     13  C   UNL     1       0.385   9.124  21.186  0.00  0.00    +0.000 A 
ATOM     14  F   UNL     1      -0.035   8.602  22.346  0.00  0.00    +0.000 F 
ATOM     15  C   UNL     1       1.187   8.382  20.308  0.00  0.00    +0.000 A 
ATOM     16  H   UNL     1       2.964   3.247  21.431  0.00  0.00    +0.000 HD
ATOM     17  H   UNL     1       2.003   4.153  22.544  0.00  0.00    +0.000 HD
ENDROOT
BRANCH   1  22
ATOM     18  C   UNL     1       7.129   4.626  15.011  0.00  0.00    +0.000 C 
ATOM     19  N   UNL     1       5.808   5.025  15.491  0.00  0.00    +0.000 NA
ATOM     20  C   UNL     1       5.901   6.271  16.286  0.00  0.00    +0.000 C 
ATOM     21  C   UNL     1       4.547   6.712  16.895  0.00  0.00    +0.000 C 
ATOM     22  N   UNL     1       3.984   5.610  17.679  0.00  0.00    +0.000 N 
ATOM     23  C   UNL     1       3.855   4.347  16.936  0.00  0.00    +0.000 C 
ATOM     24  C   UNL     1       5.222   3.955  16.332  0.00  0.00    +0.000 C 
ENDBRANCH   1  22
TORSDOF 1
ENDMDL
MODEL 8
REMARK VINA RESULT:      -6.8      4.000      6.133
REMARK  Name = 
REMARK  2 active torsions:
REMARK  status: ('A' for Active; 'I' for Inactive)
REMARK    1  A    between atoms: C_1  and  N_2
REMARK    2  A    between atoms: N_5  and  C_6
REMARK                            x       y       z     vdW  Elec       q    Type
REMARK                         _______ _______ _______ _____ _____    ______ ____
ROOT
ATOM      1  C   UNL     1       2.688   7.394  18.178  0.00  0.00    +0.000 A 
ATOM      2  N   UNL     1       3.762   7.666  17.381  0.00  0.00    +0.000 NA
ATOM      3  C   UNL     1       4.532   6.684  16.894  0.00  0.00    +0.000 A 
ATOM      4  N   UNL     1       5.603   7.081  16.117  0.00  0.00    +0.000 N 
ATOM      5  N   UNL     1       4.394   5.381  17.127  0.00  0.00    +0.000 NA
ATOM      6  C   UNL     1       3.320   5.074  17.887  0.00  0.00    +0.000 A 
ATOM      7  C   UNL     1       2.467   6.035  18.408  0.00  0.00    +0.000 A 
ATOM      8  O   UNL     1       1.465   5.434  19.115  0.00  0.00    +0.000 OA
ATOM      9  C   UNL     1       1.678   4.091  19.045  0.00  0.00    +0.000 A 
ATOM     10  C   UNL     1       0.863   3.115  19.620  0.00  0.00    +0.000 A 
ATOM     11  C   UNL     1       1.250   1.782  19.433  0.00  0.00    +0.000 A 
ATOM     12  C   UNL     1       2.405   1.463  18.716  0.00  0.00    +0.000 A 
ATOM     13  C   UNL     1       3.196   2.472  18.157  0.00  0.00    +0.000 A 
ATOM     14  F   UNL     1       4.299   2.132  17.477  0.00  0.00    +0.000 F 
ATOM     15  C   UNL     1       2.827   3.815  18.311  0.00  0.00    +0.000 A 
ATOM     16  H   UNL     1       5.847   8.034  16.346  0.00  0.00    +0.000 HD
ATOM     17  H   UNL     1       6.340   6.389  16.171  0.00  0.00    +0.000 HD
ENDROOT
BRANCH   1  22
ATOM     18  C   UNL     1      -0.881  11.159  20.282  0.00  0.00    +0.000 C 
ATOM     19  N   UNL     1       0.414  10.563  19.961  0.00  0.00    +0.000 NA
ATOM     20  C   UNL     1       0.591  10.468  18.495  0.00  0.00    +0.000 C 
ATOM     21  C   UNL     1       1.911   9.772  18.080  0.00  0.00    +0.000 C 
ATOM     22  N   UNL     1       1.989   8.457  18.721  0.00  0.00    +0.000 N 
ATOM     23  C   UNL     1       1.833   8.489  20.183  0.00  0.00    +0.000 C 
ATOM     24  C   UNL     1       0.515   9.207  20.551  0.00  0.00    +0.000 C 
ENDBRANCH   1  22
TORSDOF 1
ENDMDL
MODEL 9
REMARK VINA RESULT:      -6.8      4.315      6.728
REMARK  Name = 
REMARK  2 active torsions:
REMARK  status: ('A' for Active; 'I' for Inactive)
REMARK    1  A    between atoms: C_1  and  N_2
REMARK    2  A    between atoms: N_5  and  C_6
REMARK                            x       y       z     vdW  Elec       q    Type
REMARK                         _______ _______ _______ _____ _____    ______ ____
ROOT
ATOM      1  C   UNL     1       2.612   7.655  18.633  0.00  0.00    +0.000 A 
ATOM      2  N   UNL     1       3.432   7.797  17.552  0.00  0.00    +0.000 NA
ATOM      3  C   UNL     1       4.244   6.806  17.161  0.00  0.00    +0.000 A 
ATOM      4  N   UNL     1       5.043   7.072  16.066  0.00  0.00    +0.000 N 
ATOM      5  N   UNL     1       4.391   5.623  17.753  0.00  0.00    +0.000 NA
ATOM      6  C   UNL     1       3.570   5.437  18.809  0.00  0.00    +0.000 A 
ATOM      7  C   UNL     1       2.688   6.408  19.258  0.00  0.00    +0.000 A 
ATOM      8  O   UNL     1       1.977   5.935  20.324  0.00  0.00    +0.000 OA
ATOM      9  C   UNL     1       2.405   4.663  20.555  0.00  0.00    +0.000 A 
ATOM     10  C   UNL     1       1.914   3.817  21.550  0.00  0.00    +0.000 A 
ATOM     11  C   UNL     1       2.482   2.539  21.626  0.00  0.00    +0.000 A 
ATOM     12  C   UNL     1       3.501   2.153  20.752  0.00  0.00    +0.000 A 
ATOM     13  C   UNL     1       3.967   3.033  19.770  0.00  0.00    +0.000 A 
ATOM     14  F   UNL     1       4.946   2.632  18.949  0.00  0.00    +0.000 F 
ATOM     15  C   UNL     1       3.406   4.312  19.656  0.00  0.00    +0.000 A 
ATOM     16  H   UNL     1       5.156   8.071  15.969  0.00  0.00    +0.000 HD
ATOM     17  H   UNL     1       5.885   6.513  16.112  0.00  0.00    +0.000 HD
ENDROOT
BRANCH   1  22
ATOM     18  C   UNL     1       0.394  12.502  20.344  0.00  0.00    +0.000 C 
ATOM     19  N   UNL     1       0.413  11.151  19.786  0.00  0.00    +0.000 NA
ATOM     20  C   UNL     1       0.909  10.184  20.790  0.00  0.00    +0.000 C 
ATOM     21  C   UNL     1       1.031   8.740  20.242  0.00  0.00    +0.000 C 
ATOM     22  N   UNL     1       1.865   8.746  19.038  0.00  0.00    +0.000 N 
ATOM     23  C   UNL     1       1.412   9.681  17.997  0.00  0.00    +0.000 C 
ATOM     24  C   UNL     1       1.287  11.102  18.591  0.00  0.00    +0.000 C 
ENDBRANCH   1  22
TORSDOF 1
ENDMDL
