MODEL 1
REMARK VINA RESULT:      -8.1      0.000      0.000
REMARK  Name = 
REMARK  5 active torsions:
REMARK  status: ('A' for Active; 'I' for Inactive)
REMARK    1  A    between atoms: C_1  and  O_2
REMARK    2  A    between atoms: O_2  and  C_3
REMARK    3  A    between atoms: C_8  and  O_9
REMARK    4  A    between atoms: O_9  and  C_10
REMARK    5  A    between atoms: N_19  and  O_20
REMARK                            x       y       z     vdW  Elec       q    Type
REMARK                         _______ _______ _______ _____ _____    ______ ____
ROOT
ATOM      1  C   UNL     1       2.040   8.558  18.853  0.00  0.00    +0.000 A 
ATOM      2  C   UNL     1       2.925   8.102  17.860  0.00  0.00    +0.000 A 
ATOM      3  C   UNL     1       3.427   6.796  17.863  0.00  0.00    +0.000 A 
ATOM      4  C   UNL     1       3.002   5.914  18.865  0.00  0.00    +0.000 A 
ATOM      5  C   UNL     1       2.135   6.358  19.884  0.00  0.00    +0.000 A 
ATOM      6  C   UNL     1       1.661   7.687  19.894  0.00  0.00    +0.000 A 
ATOM      7  C   UNL     1       1.820   5.363  20.983  0.00  0.00    +0.000 C 
ATOM      8  C   UNL     1       1.472   3.990  20.407  0.00  0.00    +0.000 C 
ATOM      9  C   UNL     1       2.376   3.526  19.257  0.00  0.00    +0.000 C 
ATOM     10  C   UNL     1       3.523   4.491  18.926  0.00  0.00    +0.000 C 
ATOM     11  C   UNL     1       4.216   4.081  17.615  0.00  0.00    +0.000 C 
ATOM     12  N   UNL     1       5.114   5.156  17.178  0.00  0.00    +0.000 N 
ATOM     13  C   UNL     1       6.460   4.988  17.006  0.00  0.00    +0.000 C 
ATOM     14  N   UNL     1       7.199   5.628  16.153  0.00  0.00    +0.000 NA
ATOM     15  N   UNL     1       7.050   4.058  17.828  0.00  0.00    +0.000 N 
ATOM     16  C   UNL     1       4.401   6.368  16.785  0.00  0.00    +0.000 C 
ATOM     17  H   UNL     1       6.615   6.253  15.598  0.00  0.00    +0.000 HD
ATOM     18  H   UNL     1       6.728   4.111  18.790  0.00  0.00    +0.000 HD
ENDROOT
BRANCH   1  20
ATOM     19  C   UNL     1       0.274  10.082  18.348  0.00  0.00    +0.000 C 
ATOM     20  O   UNL     1       1.583   9.851  18.861  0.00  0.00    +0.000 OA
ENDBRANCH   1  20
BRANCH   6  21
ATOM     21  O   UNL     1       0.847   7.971  20.961  0.00  0.00    +0.000 OA
ATOM     22  C   UNL     1       1.281   8.880  21.959  0.00  0.00    +0.000 C 
ENDBRANCH   6  21
BRANCH  15  23
ATOM     23  O   UNL     1       8.454   4.086  17.742  0.00  0.00    +0.000 OA
ATOM     24  H   UNL     1       8.672   3.123  17.708  0.00  0.00    +0.000 HD
ENDBRANCH  15  23
TORSDOF 3
ENDMDL
MODEL 2
REMARK VINA RESULT:      -7.3      2.831      5.743
REMARK  Name = 
REMARK  5 active torsions:
REMARK  status: ('A' for Active; 'I' for Inactive)
REMARK    1  A    between atoms: C_1  and  O_2
REMARK    2  A    between atoms: O_2  and  C_3
REMARK    3  A    between atoms: C_8  and  O_9
REMARK    4  A    between atoms: O_9  and  C_10
REMARK    5  A    between atoms: N_19  and  O_20
REMARK                            x       y       z     vdW  Elec       q    Type
REMARK                         _______ _______ _______ _____ _____    ______ ____
ROOT
ATOM      1  C   UNL     1       4.292   4.163  16.858  0.00  0.00    +0.000 A 
ATOM      2  C   UNL     1       4.336   5.561  16.996  0.00  0.00    +0.000 A 
ATOM      3  C   UNL     1       3.480   6.243  17.869  0.00  0.00    +0.000 A 
ATOM      4  C   UNL     1       2.585   5.501  18.649  0.00  0.00    +0.000 A 
ATOM      5  C   UNL     1       2.507   4.101  18.508  0.00  0.00    +0.000 A 
ATOM      6  C   UNL     1       3.349   3.424  17.599  0.00  0.00    +0.000 A 
ATOM      7  C   UNL     1       1.433   3.399  19.313  0.00  0.00    +0.000 C 
ATOM      8  C   UNL     1       1.411   3.893  20.761  0.00  0.00    +0.000 C 
ATOM      9  C   UNL     1       1.554   5.412  20.925  0.00  0.00    +0.000 C 
ATOM     10  C   UNL     1       1.624   6.187  19.601  0.00  0.00    +0.000 C 
ATOM     11  C   UNL     1       2.019   7.653  19.851  0.00  0.00    +0.000 C 
ATOM     12  N   UNL     1       2.346   8.297  18.575  0.00  0.00    +0.000 N 
ATOM     13  C   UNL     1       1.685   9.394  18.094  0.00  0.00    +0.000 C 
ATOM     14  N   UNL     1       2.199  10.317  17.342  0.00  0.00    +0.000 NA
ATOM     15  N   UNL     1       0.362   9.493  18.455  0.00  0.00    +0.000 N 
ATOM     16  C   UNL     1       3.552   7.753  17.955  0.00  0.00    +0.000 C 
ATOM     17  H   UNL     1       3.189  10.122  17.191  0.00  0.00    +0.000 HD
ATOM     18  H   UNL     1      -0.137   8.611  18.393  0.00  0.00    +0.000 HD
ENDROOT
BRANCH   1  20
ATOM     19  C   UNL     1       6.324   4.157  15.605  0.00  0.00    +0.000 C 
ATOM     20  O   UNL     1       5.111   3.508  15.973  0.00  0.00    +0.000 OA
ENDBRANCH   1  20
BRANCH   6  21
ATOM     21  O   UNL     1       3.137   2.069  17.560  0.00  0.00    +0.000 OA
ATOM     22  C   UNL     1       3.840   1.218  18.450  0.00  0.00    +0.000 C 
ENDBRANCH   6  21
BRANCH  15  23
ATOM     23  O   UNL     1      -0.302  10.522  17.764  0.00  0.00    +0.000 OA
ATOM     24  H   UNL     1      -1.248  10.257  17.870  0.00  0.00    +0.000 HD
ENDBRANCH  15  23
TORSDOF 3
ENDMDL
MODEL 3
REMARK VINA RESULT:      -6.8      3.179      5.815
REMARK  Name = 
REMARK  5 active torsions:
REMARK  status: ('A' for Active; 'I' for Inactive)
REMARK    1  A    between atoms: C_1  and  O_2
REMARK    2  A    between atoms: O_2  and  C_3
REMARK    3  A    between atoms: C_8  and  O_9
REMARK    4  A    between atoms: O_9  and  C_10
REMARK    5  A    between atoms: N_19  and  O_20
REMARK                            x       y       z     vdW  Elec       q    Type
REMARK                         _______ _______ _______ _____ _____    ______ ____
ROOT
ATOM      1  C   UNL     1       6.105   5.011  16.220  0.00  0.00    +0.000 A 
ATOM      2  C   UNL     1       5.147   4.009  16.454  0.00  0.00    +0.000 A 
ATOM      3  C   UNL     1       3.946   4.278  17.121  0.00  0.00    +0.000 A 
ATOM      4  C   UNL     1       3.683   5.591  17.529  0.00  0.00    +0.000 A 
ATOM      5  C   UNL     1       4.641   6.606  17.326  0.00  0.00    +0.000 A 
ATOM      6  C   UNL     1       5.865   6.319  16.685  0.00  0.00    +0.000 A 
ATOM      7  C   UNL     1       4.312   7.969  17.900  0.00  0.00    +0.000 C 
ATOM      8  C   UNL     1       2.875   8.379  17.573  0.00  0.00    +0.000 C 
ATOM      9  C   UNL     1       1.835   7.262  17.736  0.00  0.00    +0.000 C 
ATOM     10  C   UNL     1       2.405   5.939  18.268  0.00  0.00    +0.000 C 
ATOM     11  C   UNL     1       1.360   4.816  18.159  0.00  0.00    +0.000 C 
ATOM     12  N   UNL     1       2.004   3.521  18.409  0.00  0.00    +0.000 N 
ATOM     13  C   UNL     1       1.631   2.679  19.420  0.00  0.00    +0.000 C 
ATOM     14  N   UNL     1       1.716   1.384  19.395  0.00  0.00    +0.000 NA
ATOM     15  N   UNL     1       1.132   3.289  20.546  0.00  0.00    +0.000 N 
ATOM     16  C   UNL     1       2.964   3.153  17.372  0.00  0.00    +0.000 C 
ATOM     17  H   UNL     1       2.071   1.083  18.488  0.00  0.00    +0.000 HD
ATOM     18  H   UNL     1       1.661   4.110  20.824  0.00  0.00    +0.000 HD
ENDROOT
BRANCH   1  20
ATOM     19  C   UNL     1       7.316   4.791  14.175  0.00  0.00    +0.000 C 
ATOM     20  O   UNL     1       7.294   4.728  15.598  0.00  0.00    +0.000 OA
ENDBRANCH   1  20
BRANCH   6  21
ATOM     21  O   UNL     1       6.698   7.404  16.584  0.00  0.00    +0.000 OA
ATOM     22  C   UNL     1       7.709   7.611  17.557  0.00  0.00    +0.000 C 
ENDBRANCH   6  21
BRANCH  15  23
ATOM     23  O   UNL     1       0.965   2.386  21.611  0.00  0.00    +0.000 OA
ATOM     24  H   UNL     1       1.902   2.191  21.857  0.00  0.00    +0.000 HD
ENDBRANCH  15  23
TORSDOF 3
ENDMDL
MODEL 4
REMARK VINA RESULT:      -6.2      2.991      4.588
REMARK  Name = 
REMARK  5 active torsions:
REMARK  status: ('A' for Active; 'I' for Inactive)
REMARK    1  A    between atoms: C_1  and  O_2
REMARK    2  A    between atoms: O_2  and  C_3
REMARK    3  A    between atoms: C_8  and  O_9
REMARK    4  A    between atoms: O_9  and  C_10
REMARK    5  A    between atoms: N_19  and  O_20
REMARK                            x       y       z     vdW  Elec       q    Type
REMARK                         _______ _______ _______ _____ _____    ______ ____
ROOT
ATOM      1  C   UNL     1       0.772   9.029  21.029  0.00  0.00    +0.000 A 
ATOM      2  C   UNL     1       0.994   7.709  21.456  0.00  0.00    +0.000 A 
ATOM      3  C   UNL     1       1.623   6.766  20.635  0.00  0.00    +0.000 A 
ATOM      4  C   UNL     1       2.073   7.166  19.372  0.00  0.00    +0.000 A 
ATOM      5  C   UNL     1       1.838   8.479  18.915  0.00  0.00    +0.000 A 
ATOM      6  C   UNL     1       1.171   9.415  19.734  0.00  0.00    +0.000 A 
ATOM      7  C   UNL     1       2.264   8.786  17.494  0.00  0.00    +0.000 C 
ATOM      8  C   UNL     1       3.670   8.258  17.208  0.00  0.00    +0.000 C 
ATOM      9  C   UNL     1       3.952   6.851  17.753  0.00  0.00    +0.000 C 
ATOM     10  C   UNL     1       2.749   6.184  18.434  0.00  0.00    +0.000 C 
ATOM     11  C   UNL     1       3.182   4.903  19.167  0.00  0.00    +0.000 C 
ATOM     12  N   UNL     1       2.090   4.437  20.029  0.00  0.00    +0.000 N 
ATOM     13  C   UNL     1       1.503   3.209  19.901  0.00  0.00    +0.000 C 
ATOM     14  N   UNL     1       0.980   2.517  20.867  0.00  0.00    +0.000 NA
ATOM     15  N   UNL     1       1.476   2.695  18.627  0.00  0.00    +0.000 N 
ATOM     16  C   UNL     1       1.810   5.348  21.136  0.00  0.00    +0.000 C 
ATOM     17  H   UNL     1       1.107   3.013  21.749  0.00  0.00    +0.000 HD
ATOM     18  H   UNL     1       1.225   3.382  17.923  0.00  0.00    +0.000 HD
ENDROOT
BRANCH   1  20
ATOM     19  C   UNL     1      -0.061   9.586  23.196  0.00  0.00    +0.000 C 
ATOM     20  O   UNL     1       0.122   9.937  21.828  0.00  0.00    +0.000 OA
ENDBRANCH   1  20
BRANCH   6  21
ATOM     21  O   UNL     1       0.998  10.639  19.140  0.00  0.00    +0.000 OA
ATOM     22  C   UNL     1      -0.292  11.040  18.709  0.00  0.00    +0.000 C 
ENDBRANCH   6  21
BRANCH  15  23
ATOM     23  O   UNL     1       0.683   1.537  18.536  0.00  0.00    +0.000 OA
ATOM     24  H   UNL     1       1.149   0.925  19.156  0.00  0.00    +0.000 HD
ENDBRANCH  15  23
TORSDOF 3
ENDMDL
MODEL 5
REMARK VINA RESULT:      -6.1      3.095      4.499
REMARK  Name = 
REMARK  5 active torsions:
REMARK  status: ('A' for Active; 'I' for Inactive)
REMARK    1  A    between atoms: C_1  and  O_2
REMARK    2  A    between atoms: O_2  and  C_3
REMARK    3  A    between atoms: C_8  and  O_9
REMARK    4  A    between atoms: O_9  and  C_10
REMARK    5  A    between atoms: N_19  and  O_20
REMARK                            x       y       z     vdW  Elec       q    Type
REMARK                         _______ _______ _______ _____ _____    ______ ____
ROOT
ATOM      1  C   UNL     1       2.604   3.994  17.697  0.00  0.00    +0.000 A 
ATOM      2  C   UNL     1       3.321   3.501  16.594  0.00  0.00    +0.000 A 
ATOM      3  C   UNL     1       4.664   3.834  16.379  0.00  0.00    +0.000 A 
ATOM      4  C   UNL     1       5.312   4.651  17.313  0.00  0.00    +0.000 A 
ATOM      5  C   UNL     1       4.603   5.176  18.414  0.00  0.00    +0.000 A 
ATOM      6  C   UNL     1       3.240   4.864  18.604  0.00  0.00    +0.000 A 
ATOM      7  C   UNL     1       5.360   6.137  19.308  0.00  0.00    +0.000 C 
ATOM      8  C   UNL     1       6.753   5.603  19.647  0.00  0.00    +0.000 C 
ATOM      9  C   UNL     1       7.507   4.977  18.465  0.00  0.00    +0.000 C 
ATOM     10  C   UNL     1       6.761   5.057  17.125  0.00  0.00    +0.000 C 
ATOM     11  C   UNL     1       7.461   4.193  16.063  0.00  0.00    +0.000 C 
ATOM     12  N   UNL     1       6.594   4.063  14.887  0.00  0.00    +0.000 N 
ATOM     13  C   UNL     1       6.957   4.478  13.635  0.00  0.00    +0.000 C 
ATOM     14  N   UNL     1       6.562   3.947  12.519  0.00  0.00    +0.000 NA
ATOM     15  N   UNL     1       7.811   5.554  13.592  0.00  0.00    +0.000 N 
ATOM     16  C   UNL     1       5.379   3.298  15.157  0.00  0.00    +0.000 C 
ATOM     17  H   UNL     1       5.964   3.144  12.716  0.00  0.00    +0.000 HD
ATOM     18  H   UNL     1       7.563   6.288  14.249  0.00  0.00    +0.000 HD
ENDROOT
BRANCH   1  20
ATOM     19  C   UNL     1       0.976   2.485  18.576  0.00  0.00    +0.000 C 
ATOM     20  O   UNL     1       1.278   3.689  17.879  0.00  0.00    +0.000 OA
ENDBRANCH   1  20
BRANCH   6  21
ATOM     21  O   UNL     1       2.688   5.469  19.704  0.00  0.00    +0.000 OA
ATOM     22  C   UNL     1       2.392   4.702  20.859  0.00  0.00    +0.000 C 
ENDBRANCH   6  21
BRANCH  15  23
ATOM     23  O   UNL     1       7.976   6.051  12.287  0.00  0.00    +0.000 OA
ATOM     24  H   UNL     1       8.958   6.031  12.187  0.00  0.00    +0.000 HD
ENDBRANCH  15  23
TORSDOF 3
ENDMDL
MODEL 6
REMARK VINA RESULT:      -6.0      2.904      4.360
REMARK  Name = 
REMARK  5 active torsions:
REMARK  status: ('A' for Active; 'I' for Inactive)
REMARK    1  A    between atoms: C_1  and  O_2
REMARK    2  A    between atoms: O_2  and  C_3
REMARK    3  A    between atoms: C_8  and  O_9
REMARK    4  A    between atoms: O_9  and  C_10
REMARK    5  A    between atoms: N_19  and  O_20
REMARK                            x       y       z     vdW  Elec       q    Type
REMARK                         _______ _______ _______ _____ _____    ______ ____
ROOT
ATOM      1  C   UNL     1       1.363   8.992  19.666  0.00  0.00    +0.000 A 
ATOM      2  C   UNL     1       1.357   7.824  20.446  0.00  0.00    +0.000 A 
ATOM      3  C   UNL     1       2.059   6.676  20.060  0.00  0.00    +0.000 A 
ATOM      4  C   UNL     1       2.815   6.714  18.883  0.00  0.00    +0.000 A 
ATOM      5  C   UNL     1       2.815   7.868  18.073  0.00  0.00    +0.000 A 
ATOM      6  C   UNL     1       2.075   9.010  18.451  0.00  0.00    +0.000 A 
ATOM      7  C   UNL     1       3.574   7.776  16.765  0.00  0.00    +0.000 C 
ATOM      8  C   UNL     1       4.951   7.142  16.964  0.00  0.00    +0.000 C 
ATOM      9  C   UNL     1       4.968   5.919  17.892  0.00  0.00    +0.000 C 
ATOM     10  C   UNL     1       3.585   5.497  18.407  0.00  0.00    +0.000 C 
ATOM     11  C   UNL     1       3.719   4.439  19.516  0.00  0.00    +0.000 C 
ATOM     12  N   UNL     1       2.423   4.255  20.178  0.00  0.00    +0.000 N 
ATOM     13  C   UNL     1       1.763   3.058  20.221  0.00  0.00    +0.000 C 
ATOM     14  N   UNL     1       0.975   2.663  21.173  0.00  0.00    +0.000 NA
ATOM     15  N   UNL     1       1.972   2.228  19.146  0.00  0.00    +0.000 N 
ATOM     16  C   UNL     1       1.992   5.435  20.925  0.00  0.00    +0.000 C 
ATOM     17  H   UNL     1       0.949   3.368  21.909  0.00  0.00    +0.000 HD
ATOM     18  H   UNL     1       1.951   2.715  18.255  0.00  0.00    +0.000 HD
ENDROOT
BRANCH   1  20
ATOM     19  C   UNL     1      -0.713  10.169  19.602  0.00  0.00    +0.000 C 
ATOM     20  O   UNL     1       0.642  10.100  20.035  0.00  0.00    +0.000 OA
ENDBRANCH   1  20
BRANCH   6  21
ATOM     21  O   UNL     1       2.158  10.040  17.549  0.00  0.00    +0.000 OA
ATOM     22  C   UNL     1       2.461  11.350  17.998  0.00  0.00    +0.000 C 
ENDBRANCH   6  21
BRANCH  15  23
ATOM     23  O   UNL     1       1.111   1.116  19.156  0.00  0.00    +0.000 OA
ATOM     24  H   UNL     1       0.663   1.217  20.031  0.00  0.00    +0.000 HD
ENDBRANCH  15  23
TORSDOF 3
ENDMDL
MODEL 7
REMARK VINA RESULT:      -5.9      4.357      7.262
REMARK  Name = 
REMARK  5 active torsions:
REMARK  status: ('A' for Active; 'I' for Inactive)
REMARK    1  A    between atoms: C_1  and  O_2
REMARK    2  A    between atoms: O_2  and  C_3
REMARK    3  A    between atoms: C_8  and  O_9
REMARK    4  A    between atoms: O_9  and  C_10
REMARK    5  A    between atoms: N_19  and  O_20
REMARK                            x       y       z     vdW  Elec       q    Type
REMARK                         _______ _______ _______ _____ _____    ______ ____
ROOT
ATOM      1  C   UNL     1       2.236   7.671  19.010  0.00  0.00    +0.000 A 
ATOM      2  C   UNL     1       1.792   8.805  18.310  0.00  0.00    +0.000 A 
ATOM      3  C   UNL     1       0.878   9.706  18.869  0.00  0.00    +0.000 A 
ATOM      4  C   UNL     1       0.428   9.484  20.176  0.00  0.00    +0.000 A 
ATOM      5  C   UNL     1       0.842   8.339  20.887  0.00  0.00    +0.000 A 
ATOM      6  C   UNL     1       1.736   7.416  20.303  0.00  0.00    +0.000 A 
ATOM      7  C   UNL     1       0.217   8.128  22.251  0.00  0.00    +0.000 C 
ATOM      8  C   UNL     1       0.220   9.420  23.070  0.00  0.00    +0.000 C 
ATOM      9  C   UNL     1      -0.173  10.680  22.287  0.00  0.00    +0.000 C 
ATOM     10  C   UNL     1      -0.573  10.418  20.828  0.00  0.00    +0.000 C 
ATOM     11  C   UNL     1      -0.702  11.742  20.056  0.00  0.00    +0.000 C 
ATOM     12  N   UNL     1      -0.811  11.464  18.620  0.00  0.00    +0.000 N 
ATOM     13  C   UNL     1      -1.883  11.841  17.859  0.00  0.00    +0.000 C 
ATOM     14  N   UNL     1      -1.846  12.143  16.598  0.00  0.00    +0.000 NA
ATOM     15  N   UNL     1      -3.088  11.891  18.518  0.00  0.00    +0.000 N 
ATOM     16  C   UNL     1       0.411  10.895  18.056  0.00  0.00    +0.000 C 
ATOM     17  H   UNL     1      -0.884  12.092  16.263  0.00  0.00    +0.000 HD
ATOM     18  H   UNL     1      -3.239  11.100  19.137  0.00  0.00    +0.000 HD
ENDROOT
BRANCH   1  20
ATOM     19  C   UNL     1       3.965   7.265  17.416  0.00  0.00    +0.000 C 
ATOM     20  O   UNL     1       3.104   6.775  18.439  0.00  0.00    +0.000 OA
ENDBRANCH   1  20
BRANCH   6  21
ATOM     21  O   UNL     1       2.024   6.345  21.110  0.00  0.00    +0.000 OA
ATOM     22  C   UNL     1       1.613   5.042  20.729  0.00  0.00    +0.000 C 
ENDBRANCH   6  21
BRANCH  15  23
ATOM     23  O   UNL     1      -4.169  12.082  17.638  0.00  0.00    +0.000 OA
ATOM     24  H   UNL     1      -4.927  11.748  18.176  0.00  0.00    +0.000 HD
ENDBRANCH  15  23
TORSDOF 3
ENDMDL
MODEL 8
REMARK VINA RESULT:      -5.8      3.677      6.698
REMARK  Name = 
REMARK  5 active torsions:
REMARK  status: ('A' for Active; 'I' for Inactive)
REMARK    1  A    between atoms: C_1  and  O_2
REMARK    2  A    between atoms: O_2  and  C_3
REMARK    3  A    between atoms: C_8  and  O_9
REMARK    4  A    between atoms: O_9  and  C_10
REMARK    5  A    between atoms: N_19  and  O_20
REMARK                            x       y       z     vdW  Elec       q    Type
REMARK                         _______ _______ _______ _____ _____    ______ ____
ROOT
ATOM      1  C   UNL     1       6.061   3.933  14.227  0.00  0.00    +0.000 A 
ATOM      2  C   UNL     1       4.908   3.524  14.918  0.00  0.00    +0.000 A 
ATOM      3  C   UNL     1       4.563   4.064  16.162  0.00  0.00    +0.000 A 
ATOM      4  C   UNL     1       5.376   5.065  16.709  0.00  0.00    +0.000 A 
ATOM      5  C   UNL     1       6.550   5.472  16.044  0.00  0.00    +0.000 A 
ATOM      6  C   UNL     1       6.910   4.897  14.806  0.00  0.00    +0.000 A 
ATOM      7  C   UNL     1       7.420   6.480  16.767  0.00  0.00    +0.000 C 
ATOM      8  C   UNL     1       6.586   7.627  17.338  0.00  0.00    +0.000 C 
ATOM      9  C   UNL     1       5.276   7.196  18.013  0.00  0.00    +0.000 C 
ATOM     10  C   UNL     1       5.060   5.676  18.061  0.00  0.00    +0.000 C 
ATOM     11  C   UNL     1       3.628   5.347  18.515  0.00  0.00    +0.000 C 
ATOM     12  N   UNL     1       3.358   3.922  18.291  0.00  0.00    +0.000 N 
ATOM     13  C   UNL     1       3.020   3.055  19.293  0.00  0.00    +0.000 C 
ATOM     14  N   UNL     1       2.264   2.008  19.163  0.00  0.00    +0.000 NA
ATOM     15  N   UNL     1       3.545   3.343  20.529  0.00  0.00    +0.000 N 
ATOM     16  C   UNL     1       3.325   3.564  16.876  0.00  0.00    +0.000 C 
ATOM     17  H   UNL     1       1.927   1.948  18.202  0.00  0.00    +0.000 HD
ATOM     18  H   UNL     1       4.521   3.622  20.494  0.00  0.00    +0.000 HD
ENDROOT
BRANCH   1  20
ATOM     19  C   UNL     1       5.372   3.199  12.063  0.00  0.00    +0.000 C 
ATOM     20  O   UNL     1       6.408   3.371  13.024  0.00  0.00    +0.000 OA
ENDBRANCH   1  20
BRANCH   6  21
ATOM     21  O   UNL     1       8.089   5.380  14.299  0.00  0.00    +0.000 OA
ATOM     22  C   UNL     1       8.187   5.704  12.922  0.00  0.00    +0.000 C 
ENDBRANCH   6  21
BRANCH  15  23
ATOM     23  O   UNL     1       3.328   2.307  21.456  0.00  0.00    +0.000 OA
ATOM     24  H   UNL     1       2.756   1.691  20.937  0.00  0.00    +0.000 HD
ENDBRANCH  15  23
TORSDOF 3
ENDMDL
MODEL 9
REMARK VINA RESULT:      -5.8      9.532     10.832
REMARK  Name = 
REMARK  5 active torsions:
REMARK  status: ('A' for Active; 'I' for Inactive)
REMARK    1  A    between atoms: C_1  and  O_2
REMARK    2  A    between atoms: O_2  and  C_3
REMARK    3  A    between atoms: C_8  and  O_9
REMARK    4  A    between atoms: O_9  and  C_10
REMARK    5  A    between atoms: N_19  and  O_20
REMARK                            x       y       z     vdW  Elec       q    Type
REMARK                         _______ _______ _______ _____ _____    ______ ____
ROOT
ATOM      1  C   UNL     1       8.063  12.783  22.485  0.00  0.00    +0.000 A 
ATOM      2  C   UNL     1       9.076  12.156  21.740  0.00  0.00    +0.000 A 
ATOM      3  C   UNL     1      10.016  12.892  21.009  0.00  0.00    +0.000 A 
ATOM      4  C   UNL     1       9.960  14.290  21.056  0.00  0.00    +0.000 A 
ATOM      5  C   UNL     1       8.937  14.938  21.778  0.00  0.00    +0.000 A 
ATOM      6  C   UNL     1       7.972  14.189  22.484  0.00  0.00    +0.000 A 
ATOM      7  C   UNL     1       8.896  16.450  21.680  0.00  0.00    +0.000 C 
ATOM      8  C   UNL     1      10.287  17.058  21.866  0.00  0.00    +0.000 C 
ATOM      9  C   UNL     1      11.415  16.322  21.130  0.00  0.00    +0.000 C 
ATOM     10  C   UNL     1      10.943  15.139  20.273  0.00  0.00    +0.000 C 
ATOM     11  C   UNL     1      12.144  14.312  19.782  0.00  0.00    +0.000 C 
ATOM     12  N   UNL     1      11.669  13.050  19.206  0.00  0.00    +0.000 N 
ATOM     13  C   UNL     1      11.904  12.677  17.912  0.00  0.00    +0.000 C 
ATOM     14  N   UNL     1      12.031  11.458  17.487  0.00  0.00    +0.000 NA
ATOM     15  N   UNL     1      12.006  13.708  17.008  0.00  0.00    +0.000 N 
ATOM     16  C   UNL     1      11.067  12.163  20.199  0.00  0.00    +0.000 C 
ATOM     17  H   UNL     1      11.965  10.814  18.275  0.00  0.00    +0.000 HD
ATOM     18  H   UNL     1      11.303  14.428  17.142  0.00  0.00    +0.000 HD
ENDROOT
BRANCH   1  20
ATOM     19  C   UNL     1       7.498  11.548  24.448  0.00  0.00    +0.000 C 
ATOM     20  O   UNL     1       7.125  12.052  23.169  0.00  0.00    +0.000 OA
ENDBRANCH   1  20
BRANCH   6  21
ATOM     21  O   UNL     1       7.031  14.963  23.114  0.00  0.00    +0.000 OA
ATOM     22  C   UNL     1       7.147  15.225  24.503  0.00  0.00    +0.000 C 
ENDBRANCH   6  21
BRANCH  15  23
ATOM     23  O   UNL     1      12.041  13.249  15.679  0.00  0.00    +0.000 OA
ATOM     24  H   UNL     1      11.913  12.277  15.799  0.00  0.00    +0.000 HD
ENDBRANCH  15  23
TORSDOF 3
ENDMDL
