MODEL 1
REMARK VINA RESULT:      -6.6      0.000      0.000
REMARK  Name = 
REMARK  7 active torsions:
REMARK  status: ('A' for Active; 'I' for Inactive)
REMARK    1  A    between atoms: C_1  and  C_2
REMARK    2  A    between atoms: C_5  and  C_6
REMARK    3  A    between atoms: C_6  and  N_7
REMARK    4  A    between atoms: C_12  and  O_13
REMARK    5  A    between atoms: N_18  and  C_19
REMARK    6  A    between atoms: C_19  and  C_20
REMARK    7  A    between atoms: C_19  and  C_21
REMARK                            x       y       z     vdW  Elec       q    Type
REMARK                         _______ _______ _______ _____ _____    ______ ____
ROOT
ATOM      1  N   UNL     1       6.036   5.229  17.571  0.00  0.00    +0.000 N 
ATOM      2  C   UNL     1       5.818   6.587  17.514  0.00  0.00    +0.000 C 
ATOM      3  O   UNL     1       6.711   7.415  17.687  0.00  0.00    +0.000 OA
ATOM      4  C   UNL     1       4.405   6.996  17.104  0.00  0.00    +0.000 C 
ATOM      5  C   UNL     1       4.026   8.378  17.616  0.00  0.00    +0.000 C 
ATOM      6  C   UNL     1       2.551   8.289  17.958  0.00  0.00    +0.000 C 
ATOM      7  C   UNL     1       2.108   6.864  17.613  0.00  0.00    +0.000 C 
ATOM      8  N   UNL     1       3.311   6.057  17.444  0.00  0.00    +0.000 NA
ATOM      9  C   UNL     1       3.686   5.034  18.451  0.00  0.00    +0.000 C 
ATOM     10  C   UNL     1       3.336   5.355  19.946  0.00  0.00    +0.000 C 
ATOM     11  N   UNL     1       3.034   3.903  20.053  0.00  0.00    +0.000 NA
ATOM     12  C   UNL     1       2.544   3.948  18.646  0.00  0.00    +0.000 C 
ATOM     13  C   UNL     1       5.111   4.364  18.137  0.00  0.00    +0.000 C 
ATOM     14  O   UNL     1       5.415   3.185  18.343  0.00  0.00    +0.000 OA
ENDROOT
BRANCH  11  15
ATOM     15  C   UNL     1       2.129   3.480  21.111  0.00  0.00    +0.000 C 
ATOM     16  C   UNL     1       0.671   3.187  20.771  0.00  0.00    +0.000 C 
ATOM     17  C   UNL     1       2.755   2.261  21.808  0.00  0.00    +0.000 C 
ENDBRANCH  11  15
BRANCH   6  18
ATOM     18  O   UNL     1       1.810   9.262  17.229  0.00  0.00    +0.000 OA
ATOM     19  H   UNL     1       1.896   9.070  16.278  0.00  0.00    +0.000 HD
ENDBRANCH   6  18
BRANCH   1  20
ATOM     20  C   UNL     1       7.276   4.703  17.041  0.00  0.00    +0.000 C 
BRANCH  20  25
ATOM     21  C   UNL     1       8.033   5.664  12.361  0.00  0.00    +0.000 C 
ATOM     22  C   UNL     1       7.346   4.959  13.461  0.00  0.00    +0.000 A 
ATOM     23  C   UNL     1       6.317   4.044  13.505  0.00  0.00    +0.000 A 
ATOM     24  C   UNL     1       6.112   3.743  14.873  0.00  0.00    +0.000 A 
ATOM     25  C   UNL     1       7.033   4.490  15.581  0.00  0.00    +0.000 A 
ATOM     26  O   UNL     1       7.781   5.240  14.720  0.00  0.00    +0.000 OA
ENDBRANCH  20  25
ENDBRANCH   1  20
TORSDOF 4
ENDMDL
MODEL 2
REMARK VINA RESULT:      -6.2      1.735      4.160
REMARK  Name = 
REMARK  7 active torsions:
REMARK  status: ('A' for Active; 'I' for Inactive)
REMARK    1  A    between atoms: C_1  and  C_2
REMARK    2  A    between atoms: C_5  and  C_6
REMARK    3  A    between atoms: C_6  and  N_7
REMARK    4  A    between atoms: C_12  and  O_13
REMARK    5  A    between atoms: N_18  and  C_19
REMARK    6  A    between atoms: C_19  and  C_20
REMARK    7  A    between atoms: C_19  and  C_21
REMARK                            x       y       z     vdW  Elec       q    Type
REMARK                         _______ _______ _______ _____ _____    ______ ____
ROOT
ATOM      1  N   UNL     1       5.108   4.491  18.044  0.00  0.00    +0.000 N 
ATOM      2  C   UNL     1       4.311   3.402  18.310  0.00  0.00    +0.000 C 
ATOM      3  O   UNL     1       4.294   2.396  17.601  0.00  0.00    +0.000 OA
ATOM      4  C   UNL     1       3.530   3.479  19.620  0.00  0.00    +0.000 C 
ATOM      5  C   UNL     1       2.272   2.623  19.601  0.00  0.00    +0.000 C 
ATOM      6  C   UNL     1       1.244   3.403  20.399  0.00  0.00    +0.000 C 
ATOM      7  C   UNL     1       1.941   4.679  20.879  0.00  0.00    +0.000 C 
ATOM      8  N   UNL     1       3.168   4.831  20.105  0.00  0.00    +0.000 NA
ATOM      9  C   UNL     1       3.289   5.892  19.076  0.00  0.00    +0.000 C 
ATOM     10  C   UNL     1       1.985   6.262  18.287  0.00  0.00    +0.000 C 
ATOM     11  N   UNL     1       2.496   7.657  18.348  0.00  0.00    +0.000 NA
ATOM     12  C   UNL     1       3.065   7.340  19.689  0.00  0.00    +0.000 C 
ATOM     13  C   UNL     1       4.664   5.789  18.255  0.00  0.00    +0.000 C 
ATOM     14  O   UNL     1       5.326   6.743  17.832  0.00  0.00    +0.000 OA
ENDROOT
BRANCH  11  15
ATOM     15  C   UNL     1       1.527   8.734  18.220  0.00  0.00    +0.000 C 
ATOM     16  C   UNL     1       0.748   9.187  19.452  0.00  0.00    +0.000 C 
ATOM     17  C   UNL     1       2.242   9.939  17.587  0.00  0.00    +0.000 C 
ENDBRANCH  11  15
BRANCH   6  18
ATOM     18  O   UNL     1       0.761   2.624  21.488  0.00  0.00    +0.000 OA
ATOM     19  H   UNL     1       1.406   2.673  22.216  0.00  0.00    +0.000 HD
ENDBRANCH   6  18
BRANCH   1  20
ATOM     20  C   UNL     1       6.435   4.267  17.513  0.00  0.00    +0.000 C 
BRANCH  20  25
ATOM     21  C   UNL     1       8.036   5.324  13.073  0.00  0.00    +0.000 C 
ATOM     22  C   UNL     1       7.004   4.854  14.018  0.00  0.00    +0.000 A 
ATOM     23  C   UNL     1       5.694   4.451  13.870  0.00  0.00    +0.000 A 
ATOM     24  C   UNL     1       5.233   4.117  15.166  0.00  0.00    +0.000 A 
ATOM     25  C   UNL     1       6.292   4.332  16.026  0.00  0.00    +0.000 A 
ATOM     26  O   UNL     1       7.371   4.792  15.327  0.00  0.00    +0.000 OA
ENDBRANCH  20  25
ENDBRANCH   1  20
TORSDOF 4
ENDMDL
MODEL 3
REMARK VINA RESULT:      -5.9      1.754      6.201
REMARK  Name = 
REMARK  7 active torsions:
REMARK  status: ('A' for Active; 'I' for Inactive)
REMARK    1  A    between atoms: C_1  and  C_2
REMARK    2  A    between atoms: C_5  and  C_6
REMARK    3  A    between atoms: C_6  and  N_7
REMARK    4  A    between atoms: C_12  and  O_13
REMARK    5  A    between atoms: N_18  and  C_19
REMARK    6  A    between atoms: C_19  and  C_20
REMARK    7  A    between atoms: C_19  and  C_21
REMARK                            x       y       z     vdW  Elec       q    Type
REMARK                         _______ _______ _______ _____ _____    ______ ____
ROOT
ATOM      1  N   UNL     1       3.165   5.074  17.541  0.00  0.00    +0.000 N 
ATOM      2  C   UNL     1       3.718   6.280  17.907  0.00  0.00    +0.000 C 
ATOM      3  O   UNL     1       3.049   7.297  18.084  0.00  0.00    +0.000 OA
ATOM      4  C   UNL     1       5.218   6.240  18.196  0.00  0.00    +0.000 C 
ATOM      5  C   UNL     1       5.886   7.593  18.002  0.00  0.00    +0.000 C 
ATOM      6  C   UNL     1       7.260   7.285  17.435  0.00  0.00    +0.000 C 
ATOM      7  C   UNL     1       7.360   5.760  17.338  0.00  0.00    +0.000 C 
ATOM      8  N   UNL     1       6.011   5.219  17.472  0.00  0.00    +0.000 NA
ATOM      9  C   UNL     1       5.312   4.629  16.305  0.00  0.00    +0.000 C 
ATOM     10  C   UNL     1       5.608   5.273  14.906  0.00  0.00    +0.000 C 
ATOM     11  N   UNL     1       5.528   3.880  14.390  0.00  0.00    +0.000 NA
ATOM     12  C   UNL     1       6.127   3.420  15.675  0.00  0.00    +0.000 C 
ATOM     13  C   UNL     1       3.796   4.224  16.645  0.00  0.00    +0.000 C 
ATOM     14  O   UNL     1       3.191   3.246  16.193  0.00  0.00    +0.000 OA
ENDROOT
BRANCH  11  15
ATOM     15  C   UNL     1       6.208   3.587  13.139  0.00  0.00    +0.000 C 
ATOM     16  C   UNL     1       5.381   3.225  11.908  0.00  0.00    +0.000 C 
ATOM     17  C   UNL     1       7.131   4.773  12.813  0.00  0.00    +0.000 C 
ENDBRANCH  11  15
BRANCH   6  18
ATOM     18  O   UNL     1       8.277   7.828  18.270  0.00  0.00    +0.000 OA
ATOM     19  H   UNL     1       8.598   7.127  18.865  0.00  0.00    +0.000 HD
ENDBRANCH   6  18
BRANCH   1  20
ATOM     20  C   UNL     1       1.882   4.704  18.096  0.00  0.00    +0.000 C 
BRANCH  20  25
ATOM     21  C   UNL     1       4.489   1.795  20.948  0.00  0.00    +0.000 C 
ATOM     22  C   UNL     1       3.342   2.683  20.679  0.00  0.00    +0.000 A 
ATOM     23  C   UNL     1       2.252   3.077  21.424  0.00  0.00    +0.000 A 
ATOM     24  C   UNL     1       1.502   3.949  20.599  0.00  0.00    +0.000 A 
ATOM     25  C   UNL     1       2.183   4.037  19.401  0.00  0.00    +0.000 A 
ATOM     26  O   UNL     1       3.302   3.257  19.445  0.00  0.00    +0.000 OA
ENDBRANCH  20  25
ENDBRANCH   1  20
TORSDOF 4
ENDMDL
MODEL 4
REMARK VINA RESULT:      -5.9      0.666      1.087
REMARK  Name = 
REMARK  7 active torsions:
REMARK  status: ('A' for Active; 'I' for Inactive)
REMARK    1  A    between atoms: C_1  and  C_2
REMARK    2  A    between atoms: C_5  and  C_6
REMARK    3  A    between atoms: C_6  and  N_7
REMARK    4  A    between atoms: C_12  and  O_13
REMARK    5  A    between atoms: N_18  and  C_19
REMARK    6  A    between atoms: C_19  and  C_20
REMARK    7  A    between atoms: C_19  and  C_21
REMARK                            x       y       z     vdW  Elec       q    Type
REMARK                         _______ _______ _______ _____ _____    ______ ____
ROOT
ATOM      1  N   UNL     1       5.895   5.040  17.394  0.00  0.00    +0.000 N 
ATOM      2  C   UNL     1       5.806   6.413  17.406  0.00  0.00    +0.000 C 
ATOM      3  O   UNL     1       6.772   7.145  17.617  0.00  0.00    +0.000 OA
ATOM      4  C   UNL     1       4.438   6.973  17.022  0.00  0.00    +0.000 C 
ATOM      5  C   UNL     1       4.190   8.358  17.604  0.00  0.00    +0.000 C 
ATOM      6  C   UNL     1       2.712   8.390  17.946  0.00  0.00    +0.000 C 
ATOM      7  C   UNL     1       2.138   7.032  17.532  0.00  0.00    +0.000 C 
ATOM      8  N   UNL     1       3.260   6.125  17.318  0.00  0.00    +0.000 NA
ATOM      9  C   UNL     1       3.536   5.023  18.271  0.00  0.00    +0.000 C 
ATOM     10  C   UNL     1       3.216   5.299  19.782  0.00  0.00    +0.000 C 
ATOM     11  N   UNL     1       2.779   3.878  19.817  0.00  0.00    +0.000 NA
ATOM     12  C   UNL     1       2.297   4.040  18.416  0.00  0.00    +0.000 C 
ATOM     13  C   UNL     1       4.892   4.239  17.919  0.00  0.00    +0.000 C 
ATOM     14  O   UNL     1       5.084   3.026  18.064  0.00  0.00    +0.000 OA
ENDROOT
BRANCH  11  15
ATOM     15  C   UNL     1       1.837   3.490  20.856  0.00  0.00    +0.000 C 
ATOM     16  C   UNL     1       0.475   2.930  20.455  0.00  0.00    +0.000 C 
ATOM     17  C   UNL     1       2.549   2.499  21.792  0.00  0.00    +0.000 C 
ENDBRANCH  11  15
BRANCH   6  18
ATOM     18  O   UNL     1       2.066   9.464  17.271  0.00  0.00    +0.000 OA
ATOM     19  H   UNL     1       1.568   9.987  17.924  0.00  0.00    +0.000 HD
ENDBRANCH   6  18
BRANCH   1  20
ATOM     20  C   UNL     1       7.080   4.427  16.833  0.00  0.00    +0.000 C 
BRANCH  20  25
ATOM     21  C   UNL     1       5.395   3.079  12.504  0.00  0.00    +0.000 C 
ATOM     22  C   UNL     1       6.218   3.932  13.384  0.00  0.00    +0.000 A 
ATOM     23  C   UNL     1       7.099   4.966  13.150  0.00  0.00    +0.000 A 
ATOM     24  C   UNL     1       7.573   5.378  14.419  0.00  0.00    +0.000 A 
ATOM     25  C   UNL     1       6.948   4.573  15.351  0.00  0.00    +0.000 A 
ATOM     26  O   UNL     1       6.128   3.683  14.719  0.00  0.00    +0.000 OA
ENDBRANCH  20  25
ENDBRANCH   1  20
TORSDOF 4
ENDMDL
MODEL 5
REMARK VINA RESULT:      -5.6      8.025     10.180
REMARK  Name = 
REMARK  7 active torsions:
REMARK  status: ('A' for Active; 'I' for Inactive)
REMARK    1  A    between atoms: C_1  and  C_2
REMARK    2  A    between atoms: C_5  and  C_6
REMARK    3  A    between atoms: C_6  and  N_7
REMARK    4  A    between atoms: C_12  and  O_13
REMARK    5  A    between atoms: N_18  and  C_19
REMARK    6  A    between atoms: C_19  and  C_20
REMARK    7  A    between atoms: C_19  and  C_21
REMARK                            x       y       z     vdW  Elec       q    Type
REMARK                         _______ _______ _______ _____ _____    ______ ____
ROOT
ATOM      1  N   UNL     1      10.045  11.892  19.761  0.00  0.00    +0.000 N 
ATOM      2  C   UNL     1      10.868  12.359  18.762  0.00  0.00    +0.000 C 
ATOM      3  O   UNL     1      11.987  11.896  18.545  0.00  0.00    +0.000 OA
ATOM      4  C   UNL     1      10.245  13.422  17.859  0.00  0.00    +0.000 C 
ATOM      5  C   UNL     1      11.289  14.316  17.204  0.00  0.00    +0.000 C 
ATOM      6  C   UNL     1      10.658  15.695  17.148  0.00  0.00    +0.000 C 
ATOM      7  C   UNL     1       9.257  15.558  17.751  0.00  0.00    +0.000 C 
ATOM      8  N   UNL     1       9.203  14.285  18.461  0.00  0.00    +0.000 NA
ATOM      9  C   UNL     1       9.171  14.245  19.943  0.00  0.00    +0.000 C 
ATOM     10  C   UNL     1       9.969  15.365  20.697  0.00  0.00    +0.000 C 
ATOM     11  N   UNL     1       8.845  15.334  21.670  0.00  0.00    +0.000 NA
ATOM     12  C   UNL     1       7.929  15.041  20.531  0.00  0.00    +0.000 C 
ATOM     13  C   UNL     1       9.253  12.747  20.513  0.00  0.00    +0.000 C 
ATOM     14  O   UNL     1       8.674  12.324  21.520  0.00  0.00    +0.000 OA
ENDROOT
BRANCH  11  15
ATOM     15  C   UNL     1       8.622  16.522  22.479  0.00  0.00    +0.000 C 
ATOM     16  C   UNL     1       7.192  16.994  22.732  0.00  0.00    +0.000 C 
ATOM     17  C   UNL     1       9.348  16.324  23.820  0.00  0.00    +0.000 C 
ENDBRANCH  11  15
BRANCH   6  18
ATOM     18  O   UNL     1      10.612  16.169  15.807  0.00  0.00    +0.000 OA
ATOM     19  H   UNL     1       9.688  16.143  15.500  0.00  0.00    +0.000 HD
ENDBRANCH   6  18
BRANCH   1  20
ATOM     20  C   UNL     1      10.028  10.472  20.038  0.00  0.00    +0.000 C 
BRANCH  20  25
ATOM     21  C   UNL     1       7.703   6.759  17.987  0.00  0.00    +0.000 C 
ATOM     22  C   UNL     1       8.043   8.190  18.104  0.00  0.00    +0.000 A 
ATOM     23  C   UNL     1       7.692   9.311  17.383  0.00  0.00    +0.000 A 
ATOM     24  C   UNL     1       8.351  10.402  17.998  0.00  0.00    +0.000 A 
ATOM     25  C   UNL     1       9.062   9.880  19.061  0.00  0.00    +0.000 A 
ATOM     26  O   UNL     1       8.882   8.529  19.121  0.00  0.00    +0.000 OA
ENDBRANCH  20  25
ENDBRANCH   1  20
TORSDOF 4
ENDMDL
MODEL 6
REMARK VINA RESULT:      -5.6      7.942     11.985
REMARK  Name = 
REMARK  7 active torsions:
REMARK  status: ('A' for Active; 'I' for Inactive)
REMARK    1  A    between atoms: C_1  and  C_2
REMARK    2  A    between atoms: C_5  and  C_6
REMARK    3  A    between atoms: C_6  and  N_7
REMARK    4  A    between atoms: C_12  and  O_13
REMARK    5  A    between atoms: N_18  and  C_19
REMARK    6  A    between atoms: C_19  and  C_20
REMARK    7  A    between atoms: C_19  and  C_21
REMARK                            x       y       z     vdW  Elec       q    Type
REMARK                         _______ _______ _______ _____ _____    ______ ____
ROOT
ATOM      1  N   UNL     1      -4.089  11.669  18.518  0.00  0.00    +0.000 N 
ATOM      2  C   UNL     1      -3.227  10.687  18.085  0.00  0.00    +0.000 C 
ATOM      3  O   UNL     1      -3.594   9.542  17.824  0.00  0.00    +0.000 OA
ATOM      4  C   UNL     1      -1.794  11.152  17.837  0.00  0.00    +0.000 C 
ATOM      5  C   UNL     1      -0.784  10.019  17.955  0.00  0.00    +0.000 C 
ATOM      6  C   UNL     1       0.451  10.646  18.574  0.00  0.00    +0.000 C 
ATOM      7  C   UNL     1       0.133  12.130  18.776  0.00  0.00    +0.000 C 
ATOM      8  N   UNL     1      -1.310  12.294  18.646  0.00  0.00    +0.000 NA
ATOM      9  C   UNL     1      -2.150  12.589  19.833  0.00  0.00    +0.000 C 
ATOM     10  C   UNL     1      -1.698  11.951  21.193  0.00  0.00    +0.000 C 
ATOM     11  N   UNL     1      -2.156  13.229  21.798  0.00  0.00    +0.000 NA
ATOM     12  C   UNL     1      -1.697  13.925  20.563  0.00  0.00    +0.000 C 
ATOM     13  C   UNL     1      -3.717  12.592  19.484  0.00  0.00    +0.000 C 
ATOM     14  O   UNL     1      -4.567  13.335  19.986  0.00  0.00    +0.000 OA
ENDROOT
BRANCH  11  15
ATOM     15  C   UNL     1      -1.587  13.606  23.083  0.00  0.00    +0.000 C 
ATOM     16  C   UNL     1      -0.621  14.786  23.153  0.00  0.00    +0.000 C 
ATOM     17  C   UNL     1      -2.748  13.828  24.067  0.00  0.00    +0.000 C 
ENDBRANCH  11  15
BRANCH   6  18
ATOM     18  O   UNL     1       1.582  10.459  17.731  0.00  0.00    +0.000 OA
ATOM     19  H   UNL     1       1.478   9.617  17.253  0.00  0.00    +0.000 HD
ENDBRANCH   6  18
BRANCH   1  20
ATOM     20  C   UNL     1      -5.422  11.717  17.957  0.00  0.00    +0.000 C 
BRANCH  20  25
ATOM     21  C   UNL     1      -7.601   8.269  20.557  0.00  0.00    +0.000 C 
ATOM     22  C   UNL     1      -7.355   9.677  20.191  0.00  0.00    +0.000 A 
ATOM     23  C   UNL     1      -7.886  10.875  20.618  0.00  0.00    +0.000 A 
ATOM     24  C   UNL     1      -7.229  11.887  19.876  0.00  0.00    +0.000 A 
ATOM     25  C   UNL     1      -6.335  11.244  19.044  0.00  0.00    +0.000 A 
ATOM     26  O   UNL     1      -6.417   9.894  19.228  0.00  0.00    +0.000 OA
ENDBRANCH  20  25
ENDBRANCH   1  20
TORSDOF 4
ENDMDL
MODEL 7
REMARK VINA RESULT:      -5.5      4.107      6.916
REMARK  Name = 
REMARK  7 active torsions:
REMARK  status: ('A' for Active; 'I' for Inactive)
REMARK    1  A    between atoms: C_1  and  C_2
REMARK    2  A    between atoms: C_5  and  C_6
REMARK    3  A    between atoms: C_6  and  N_7
REMARK    4  A    between atoms: C_12  and  O_13
REMARK    5  A    between atoms: N_18  and  C_19
REMARK    6  A    between atoms: C_19  and  C_20
REMARK    7  A    between atoms: C_19  and  C_21
REMARK                            x       y       z     vdW  Elec       q    Type
REMARK                         _______ _______ _______ _____ _____    ______ ____
ROOT
ATOM      1  N   UNL     1       2.055   8.043  19.137  0.00  0.00    +0.000 N 
ATOM      2  C   UNL     1       1.632   7.785  20.421  0.00  0.00    +0.000 C 
ATOM      3  O   UNL     1       1.596   6.651  20.899  0.00  0.00    +0.000 OA
ATOM      4  C   UNL     1       1.320   9.023  21.258  0.00  0.00    +0.000 C 
ATOM      5  C   UNL     1       0.330   8.737  22.378  0.00  0.00    +0.000 C 
ATOM      6  C   UNL     1      -0.523   9.987  22.490  0.00  0.00    +0.000 C 
ATOM      7  C   UNL     1       0.010  10.974  21.448  0.00  0.00    +0.000 C 
ATOM      8  N   UNL     1       0.861  10.227  20.527  0.00  0.00    +0.000 NA
ATOM      9  C   UNL     1       0.418   9.955  19.138  0.00  0.00    +0.000 C 
ATOM     10  C   UNL     1      -1.118   9.727  18.918  0.00  0.00    +0.000 C 
ATOM     11  N   UNL     1      -0.917  10.467  17.645  0.00  0.00    +0.000 NA
ATOM     12  C   UNL     1       0.109  11.294  18.341  0.00  0.00    +0.000 C 
ATOM     13  C   UNL     1       1.443   9.005  18.347  0.00  0.00    +0.000 C 
ATOM     14  O   UNL     1       1.718   9.081  17.145  0.00  0.00    +0.000 OA
ENDROOT
BRANCH  11  15
ATOM     15  C   UNL     1      -2.077  11.116  17.053  0.00  0.00    +0.000 C 
ATOM     16  C   UNL     1      -2.658  10.564  15.754  0.00  0.00    +0.000 C 
ATOM     17  C   UNL     1      -3.177  11.184  18.125  0.00  0.00    +0.000 C 
ENDBRANCH  11  15
BRANCH   6  18
ATOM     18  O   UNL     1      -0.454  10.522  23.807  0.00  0.00    +0.000 OA
ATOM     19  H   UNL     1       0.338  11.086  23.872  0.00  0.00    +0.000 HD
ENDBRANCH   6  18
BRANCH   1  20
ATOM     20  C   UNL     1       3.154   7.271  18.601  0.00  0.00    +0.000 C 
BRANCH  20  25
ATOM     21  C   UNL     1       3.431   2.460  19.028  0.00  0.00    +0.000 C 
ATOM     22  C   UNL     1       2.773   3.701  18.574  0.00  0.00    +0.000 A 
ATOM     23  C   UNL     1       1.632   3.959  17.845  0.00  0.00    +0.000 A 
ATOM     24  C   UNL     1       1.537   5.367  17.742  0.00  0.00    +0.000 A 
ATOM     25  C   UNL     1       2.624   5.884  18.419  0.00  0.00    +0.000 A 
ATOM     26  O   UNL     1       3.385   4.867  18.920  0.00  0.00    +0.000 OA
ENDBRANCH  20  25
ENDBRANCH   1  20
TORSDOF 4
ENDMDL
MODEL 8
REMARK VINA RESULT:      -5.5      8.029     10.519
REMARK  Name = 
REMARK  7 active torsions:
REMARK  status: ('A' for Active; 'I' for Inactive)
REMARK    1  A    between atoms: C_1  and  C_2
REMARK    2  A    between atoms: C_5  and  C_6
REMARK    3  A    between atoms: C_6  and  N_7
REMARK    4  A    between atoms: C_12  and  O_13
REMARK    5  A    between atoms: N_18  and  C_19
REMARK    6  A    between atoms: C_19  and  C_20
REMARK    7  A    between atoms: C_19  and  C_21
REMARK                            x       y       z     vdW  Elec       q    Type
REMARK                         _______ _______ _______ _____ _____    ______ ____
ROOT
ATOM      1  N   UNL     1      -0.454  11.439  19.676  0.00  0.00    +0.000 N 
ATOM      2  C   UNL     1       0.776  11.488  19.062  0.00  0.00    +0.000 C 
ATOM      3  O   UNL     1       1.521  10.512  18.976  0.00  0.00    +0.000 OA
ATOM      4  C   UNL     1       1.107  12.817  18.387  0.00  0.00    +0.000 C 
ATOM      5  C   UNL     1       2.605  13.053  18.265  0.00  0.00    +0.000 C 
ATOM      6  C   UNL     1       2.795  14.545  18.468  0.00  0.00    +0.000 C 
ATOM      7  C   UNL     1       1.398  15.137  18.678  0.00  0.00    +0.000 C 
ATOM      8  N   UNL     1       0.489  14.034  18.964  0.00  0.00    +0.000 NA
ATOM      9  C   UNL     1      -0.064  13.839  20.326  0.00  0.00    +0.000 C 
ATOM     10  C   UNL     1       0.867  14.228  21.527  0.00  0.00    +0.000 C 
ATOM     11  N   UNL     1      -0.382  14.709  22.175  0.00  0.00    +0.000 NA
ATOM     12  C   UNL     1      -0.871  15.113  20.826  0.00  0.00    +0.000 C 
ATOM     13  C   UNL     1      -0.928  12.492  20.446  0.00  0.00    +0.000 C 
ATOM     14  O   UNL     1      -1.943  12.343  21.135  0.00  0.00    +0.000 OA
ENDROOT
BRANCH  11  15
ATOM     15  C   UNL     1      -0.255  15.713  23.219  0.00  0.00    +0.000 C 
ATOM     16  C   UNL     1      -0.585  17.168  22.898  0.00  0.00    +0.000 C 
ATOM     17  C   UNL     1      -1.087  15.247  24.426  0.00  0.00    +0.000 C 
ENDBRANCH  11  15
BRANCH   6  18
ATOM     18  O   UNL     1       3.449  15.123  17.343  0.00  0.00    +0.000 OA
ATOM     19  H   UNL     1       4.116  15.756  17.663  0.00  0.00    +0.000 HD
ENDBRANCH   6  18
BRANCH   1  20
ATOM     20  C   UNL     1      -1.258  10.246  19.524  0.00  0.00    +0.000 C 
BRANCH  20  25
ATOM     21  C   UNL     1      -4.973  11.835  16.866  0.00  0.00    +0.000 C 
ATOM     22  C   UNL     1      -3.705  11.101  17.040  0.00  0.00    +0.000 A 
ATOM     23  C   UNL     1      -2.919  10.348  16.195  0.00  0.00    +0.000 A 
ATOM     24  C   UNL     1      -1.818   9.905  16.966  0.00  0.00    +0.000 A 
ATOM     25  C   UNL     1      -1.997  10.418  18.235  0.00  0.00    +0.000 A 
ATOM     26  O   UNL     1      -3.153  11.140  18.285  0.00  0.00    +0.000 OA
ENDBRANCH  20  25
ENDBRANCH   1  20
TORSDOF 4
ENDMDL
MODEL 9
REMARK VINA RESULT:      -5.5      2.567      6.651
REMARK  Name = 
REMARK  7 active torsions:
REMARK  status: ('A' for Active; 'I' for Inactive)
REMARK    1  A    between atoms: C_1  and  C_2
REMARK    2  A    between atoms: C_5  and  C_6
REMARK    3  A    between atoms: C_6  and  N_7
REMARK    4  A    between atoms: C_12  and  O_13
REMARK    5  A    between atoms: N_18  and  C_19
REMARK    6  A    between atoms: C_19  and  C_20
REMARK    7  A    between atoms: C_19  and  C_21
REMARK                            x       y       z     vdW  Elec       q    Type
REMARK                         _______ _______ _______ _____ _____    ______ ____
ROOT
ATOM      1  N   UNL     1       2.593   8.106  18.620  0.00  0.00    +0.000 N 
ATOM      2  C   UNL     1       2.087   7.552  19.774  0.00  0.00    +0.000 C 
ATOM      3  O   UNL     1       2.023   8.165  20.838  0.00  0.00    +0.000 OA
ATOM      4  C   UNL     1       1.499   6.152  19.612  0.00  0.00    +0.000 C 
ATOM      5  C   UNL     1       1.513   5.359  20.912  0.00  0.00    +0.000 C 
ATOM      6  C   UNL     1       1.794   3.925  20.504  0.00  0.00    +0.000 C 
ATOM      7  C   UNL     1       1.912   3.920  18.977  0.00  0.00    +0.000 C 
ATOM      8  N   UNL     1       2.072   5.303  18.542  0.00  0.00    +0.000 NA
ATOM      9  C   UNL     1       3.374   5.788  18.023  0.00  0.00    +0.000 C 
ATOM     10  C   UNL     1       4.665   5.163  18.659  0.00  0.00    +0.000 C 
ATOM     11  N   UNL     1       5.224   5.238  17.283  0.00  0.00    +0.000 NA
ATOM     12  C   UNL     1       3.858   4.953  16.761  0.00  0.00    +0.000 C 
ATOM     13  C   UNL     1       3.364   7.367  17.734  0.00  0.00    +0.000 C 
ATOM     14  O   UNL     1       3.957   7.937  16.812  0.00  0.00    +0.000 OA
ENDROOT
BRANCH  11  15
ATOM     15  C   UNL     1       6.318   4.337  16.952  0.00  0.00    +0.000 C 
ATOM     16  C   UNL     1       6.703   4.139  15.488  0.00  0.00    +0.000 C 
ATOM     17  C   UNL     1       7.552   4.776  17.758  0.00  0.00    +0.000 C 
ENDBRANCH  11  15
BRANCH   6  18
ATOM     18  O   UNL     1       0.754   3.064  20.955  0.00  0.00    +0.000 OA
ATOM     19  H   UNL     1       0.006   3.129  20.335  0.00  0.00    +0.000 HD
ENDBRANCH   6  18
BRANCH   1  20
ATOM     20  C   UNL     1       2.323   9.500  18.344  0.00  0.00    +0.000 C 
BRANCH  20  25
ATOM     21  C   UNL     1      -2.210   9.685  16.667  0.00  0.00    +0.000 C 
ATOM     22  C   UNL     1      -1.204   9.794  17.741  0.00  0.00    +0.000 A 
ATOM     23  C   UNL     1      -1.272  10.131  19.075  0.00  0.00    +0.000 A 
ATOM     24  C   UNL     1       0.051  10.052  19.573  0.00  0.00    +0.000 A 
ATOM     25  C   UNL     1       0.846   9.667  18.512  0.00  0.00    +0.000 A 
ATOM     26  O   UNL     1       0.083   9.519  17.390  0.00  0.00    +0.000 OA
ENDBRANCH  20  25
ENDBRANCH   1  20
TORSDOF 4
ENDMDL
