MODEL 1
REMARK VINA RESULT:      -7.2      0.000      0.000
REMARK  Name = 
REMARK  10 active torsions:
REMARK  status: ('A' for Active; 'I' for Inactive)
REMARK    1  A    between atoms: C_1  and  O_2
REMARK    2  A    between atoms: O_2  and  C_3
REMARK    3  A    between atoms: C_5  and  N_6
REMARK    4  A    between atoms: N_6  and  C_7
REMARK    5  A    between atoms: C_8  and  C_9
REMARK    6  A    between atoms: C_15  and  C_16
REMARK    7  A    between atoms: C_19  and  C_20
REMARK    8  A    between atoms: C_20  and  N_21
REMARK    9  A    between atoms: N_21  and  C_22
REMARK   10  A    between atoms: N_21  and  C_23
REMARK                            x       y       z     vdW  Elec       q    Type
REMARK                         _______ _______ _______ _____ _____    ______ ____
ROOT
ATOM      1  C   UNL     1      -0.278  11.236  20.404  0.00  0.00    +0.000 A 
ATOM      2  C   UNL     1      -0.905  11.427  21.649  0.00  0.00    +0.000 A 
ATOM      3  C   UNL     1      -0.658  10.532  22.678  0.00  0.00    +0.000 A 
ATOM      4  N   UNL     1       0.097   9.418  22.590  0.00  0.00    +0.000 NA
ATOM      5  C   UNL     1       0.614   9.161  21.359  0.00  0.00    +0.000 A 
ATOM      6  C   UNL     1       1.394   8.019  21.014  0.00  0.00    +0.000 A 
ATOM      7  C   UNL     1       1.787   8.003  19.687  0.00  0.00    +0.000 A 
ATOM      8  S   UNL     1       1.196   9.390  18.872  0.00  0.00    +0.000 S 
ATOM      9  C   UNL     1       0.438  10.021  20.279  0.00  0.00    +0.000 A 
ENDROOT
BRANCH   7  10
ATOM     10  C   UNL     1       2.574   6.991  18.969  0.00  0.00    +0.000 A 
ATOM     11  C   UNL     1       2.532   5.632  19.277  0.00  0.00    +0.000 A 
ATOM     12  C   UNL     1       3.319   4.746  18.548  0.00  0.00    +0.000 A 
ATOM     13  C   UNL     1       4.130   5.226  17.521  0.00  0.00    +0.000 A 
ATOM     14  C   UNL     1       4.107   6.596  17.281  0.00  0.00    +0.000 A 
ATOM     15  N   UNL     1       3.350   7.481  17.973  0.00  0.00    +0.000 NA
BRANCH  13  16
ATOM     16  C   UNL     1       4.997   4.300  16.706  0.00  0.00    +0.000 C 
BRANCH  16  17
ATOM     17  N   UNL     1       6.293   4.887  16.320  0.00  0.00    +0.000 NA
ATOM     18  C   UNL     1       7.343   4.591  17.299  0.00  0.00    +0.000 C 
ATOM     19  C   UNL     1       6.693   4.376  15.005  0.00  0.00    +0.000 C 
ENDBRANCH  16  17
ENDBRANCH  13  16
ENDBRANCH   7  10
BRANCH   1  20
ATOM     20  N   UNL     1      -0.344  12.124  19.315  0.00  0.00    +0.000 N 
ATOM     21  H   UNL     1      -0.432  11.629  18.425  0.00  0.00    +0.000 HD
BRANCH  20  24
ATOM     22  C   UNL     1       0.069  15.805  19.294  0.00  0.00    +0.000 A 
ATOM     23  C   UNL     1      -0.480  14.521  19.369  0.00  0.00    +0.000 A 
ATOM     24  C   UNL     1       0.300  13.373  19.124  0.00  0.00    +0.000 A 
ATOM     25  C   UNL     1       1.626  13.552  18.682  0.00  0.00    +0.000 A 
ATOM     26 CL   UNL     1       2.599  12.256  18.069  0.00  0.00    +0.000 Cl
ATOM     27  C   UNL     1       2.196  14.824  18.650  0.00  0.00    +0.000 A 
ATOM     28  C   UNL     1       1.424  15.941  18.964  0.00  0.00    +0.000 A 
ATOM     29 CL   UNL     1       2.191  17.490  18.925  0.00  0.00    +0.000 Cl
BRANCH  22  31
ATOM     30  C   UNL     1      -1.201  17.577  18.333  0.00  0.00    +0.000 C 
ATOM     31  O   UNL     1      -0.644  16.958  19.485  0.00  0.00    +0.000 OA
ENDBRANCH  22  31
ENDBRANCH  20  24
ENDBRANCH   1  20
BRANCH   2  32
ATOM     32  C   UNL     1      -1.824  12.503  21.905  0.00  0.00    +0.000 C 
ATOM     33  N   UNL     1      -2.559  13.366  22.144  0.00  0.00    +0.000 NA
ENDBRANCH   2  32
TORSDOF 7
ENDMDL
MODEL 2
REMARK VINA RESULT:      -7.2      3.142      3.820
REMARK  Name = 
REMARK  10 active torsions:
REMARK  status: ('A' for Active; 'I' for Inactive)
REMARK    1  A    between atoms: C_1  and  O_2
REMARK    2  A    between atoms: O_2  and  C_3
REMARK    3  A    between atoms: C_5  and  N_6
REMARK    4  A    between atoms: N_6  and  C_7
REMARK    5  A    between atoms: C_8  and  C_9
REMARK    6  A    between atoms: C_15  and  C_16
REMARK    7  A    between atoms: C_19  and  C_20
REMARK    8  A    between atoms: C_20  and  N_21
REMARK    9  A    between atoms: N_21  and  C_22
REMARK   10  A    between atoms: N_21  and  C_23
REMARK                            x       y       z     vdW  Elec       q    Type
REMARK                         _______ _______ _______ _____ _____    ______ ____
ROOT
ATOM      1  C   UNL     1      -0.815  11.013  21.016  0.00  0.00    +0.000 A 
ATOM      2  C   UNL     1      -1.181  11.147  22.368  0.00  0.00    +0.000 A 
ATOM      3  C   UNL     1      -0.541  10.374  23.323  0.00  0.00    +0.000 A 
ATOM      4  N   UNL     1       0.384   9.424  23.079  0.00  0.00    +0.000 NA
ATOM      5  C   UNL     1       0.661   9.204  21.766  0.00  0.00    +0.000 A 
ATOM      6  C   UNL     1       1.560   8.217  21.266  0.00  0.00    +0.000 A 
ATOM      7  C   UNL     1       1.650   8.206  19.885  0.00  0.00    +0.000 A 
ATOM      8  S   UNL     1       0.630   9.406  19.211  0.00  0.00    +0.000 S 
ATOM      9  C   UNL     1       0.086   9.954  20.745  0.00  0.00    +0.000 A 
ENDROOT
BRANCH   7  10
ATOM     10  C   UNL     1       2.448   7.327  19.019  0.00  0.00    +0.000 A 
ATOM     11  C   UNL     1       3.258   7.802  17.989  0.00  0.00    +0.000 A 
ATOM     12  C   UNL     1       3.974   6.895  17.215  0.00  0.00    +0.000 A 
ATOM     13  C   UNL     1       3.875   5.530  17.482  0.00  0.00    +0.000 A 
ATOM     14  C   UNL     1       3.045   5.146  18.530  0.00  0.00    +0.000 A 
ATOM     15  N   UNL     1       2.339   6.007  19.302  0.00  0.00    +0.000 NA
BRANCH  13  16
ATOM     16  C   UNL     1       4.634   4.513  16.668  0.00  0.00    +0.000 C 
BRANCH  16  17
ATOM     17  N   UNL     1       5.806   5.067  15.967  0.00  0.00    +0.000 NA
ATOM     18  C   UNL     1       7.031   4.940  16.762  0.00  0.00    +0.000 C 
ATOM     19  C   UNL     1       5.983   4.381  14.683  0.00  0.00    +0.000 C 
ENDBRANCH  16  17
ENDBRANCH  13  16
ENDBRANCH   7  10
BRANCH   1  20
ATOM     20  N   UNL     1      -1.293  11.811  19.960  0.00  0.00    +0.000 N 
ATOM     21  H   UNL     1      -0.926  12.763  20.007  0.00  0.00    +0.000 HD
BRANCH  20  24
ATOM     22  C   UNL     1      -4.868  12.607  19.404  0.00  0.00    +0.000 A 
ATOM     23  C   UNL     1      -3.599  12.479  19.980  0.00  0.00    +0.000 A 
ATOM     24  C   UNL     1      -2.558  11.800  19.317  0.00  0.00    +0.000 A 
ATOM     25  C   UNL     1      -2.855  11.145  18.106  0.00  0.00    +0.000 A 
ATOM     26 CL   UNL     1      -1.763  10.040  17.338  0.00  0.00    +0.000 Cl
ATOM     27  C   UNL     1      -4.102  11.305  17.502  0.00  0.00    +0.000 A 
ATOM     28  C   UNL     1      -5.096  12.041  18.143  0.00  0.00    +0.000 A 
ATOM     29 CL   UNL     1      -6.615  12.221  17.336  0.00  0.00    +0.000 Cl
BRANCH  22  31
ATOM     30  C   UNL     1      -6.570  12.521  21.070  0.00  0.00    +0.000 C 
ATOM     31  O   UNL     1      -5.929  13.222  20.012  0.00  0.00    +0.000 OA
ENDBRANCH  22  31
ENDBRANCH  20  24
ENDBRANCH   1  20
BRANCH   2  32
ATOM     32  C   UNL     1      -2.218  12.037  22.812  0.00  0.00    +0.000 C 
ATOM     33  N   UNL     1      -3.071  12.729  23.185  0.00  0.00    +0.000 NA
ENDBRANCH   2  32
TORSDOF 7
ENDMDL
MODEL 3
REMARK VINA RESULT:      -7.2      1.840      2.691
REMARK  Name = 
REMARK  10 active torsions:
REMARK  status: ('A' for Active; 'I' for Inactive)
REMARK    1  A    between atoms: C_1  and  O_2
REMARK    2  A    between atoms: O_2  and  C_3
REMARK    3  A    between atoms: C_5  and  N_6
REMARK    4  A    between atoms: N_6  and  C_7
REMARK    5  A    between atoms: C_8  and  C_9
REMARK    6  A    between atoms: C_15  and  C_16
REMARK    7  A    between atoms: C_19  and  C_20
REMARK    8  A    between atoms: C_20  and  N_21
REMARK    9  A    between atoms: N_21  and  C_22
REMARK   10  A    between atoms: N_21  and  C_23
REMARK                            x       y       z     vdW  Elec       q    Type
REMARK                         _______ _______ _______ _____ _____    ______ ____
ROOT
ATOM      1  C   UNL     1       0.770   9.951  19.615  0.00  0.00    +0.000 A 
ATOM      2  C   UNL     1       0.199   9.952  20.901  0.00  0.00    +0.000 A 
ATOM      3  C   UNL     1       0.541   8.951  21.796  0.00  0.00    +0.000 A 
ATOM      4  N   UNL     1       1.344   7.899  21.534  0.00  0.00    +0.000 NA
ATOM      5  C   UNL     1       1.808   7.825  20.258  0.00  0.00    +0.000 A 
ATOM      6  C   UNL     1       2.623   6.778  19.737  0.00  0.00    +0.000 A 
ATOM      7  C   UNL     1       2.949   6.949  18.402  0.00  0.00    +0.000 A 
ATOM      8  S   UNL     1       2.251   8.393  17.798  0.00  0.00    +0.000 S 
ATOM      9  C   UNL     1       1.536   8.802  19.305  0.00  0.00    +0.000 A 
ENDROOT
BRANCH   7  10
ATOM     10  C   UNL     1       3.746   6.078  17.528  0.00  0.00    +0.000 A 
ATOM     11  C   UNL     1       3.607   4.691  17.500  0.00  0.00    +0.000 A 
ATOM     12  C   UNL     1       4.411   3.945  16.645  0.00  0.00    +0.000 A 
ATOM     13  C   UNL     1       5.336   4.592  15.827  0.00  0.00    +0.000 A 
ATOM     14  C   UNL     1       5.405   5.978  15.918  0.00  0.00    +0.000 A 
ATOM     15  N   UNL     1       4.634   6.730  16.740  0.00  0.00    +0.000 NA
BRANCH  13  16
ATOM     16  C   UNL     1       6.226   3.822  14.885  0.00  0.00    +0.000 C 
BRANCH  16  17
ATOM     17  N   UNL     1       6.314   4.409  13.536  0.00  0.00    +0.000 NA
ATOM     18  C   UNL     1       7.641   4.973  13.269  0.00  0.00    +0.000 C 
ATOM     19  C   UNL     1       6.006   3.387  12.531  0.00  0.00    +0.000 C 
ENDBRANCH  16  17
ENDBRANCH  13  16
ENDBRANCH   7  10
BRANCH   1  20
ATOM     20  N   UNL     1       0.606  10.963  18.651  0.00  0.00    +0.000 N 
ATOM     21  H   UNL     1       0.831  10.632  17.711  0.00  0.00    +0.000 HD
BRANCH  20  24
ATOM     22  C   UNL     1       2.537  14.104  19.003  0.00  0.00    +0.000 A 
ATOM     23  C   UNL     1       2.174  12.754  18.967  0.00  0.00    +0.000 A 
ATOM     24  C   UNL     1       0.838  12.359  18.754  0.00  0.00    +0.000 A 
ATOM     25  C   UNL     1      -0.152  13.360  18.695  0.00  0.00    +0.000 A 
ATOM     26 CL   UNL     1      -1.849  13.014  18.730  0.00  0.00    +0.000 Cl
ATOM     27  C   UNL     1       0.206  14.708  18.682  0.00  0.00    +0.000 A 
ATOM     28  C   UNL     1       1.543  15.075  18.824  0.00  0.00    +0.000 A 
ATOM     29 CL   UNL     1       1.927  16.760  18.782  0.00  0.00    +0.000 Cl
BRANCH  22  31
ATOM     30  C   UNL     1       4.699  14.605  18.135  0.00  0.00    +0.000 C 
ATOM     31  O   UNL     1       3.808  14.552  19.242  0.00  0.00    +0.000 OA
ENDBRANCH  22  31
ENDBRANCH  20  24
ENDBRANCH   1  20
BRANCH   2  32
ATOM     32  C   UNL     1      -0.756  10.936  21.332  0.00  0.00    +0.000 C 
ATOM     33  N   UNL     1      -1.522  11.746  21.649  0.00  0.00    +0.000 NA
ENDBRANCH   2  32
TORSDOF 7
ENDMDL
MODEL 4
REMARK VINA RESULT:      -7.1      1.887      2.449
REMARK  Name = 
REMARK  10 active torsions:
REMARK  status: ('A' for Active; 'I' for Inactive)
REMARK    1  A    between atoms: C_1  and  O_2
REMARK    2  A    between atoms: O_2  and  C_3
REMARK    3  A    between atoms: C_5  and  N_6
REMARK    4  A    between atoms: N_6  and  C_7
REMARK    5  A    between atoms: C_8  and  C_9
REMARK    6  A    between atoms: C_15  and  C_16
REMARK    7  A    between atoms: C_19  and  C_20
REMARK    8  A    between atoms: C_20  and  N_21
REMARK    9  A    between atoms: N_21  and  C_22
REMARK   10  A    between atoms: N_21  and  C_23
REMARK                            x       y       z     vdW  Elec       q    Type
REMARK                         _______ _______ _______ _____ _____    ______ ____
ROOT
ATOM      1  C   UNL     1      -0.050  11.462  21.065  0.00  0.00    +0.000 A 
ATOM      2  C   UNL     1      -0.764  11.481  22.277  0.00  0.00    +0.000 A 
ATOM      3  C   UNL     1      -0.700  10.382  23.119  0.00  0.00    +0.000 A 
ATOM      4  N   UNL     1      -0.053   9.227  22.861  0.00  0.00    +0.000 NA
ATOM      5  C   UNL     1       0.544   9.154  21.642  0.00  0.00    +0.000 A 
ATOM      6  C   UNL     1       1.234   8.018  21.128  0.00  0.00    +0.000 A 
ATOM      7  C   UNL     1       1.741   8.213  19.855  0.00  0.00    +0.000 A 
ATOM      8  S   UNL     1       1.366   9.789  19.298  0.00  0.00    +0.000 S 
ATOM      9  C   UNL     1       0.551  10.220  20.747  0.00  0.00    +0.000 A 
ENDROOT
BRANCH   7  10
ATOM     10  C   UNL     1       2.486   7.274  19.004  0.00  0.00    +0.000 A 
ATOM     11  C   UNL     1       3.237   7.676  17.900  0.00  0.00    +0.000 A 
ATOM     12  C   UNL     1       3.903   6.715  17.147  0.00  0.00    +0.000 A 
ATOM     13  C   UNL     1       3.816   5.371  17.508  0.00  0.00    +0.000 A 
ATOM     14  C   UNL     1       3.047   5.062  18.625  0.00  0.00    +0.000 A 
ATOM     15  N   UNL     1       2.389   5.976  19.378  0.00  0.00    +0.000 NA
BRANCH  13  16
ATOM     16  C   UNL     1       4.523   4.298  16.720  0.00  0.00    +0.000 C 
BRANCH  16  17
ATOM     17  N   UNL     1       5.729   4.773  16.018  0.00  0.00    +0.000 NA
ATOM     18  C   UNL     1       6.946   4.549  16.805  0.00  0.00    +0.000 C 
ATOM     19  C   UNL     1       5.850   4.089  14.726  0.00  0.00    +0.000 C 
ENDBRANCH  16  17
ENDBRANCH  13  16
ENDBRANCH   7  10
BRANCH   1  20
ATOM     20  N   UNL     1       0.069  12.545  20.175  0.00  0.00    +0.000 N 
ATOM     21  H   UNL     1      -0.278  12.311  19.243  0.00  0.00    +0.000 HD
BRANCH  20  24
ATOM     22  C   UNL     1       3.328  14.193  20.792  0.00  0.00    +0.000 A 
ATOM     23  C   UNL     1       2.237  13.321  20.857  0.00  0.00    +0.000 A 
ATOM     24  C   UNL     1       1.074  13.543  20.091  0.00  0.00    +0.000 A 
ATOM     25  C   UNL     1       0.987  14.733  19.343  0.00  0.00    +0.000 A 
ATOM     26 CL   UNL     1      -0.481  15.273  18.596  0.00  0.00    +0.000 Cl
ATOM     27  C   UNL     1       2.086  15.584  19.235  0.00  0.00    +0.000 A 
ATOM     28  C   UNL     1       3.252  15.308  19.947  0.00  0.00    +0.000 A 
ATOM     29 CL   UNL     1       4.589  16.389  19.759  0.00  0.00    +0.000 Cl
BRANCH  22  31
ATOM     30  C   UNL     1       4.523  14.739  22.780  0.00  0.00    +0.000 C 
ATOM     31  O   UNL     1       4.469  14.053  21.537  0.00  0.00    +0.000 OA
ENDBRANCH  22  31
ENDBRANCH  20  24
ENDBRANCH   1  20
BRANCH   2  32
ATOM     32  C   UNL     1      -1.591  12.585  22.681  0.00  0.00    +0.000 C 
ATOM     33  N   UNL     1      -2.251  13.468  23.038  0.00  0.00    +0.000 NA
ENDBRANCH   2  32
TORSDOF 7
ENDMDL
MODEL 5
REMARK VINA RESULT:      -7.0      3.693      5.212
REMARK  Name = 
REMARK  10 active torsions:
REMARK  status: ('A' for Active; 'I' for Inactive)
REMARK    1  A    between atoms: C_1  and  O_2
REMARK    2  A    between atoms: O_2  and  C_3
REMARK    3  A    between atoms: C_5  and  N_6
REMARK    4  A    between atoms: N_6  and  C_7
REMARK    5  A    between atoms: C_8  and  C_9
REMARK    6  A    between atoms: C_15  and  C_16
REMARK    7  A    between atoms: C_19  and  C_20
REMARK    8  A    between atoms: C_20  and  N_21
REMARK    9  A    between atoms: N_21  and  C_22
REMARK   10  A    between atoms: N_21  and  C_23
REMARK                            x       y       z     vdW  Elec       q    Type
REMARK                         _______ _______ _______ _____ _____    ______ ____
ROOT
ATOM      1  C   UNL     1      -0.455  12.762  19.648  0.00  0.00    +0.000 A 
ATOM      2  C   UNL     1       0.020  14.026  19.252  0.00  0.00    +0.000 A 
ATOM      3  C   UNL     1       1.164  14.108  18.474  0.00  0.00    +0.000 A 
ATOM      4  N   UNL     1       1.936  13.069  18.095  0.00  0.00    +0.000 NA
ATOM      5  C   UNL     1       1.551  11.854  18.568  0.00  0.00    +0.000 A 
ATOM      6  C   UNL     1       2.241  10.627  18.347  0.00  0.00    +0.000 A 
ATOM      7  C   UNL     1       1.633   9.540  18.950  0.00  0.00    +0.000 A 
ATOM      8  S   UNL     1       0.221  10.032  19.786  0.00  0.00    +0.000 S 
ATOM      9  C   UNL     1       0.401  11.679  19.332  0.00  0.00    +0.000 A 
ENDROOT
BRANCH   7  10
ATOM     10  C   UNL     1       2.058   8.133  18.959  0.00  0.00    +0.000 A 
ATOM     11  C   UNL     1       2.689   7.519  17.879  0.00  0.00    +0.000 A 
ATOM     12  C   UNL     1       3.049   6.178  17.975  0.00  0.00    +0.000 A 
ATOM     13  C   UNL     1       2.779   5.473  19.146  0.00  0.00    +0.000 A 
ATOM     14  C   UNL     1       2.148   6.166  20.175  0.00  0.00    +0.000 A 
ATOM     15  N   UNL     1       1.789   7.470  20.110  0.00  0.00    +0.000 NA
BRANCH  13  16
ATOM     16  C   UNL     1       3.153   4.020  19.292  0.00  0.00    +0.000 C 
BRANCH  16  17
ATOM     17  N   UNL     1       2.142   3.215  20.002  0.00  0.00    +0.000 NA
ATOM     18  C   UNL     1       1.632   2.119  19.173  0.00  0.00    +0.000 C 
ATOM     19  C   UNL     1       2.723   2.667  21.232  0.00  0.00    +0.000 C 
ENDBRANCH  16  17
ENDBRANCH  13  16
ENDBRANCH   7  10
BRANCH   1  20
ATOM     20  N   UNL     1      -1.659  12.524  20.335  0.00  0.00    +0.000 N 
ATOM     21  H   UNL     1      -1.519  11.929  21.153  0.00  0.00    +0.000 HD
BRANCH  20  24
ATOM     22  C   UNL     1      -4.327  11.568  17.949  0.00  0.00    +0.000 A 
ATOM     23  C   UNL     1      -3.082  11.845  18.523  0.00  0.00    +0.000 A 
ATOM     24  C   UNL     1      -2.975  12.366  19.828  0.00  0.00    +0.000 A 
ATOM     25  C   UNL     1      -4.161  12.714  20.505  0.00  0.00    +0.000 A 
ATOM     26 CL   UNL     1      -4.173  13.624  21.979  0.00  0.00    +0.000 Cl
ATOM     27  C   UNL     1      -5.406  12.399  19.961  0.00  0.00    +0.000 A 
ATOM     28  C   UNL     1      -5.486  11.820  18.696  0.00  0.00    +0.000 A 
ATOM     29 CL   UNL     1      -7.055  11.434  18.082  0.00  0.00    +0.000 Cl
BRANCH  22  31
ATOM     30  C   UNL     1      -3.330  10.727  15.955  0.00  0.00    +0.000 C 
ATOM     31  O   UNL     1      -4.498  11.098  16.675  0.00  0.00    +0.000 OA
ENDBRANCH  22  31
ENDBRANCH  20  24
ENDBRANCH   1  20
BRANCH   2  32
ATOM     32  C   UNL     1      -0.613  15.256  19.643  0.00  0.00    +0.000 C 
ATOM     33  N   UNL     1      -1.097  16.254  19.979  0.00  0.00    +0.000 NA
ENDBRANCH   2  32
TORSDOF 7
ENDMDL
MODEL 6
REMARK VINA RESULT:      -7.0      1.721      2.296
REMARK  Name = 
REMARK  10 active torsions:
REMARK  status: ('A' for Active; 'I' for Inactive)
REMARK    1  A    between atoms: C_1  and  O_2
REMARK    2  A    between atoms: O_2  and  C_3
REMARK    3  A    between atoms: C_5  and  N_6
REMARK    4  A    between atoms: N_6  and  C_7
REMARK    5  A    between atoms: C_8  and  C_9
REMARK    6  A    between atoms: C_15  and  C_16
REMARK    7  A    between atoms: C_19  and  C_20
REMARK    8  A    between atoms: C_20  and  N_21
REMARK    9  A    between atoms: N_21  and  C_22
REMARK   10  A    between atoms: N_21  and  C_23
REMARK                            x       y       z     vdW  Elec       q    Type
REMARK                         _______ _______ _______ _____ _____    ______ ____
ROOT
ATOM      1  C   UNL     1      -0.018  11.340  20.975  0.00  0.00    +0.000 A 
ATOM      2  C   UNL     1      -0.737  11.369  22.185  0.00  0.00    +0.000 A 
ATOM      3  C   UNL     1      -0.669  10.281  23.040  0.00  0.00    +0.000 A 
ATOM      4  N   UNL     1      -0.015   9.126  22.798  0.00  0.00    +0.000 NA
ATOM      5  C   UNL     1       0.586   9.042  21.581  0.00  0.00    +0.000 A 
ATOM      6  C   UNL     1       1.285   7.904  21.083  0.00  0.00    +0.000 A 
ATOM      7  C   UNL     1       1.795   8.087  19.810  0.00  0.00    +0.000 A 
ATOM      8  S   UNL     1       1.413   9.655  19.233  0.00  0.00    +0.000 S 
ATOM      9  C   UNL     1       0.591  10.098  20.675  0.00  0.00    +0.000 A 
ENDROOT
BRANCH   7  10
ATOM     10  C   UNL     1       2.547   7.142  18.972  0.00  0.00    +0.000 A 
ATOM     11  C   UNL     1       2.464   5.758  19.119  0.00  0.00    +0.000 A 
ATOM     12  C   UNL     1       3.220   4.941  18.285  0.00  0.00    +0.000 A 
ATOM     13  C   UNL     1       4.041   5.514  17.316  0.00  0.00    +0.000 A 
ATOM     14  C   UNL     1       4.060   6.903  17.239  0.00  0.00    +0.000 A 
ATOM     15  N   UNL     1       3.335   7.723  18.036  0.00  0.00    +0.000 NA
BRANCH  13  16
ATOM     16  C   UNL     1       4.876   4.664  16.391  0.00  0.00    +0.000 C 
BRANCH  16  17
ATOM     17  N   UNL     1       6.257   5.151  16.222  0.00  0.00    +0.000 NA
ATOM     18  C   UNL     1       7.153   4.632  17.261  0.00  0.00    +0.000 C 
ATOM     19  C   UNL     1       6.760   4.758  14.902  0.00  0.00    +0.000 C 
ENDBRANCH  16  17
ENDBRANCH  13  16
ENDBRANCH   7  10
BRANCH   1  20
ATOM     20  N   UNL     1       0.098  12.413  20.073  0.00  0.00    +0.000 N 
ATOM     21  H   UNL     1       0.058  12.099  19.102  0.00  0.00    +0.000 HD
BRANCH  20  24
ATOM     22  C   UNL     1       3.103  14.541  20.479  0.00  0.00    +0.000 A 
ATOM     23  C   UNL     1       2.236  13.444  20.437  0.00  0.00    +0.000 A 
ATOM     24  C   UNL     1       0.861  13.605  20.176  0.00  0.00    +0.000 A 
ATOM     25  C   UNL     1       0.352  14.915  20.073  0.00  0.00    +0.000 A 
ATOM     26 CL   UNL     1      -1.344  15.268  20.046  0.00  0.00    +0.000 Cl
ATOM     27  C   UNL     1       1.214  16.011  20.066  0.00  0.00    +0.000 A 
ATOM     28  C   UNL     1       2.581  15.822  20.257  0.00  0.00    +0.000 A 
ATOM     29 CL   UNL     1       3.603  17.217  20.219  0.00  0.00    +0.000 Cl
BRANCH  22  31
ATOM     30  C   UNL     1       4.802  14.181  22.110  0.00  0.00    +0.000 C 
ATOM     31  O   UNL     1       4.440  14.454  20.763  0.00  0.00    +0.000 OA
ENDBRANCH  22  31
ENDBRANCH  20  24
ENDBRANCH   1  20
BRANCH   2  32
ATOM     32  C   UNL     1      -1.571  12.473  22.573  0.00  0.00    +0.000 C 
ATOM     33  N   UNL     1      -2.239  13.378  22.855  0.00  0.00    +0.000 NA
ENDBRANCH   2  32
TORSDOF 7
ENDMDL
MODEL 7
REMARK VINA RESULT:      -6.9      1.694      2.031
REMARK  Name = 
REMARK  10 active torsions:
REMARK  status: ('A' for Active; 'I' for Inactive)
REMARK    1  A    between atoms: C_1  and  O_2
REMARK    2  A    between atoms: O_2  and  C_3
REMARK    3  A    between atoms: C_5  and  N_6
REMARK    4  A    between atoms: N_6  and  C_7
REMARK    5  A    between atoms: C_8  and  C_9
REMARK    6  A    between atoms: C_15  and  C_16
REMARK    7  A    between atoms: C_19  and  C_20
REMARK    8  A    between atoms: C_20  and  N_21
REMARK    9  A    between atoms: N_21  and  C_22
REMARK   10  A    between atoms: N_21  and  C_23
REMARK                            x       y       z     vdW  Elec       q    Type
REMARK                         _______ _______ _______ _____ _____    ______ ____
ROOT
ATOM      1  C   UNL     1      -0.509  11.961  20.673  0.00  0.00    +0.000 A 
ATOM      2  C   UNL     1      -1.153  12.462  21.820  0.00  0.00    +0.000 A 
ATOM      3  C   UNL     1      -1.062  11.759  23.011  0.00  0.00    +0.000 A 
ATOM      4  N   UNL     1      -0.453  10.567  23.179  0.00  0.00    +0.000 NA
ATOM      5  C   UNL     1       0.073  10.018  22.052  0.00  0.00    +0.000 A 
ATOM      6  C   UNL     1       0.712   8.746  21.975  0.00  0.00    +0.000 A 
ATOM      7  C   UNL     1       1.150   8.428  20.701  0.00  0.00    +0.000 A 
ATOM      8  S   UNL     1       0.774   9.693  19.607  0.00  0.00    +0.000 S 
ATOM      9  C   UNL     1       0.050  10.668  20.822  0.00  0.00    +0.000 A 
ENDROOT
BRANCH   7  10
ATOM     10  C   UNL     1       1.828   7.210  20.235  0.00  0.00    +0.000 A 
ATOM     11  C   UNL     1       1.657   5.964  20.836  0.00  0.00    +0.000 A 
ATOM     12  C   UNL     1       2.346   4.867  20.331  0.00  0.00    +0.000 A 
ATOM     13  C   UNL     1       3.189   5.026  19.232  0.00  0.00    +0.000 A 
ATOM     14  C   UNL     1       3.297   6.304  18.694  0.00  0.00    +0.000 A 
ATOM     15  N   UNL     1       2.637   7.390  19.164  0.00  0.00    +0.000 NA
BRANCH  13  16
ATOM     16  C   UNL     1       3.953   3.863  18.653  0.00  0.00    +0.000 C 
BRANCH  16  17
ATOM     17  N   UNL     1       3.563   2.557  19.213  0.00  0.00    +0.000 NA
ATOM     18  C   UNL     1       3.388   1.542  18.170  0.00  0.00    +0.000 C 
ATOM     19  C   UNL     1       4.581   2.106  20.168  0.00  0.00    +0.000 C 
ENDBRANCH  16  17
ENDBRANCH  13  16
ENDBRANCH   7  10
BRANCH   1  20
ATOM     20  N   UNL     1      -0.419  12.623  19.436  0.00  0.00    +0.000 N 
ATOM     21  H   UNL     1      -0.635  12.001  18.655  0.00  0.00    +0.000 HD
BRANCH  20  24
ATOM     22  C   UNL     1       0.776  16.066  18.773  0.00  0.00    +0.000 A 
ATOM     23  C   UNL     1      -0.031  14.966  19.079  0.00  0.00    +0.000 A 
ATOM     24  C   UNL     1       0.468  13.650  19.020  0.00  0.00    +0.000 A 
ATOM     25  C   UNL     1       1.774  13.455  18.528  0.00  0.00    +0.000 A 
ATOM     26 CL   UNL     1       2.408  11.893  18.128  0.00  0.00    +0.000 Cl
ATOM     27  C   UNL     1       2.602  14.546  18.265  0.00  0.00    +0.000 A 
ATOM     28  C   UNL     1       2.108  15.842  18.398  0.00  0.00    +0.000 A 
ATOM     29 CL   UNL     1       3.187  17.154  18.078  0.00  0.00    +0.000 Cl
BRANCH  22  31
ATOM     30  C   UNL     1      -0.308  17.830  19.951  0.00  0.00    +0.000 C 
ATOM     31  O   UNL     1       0.341  17.364  18.776  0.00  0.00    +0.000 OA
ENDBRANCH  22  31
ENDBRANCH  20  24
ENDBRANCH   1  20
BRANCH   2  32
ATOM     32  C   UNL     1      -1.935  13.667  21.813  0.00  0.00    +0.000 C 
ATOM     33  N   UNL     1      -2.542  14.655  21.827  0.00  0.00    +0.000 NA
ENDBRANCH   2  32
TORSDOF 7
ENDMDL
MODEL 8
REMARK VINA RESULT:      -6.9      3.648      5.318
REMARK  Name = 
REMARK  10 active torsions:
REMARK  status: ('A' for Active; 'I' for Inactive)
REMARK    1  A    between atoms: C_1  and  O_2
REMARK    2  A    between atoms: O_2  and  C_3
REMARK    3  A    between atoms: C_5  and  N_6
REMARK    4  A    between atoms: N_6  and  C_7
REMARK    5  A    between atoms: C_8  and  C_9
REMARK    6  A    between atoms: C_15  and  C_16
REMARK    7  A    between atoms: C_19  and  C_20
REMARK    8  A    between atoms: C_20  and  N_21
REMARK    9  A    between atoms: N_21  and  C_22
REMARK   10  A    between atoms: N_21  and  C_23
REMARK                            x       y       z     vdW  Elec       q    Type
REMARK                         _______ _______ _______ _____ _____    ______ ____
ROOT
ATOM      1  C   UNL     1      -0.739  12.966  20.248  0.00  0.00    +0.000 A 
ATOM      2  C   UNL     1      -0.381  14.214  19.705  0.00  0.00    +0.000 A 
ATOM      3  C   UNL     1       0.588  14.270  18.716  0.00  0.00    +0.000 A 
ATOM      4  N   UNL     1       1.297  13.223  18.246  0.00  0.00    +0.000 NA
ATOM      5  C   UNL     1       1.041  12.030  18.846  0.00  0.00    +0.000 A 
ATOM      6  C   UNL     1       1.703  10.802  18.556  0.00  0.00    +0.000 A 
ATOM      7  C   UNL     1       1.250   9.740  19.320  0.00  0.00    +0.000 A 
ATOM      8  S   UNL     1       0.015  10.258  20.389  0.00  0.00    +0.000 S 
ATOM      9  C   UNL     1       0.065  11.880  19.827  0.00  0.00    +0.000 A 
ENDROOT
BRANCH   7  10
ATOM     10  C   UNL     1       1.702   8.342  19.316  0.00  0.00    +0.000 A 
ATOM     11  C   UNL     1       2.229   7.712  18.190  0.00  0.00    +0.000 A 
ATOM     12  C   UNL     1       2.624   6.381  18.278  0.00  0.00    +0.000 A 
ATOM     13  C   UNL     1       2.493   5.701  19.487  0.00  0.00    +0.000 A 
ATOM     14  C   UNL     1       1.959   6.408  20.560  0.00  0.00    +0.000 A 
ATOM     15  N   UNL     1       1.568   7.703  20.504  0.00  0.00    +0.000 NA
BRANCH  13  16
ATOM     16  C   UNL     1       2.909   4.258  19.626  0.00  0.00    +0.000 C 
BRANCH  16  17
ATOM     17  N   UNL     1       1.817   3.363  20.048  0.00  0.00    +0.000 NA
ATOM     18  C   UNL     1       1.642   2.238  19.124  0.00  0.00    +0.000 C 
ATOM     19  C   UNL     1       2.091   2.851  21.395  0.00  0.00    +0.000 C 
ENDBRANCH  16  17
ENDBRANCH  13  16
ENDBRANCH   7  10
BRANCH   1  20
ATOM     20  N   UNL     1      -1.782  12.749  21.168  0.00  0.00    +0.000 N 
ATOM     21  H   UNL     1      -1.499  12.120  21.922  0.00  0.00    +0.000 HD
BRANCH  20  24
ATOM     22  C   UNL     1      -4.935  12.254  19.288  0.00  0.00    +0.000 A 
ATOM     23  C   UNL     1      -3.588  12.442  19.616  0.00  0.00    +0.000 A 
ATOM     24  C   UNL     1      -3.180  12.659  20.947  0.00  0.00    +0.000 A 
ATOM     25  C   UNL     1      -4.176  12.800  21.934  0.00  0.00    +0.000 A 
ATOM     26 CL   UNL     1      -3.840  13.354  23.541  0.00  0.00    +0.000 Cl
ATOM     27  C   UNL     1      -5.516  12.568  21.626  0.00  0.00    +0.000 A 
ATOM     28  C   UNL     1      -5.890  12.286  20.313  0.00  0.00    +0.000 A 
ATOM     29 CL   UNL     1      -7.563  11.988  19.995  0.00  0.00    +0.000 Cl
BRANCH  22  31
ATOM     30  C   UNL     1      -4.550  11.390  17.101  0.00  0.00    +0.000 C 
ATOM     31  O   UNL     1      -5.398  12.076  18.012  0.00  0.00    +0.000 OA
ENDBRANCH  22  31
ENDBRANCH  20  24
ENDBRANCH   1  20
BRANCH   2  32
ATOM     32  C   UNL     1      -0.955  15.454  20.150  0.00  0.00    +0.000 C 
ATOM     33  N   UNL     1      -1.387  16.468  20.508  0.00  0.00    +0.000 NA
ENDBRANCH   2  32
TORSDOF 7
ENDMDL
MODEL 9
REMARK VINA RESULT:      -6.9      1.522      2.109
REMARK  Name = 
REMARK  10 active torsions:
REMARK  status: ('A' for Active; 'I' for Inactive)
REMARK    1  A    between atoms: C_1  and  O_2
REMARK    2  A    between atoms: O_2  and  C_3
REMARK    3  A    between atoms: C_5  and  N_6
REMARK    4  A    between atoms: N_6  and  C_7
REMARK    5  A    between atoms: C_8  and  C_9
REMARK    6  A    between atoms: C_15  and  C_16
REMARK    7  A    between atoms: C_19  and  C_20
REMARK    8  A    between atoms: C_20  and  N_21
REMARK    9  A    between atoms: N_21  and  C_22
REMARK   10  A    between atoms: N_21  and  C_23
REMARK                            x       y       z     vdW  Elec       q    Type
REMARK                         _______ _______ _______ _____ _____    ______ ____
ROOT
ATOM      1  C   UNL     1      -0.779  11.470  21.095  0.00  0.00    +0.000 A 
ATOM      2  C   UNL     1      -1.358  11.567  22.374  0.00  0.00    +0.000 A 
ATOM      3  C   UNL     1      -1.008  10.645  23.348  0.00  0.00    +0.000 A 
ATOM      4  N   UNL     1      -0.190   9.586  23.174  0.00  0.00    +0.000 NA
ATOM      5  C   UNL     1       0.283   9.416  21.911  0.00  0.00    +0.000 A 
ATOM      6  C   UNL     1       1.114   8.342  21.479  0.00  0.00    +0.000 A 
ATOM      7  C   UNL     1       1.444   8.409  20.137  0.00  0.00    +0.000 A 
ATOM      8  S   UNL     1       0.732   9.791  19.415  0.00  0.00    +0.000 S 
ATOM      9  C   UNL     1       0.004  10.310  20.881  0.00  0.00    +0.000 A 
ENDROOT
BRANCH   7  10
ATOM     10  C   UNL     1       2.258   7.481  19.339  0.00  0.00    +0.000 A 
ATOM     11  C   UNL     1       2.441   6.142  19.679  0.00  0.00    +0.000 A 
ATOM     12  C   UNL     1       3.235   5.338  18.867  0.00  0.00    +0.000 A 
ATOM     13  C   UNL     1       3.829   5.880  17.727  0.00  0.00    +0.000 A 
ATOM     14  C   UNL     1       3.589   7.225  17.464  0.00  0.00    +0.000 A 
ATOM     15  N   UNL     1       2.820   8.030  18.235  0.00  0.00    +0.000 NA
BRANCH  13  16
ATOM     16  C   UNL     1       4.696   5.044  16.820  0.00  0.00    +0.000 C 
BRANCH  16  17
ATOM     17  N   UNL     1       5.755   5.810  16.139  0.00  0.00    +0.000 NA
ATOM     18  C   UNL     1       6.985   5.874  16.935  0.00  0.00    +0.000 C 
ATOM     19  C   UNL     1       6.046   5.200  14.838  0.00  0.00    +0.000 C 
ENDBRANCH  16  17
ENDBRANCH  13  16
ENDBRANCH   7  10
BRANCH   1  20
ATOM     20  N   UNL     1      -0.951  12.399  20.052  0.00  0.00    +0.000 N 
ATOM     21  H   UNL     1      -1.212  11.943  19.176  0.00  0.00    +0.000 HD
BRANCH  20  24
ATOM     22  C   UNL     1       1.895  14.602  19.173  0.00  0.00    +0.000 A 
ATOM     23  C   UNL     1       1.122  13.490  19.523  0.00  0.00    +0.000 A 
ATOM     24  C   UNL     1      -0.256  13.608  19.792  0.00  0.00    +0.000 A 
ATOM     25  C   UNL     1      -0.821  14.899  19.816  0.00  0.00    +0.000 A 
ATOM     26 CL   UNL     1      -2.416  15.220  20.411  0.00  0.00    +0.000 Cl
ATOM     27  C   UNL     1      -0.071  16.007  19.422  0.00  0.00    +0.000 A 
ATOM     28  C   UNL     1       1.275  15.856  19.092  0.00  0.00    +0.000 A 
ATOM     29 CL   UNL     1       2.148  17.262  18.593  0.00  0.00    +0.000 Cl
BRANCH  22  31
ATOM     30  C   UNL     1       4.105  14.651  20.061  0.00  0.00    +0.000 C 
ATOM     31  O   UNL     1       3.243  14.558  18.936  0.00  0.00    +0.000 OA
ENDBRANCH  22  31
ENDBRANCH  20  24
ENDBRANCH   1  20
BRANCH   2  32
ATOM     32  C   UNL     1      -2.327  12.570  22.719  0.00  0.00    +0.000 C 
ATOM     33  N   UNL     1      -3.090  13.388  23.024  0.00  0.00    +0.000 NA
ENDBRANCH   2  32
TORSDOF 7
ENDMDL
