MODEL 1
REMARK VINA RESULT:      -7.6      0.000      0.000
REMARK  Name = 
REMARK  8 active torsions:
REMARK  status: ('A' for Active; 'I' for Inactive)
REMARK    1  A    between atoms: C_1  and  C_2
REMARK    2  A    between atoms: C_2  and  O_3
REMARK    3  A    between atoms: O_3  and  C_4
REMARK    4  A    between atoms: C_7  and  C_8
REMARK    5  A    between atoms: C_8  and  C_9
REMARK    6  A    between atoms: N_11  and  C_12
REMARK    7  A    between atoms: C_12  and  C_13
REMARK    8  A    between atoms: C_13  and  C_14
REMARK                            x       y       z     vdW  Elec       q    Type
REMARK                         _______ _______ _______ _____ _____    ______ ____
ROOT
ATOM      1  C   UNL     1       7.032   6.690  17.529  0.00  0.00    +0.000 C 
ATOM      2  O   UNL     1       7.289   6.218  18.630  0.00  0.00    +0.000 OA
ATOM      3  N   UNL     1       7.523   7.923  17.118  0.00  0.00    +0.000 N 
ATOM      4  H   UNL     1       7.052   8.406  16.362  0.00  0.00    +0.000 HD
ENDROOT
BRANCH   1   5
ATOM      5  C   UNL     1       6.165   5.943  16.529  0.00  0.00    +0.000 C 
BRANCH   5   9
ATOM      6  C   UNL     1       2.415   4.454  18.112  0.00  0.00    +0.000 A 
ATOM      7  C   UNL     1       2.735   5.809  18.185  0.00  0.00    +0.000 A 
ATOM      8  C   UNL     1       3.939   6.280  17.654  0.00  0.00    +0.000 A 
ATOM      9  C   UNL     1       4.863   5.397  17.072  0.00  0.00    +0.000 A 
ATOM     10  C   UNL     1       4.510   4.046  16.964  0.00  0.00    +0.000 A 
ATOM     11  C   UNL     1       3.310   3.574  17.507  0.00  0.00    +0.000 A 
BRANCH   6  12
ATOM     12  O   UNL     1       1.214   4.100  18.662  0.00  0.00    +0.000 OA
BRANCH  12  14
ATOM     13  C   UNL     1       1.587   3.591  20.962  0.00  0.00    +0.000 C 
ATOM     14  C   UNL     1       1.261   3.019  19.597  0.00  0.00    +0.000 C 
ENDBRANCH  12  14
ENDBRANCH   6  12
ENDBRANCH   5   9
ENDBRANCH   1   5
BRANCH   3  15
ATOM     15  C   UNL     1       8.327   8.674  18.078  0.00  0.00    +0.000 C 
BRANCH  15  16
ATOM     16  C   UNL     1       8.175  10.196  18.047  0.00  0.00    +0.000 C 
BRANCH  16  17
ATOM     17  C   UNL     1       9.403  10.859  18.643  0.00  0.00    +0.000 A 
ATOM     18  C   UNL     1      10.502  11.166  17.826  0.00  0.00    +0.000 A 
ATOM     19  C   UNL     1      11.667  11.713  18.374  0.00  0.00    +0.000 A 
ATOM     20  C   UNL     1      11.749  11.958  19.743  0.00  0.00    +0.000 A 
ATOM     21  C   UNL     1      10.664  11.663  20.564  0.00  0.00    +0.000 A 
ATOM     22  C   UNL     1       9.496  11.116  20.019  0.00  0.00    +0.000 A 
ENDBRANCH  16  17
ENDBRANCH  15  16
ENDBRANCH   3  15
TORSDOF 7
ENDMDL
MODEL 2
REMARK VINA RESULT:      -7.5      1.344      1.666
REMARK  Name = 
REMARK  8 active torsions:
REMARK  status: ('A' for Active; 'I' for Inactive)
REMARK    1  A    between atoms: C_1  and  C_2
REMARK    2  A    between atoms: C_2  and  O_3
REMARK    3  A    between atoms: O_3  and  C_4
REMARK    4  A    between atoms: C_7  and  C_8
REMARK    5  A    between atoms: C_8  and  C_9
REMARK    6  A    between atoms: N_11  and  C_12
REMARK    7  A    between atoms: C_12  and  C_13
REMARK    8  A    between atoms: C_13  and  C_14
REMARK                            x       y       z     vdW  Elec       q    Type
REMARK                         _______ _______ _______ _____ _____    ______ ____
ROOT
ATOM      1  C   UNL     1       7.697   7.196  17.922  0.00  0.00    +0.000 C 
ATOM      2  O   UNL     1       7.083   7.683  16.980  0.00  0.00    +0.000 OA
ATOM      3  N   UNL     1       8.503   7.961  18.757  0.00  0.00    +0.000 N 
ATOM      4  H   UNL     1       9.215   7.494  19.305  0.00  0.00    +0.000 HD
ENDROOT
BRANCH   1   5
ATOM      5  C   UNL     1       7.603   5.715  18.249  0.00  0.00    +0.000 C 
BRANCH   5   9
ATOM      6  C   UNL     1       3.623   4.009  18.064  0.00  0.00    +0.000 A 
ATOM      7  C   UNL     1       4.057   4.693  19.198  0.00  0.00    +0.000 A 
ATOM      8  C   UNL     1       5.336   5.255  19.239  0.00  0.00    +0.000 A 
ATOM      9  C   UNL     1       6.219   5.112  18.157  0.00  0.00    +0.000 A 
ATOM     10  C   UNL     1       5.756   4.462  17.005  0.00  0.00    +0.000 A 
ATOM     11  C   UNL     1       4.480   3.891  16.971  0.00  0.00    +0.000 A 
BRANCH   6  12
ATOM     12  O   UNL     1       2.356   3.498  18.129  0.00  0.00    +0.000 OA
BRANCH  12  14
ATOM     13  C   UNL     1       0.879   3.134  19.965  0.00  0.00    +0.000 C 
ATOM     14  C   UNL     1       2.102   2.624  19.230  0.00  0.00    +0.000 C 
ENDBRANCH  12  14
ENDBRANCH   6  12
ENDBRANCH   5   9
ENDBRANCH   1   5
BRANCH   3  15
ATOM     15  C   UNL     1       8.637   9.380  18.436  0.00  0.00    +0.000 C 
BRANCH  15  16
ATOM     16  C   UNL     1       9.130  10.287  19.565  0.00  0.00    +0.000 C 
BRANCH  16  17
ATOM     17  C   UNL     1      10.166  11.263  19.041  0.00  0.00    +0.000 A 
ATOM     18  C   UNL     1       9.989  11.871  17.788  0.00  0.00    +0.000 A 
ATOM     19  C   UNL     1      10.970  12.718  17.261  0.00  0.00    +0.000 A 
ATOM     20  C   UNL     1      12.138  12.967  17.977  0.00  0.00    +0.000 A 
ATOM     21  C   UNL     1      12.325  12.374  19.224  0.00  0.00    +0.000 A 
ATOM     22  C   UNL     1      11.345  11.527  19.754  0.00  0.00    +0.000 A 
ENDBRANCH  16  17
ENDBRANCH  15  16
ENDBRANCH   3  15
TORSDOF 7
ENDMDL
MODEL 3
REMARK VINA RESULT:      -7.4      1.366      1.850
REMARK  Name = 
REMARK  8 active torsions:
REMARK  status: ('A' for Active; 'I' for Inactive)
REMARK    1  A    between atoms: C_1  and  C_2
REMARK    2  A    between atoms: C_2  and  O_3
REMARK    3  A    between atoms: O_3  and  C_4
REMARK    4  A    between atoms: C_7  and  C_8
REMARK    5  A    between atoms: C_8  and  C_9
REMARK    6  A    between atoms: N_11  and  C_12
REMARK    7  A    between atoms: C_12  and  C_13
REMARK    8  A    between atoms: C_13  and  C_14
REMARK                            x       y       z     vdW  Elec       q    Type
REMARK                         _______ _______ _______ _____ _____    ______ ____
ROOT
ATOM      1  C   UNL     1       7.708   7.274  17.702  0.00  0.00    +0.000 C 
ATOM      2  O   UNL     1       7.103   7.816  16.786  0.00  0.00    +0.000 OA
ATOM      3  N   UNL     1       8.485   7.990  18.605  0.00  0.00    +0.000 N 
ATOM      4  H   UNL     1       9.196   7.497  19.132  0.00  0.00    +0.000 HD
ENDROOT
BRANCH   1   5
ATOM      5  C   UNL     1       7.635   5.772  17.922  0.00  0.00    +0.000 C 
BRANCH   5   9
ATOM      6  C   UNL     1       3.649   4.104  18.263  0.00  0.00    +0.000 A 
ATOM      7  C   UNL     1       4.407   3.917  17.108  0.00  0.00    +0.000 A 
ATOM      8  C   UNL     1       5.698   4.444  17.017  0.00  0.00    +0.000 A 
ATOM      9  C   UNL     1       6.243   5.200  18.068  0.00  0.00    +0.000 A 
ATOM     10  C   UNL     1       5.489   5.342  19.241  0.00  0.00    +0.000 A 
ATOM     11  C   UNL     1       4.193   4.823  19.325  0.00  0.00    +0.000 A 
BRANCH   6  12
ATOM     12  O   UNL     1       2.400   3.548  18.247  0.00  0.00    +0.000 OA
BRANCH  12  14
ATOM     13  C   UNL     1       0.988   3.196  20.138  0.00  0.00    +0.000 C 
ATOM     14  C   UNL     1       1.432   4.188  19.081  0.00  0.00    +0.000 C 
ENDBRANCH  12  14
ENDBRANCH   6  12
ENDBRANCH   5   9
ENDBRANCH   1   5
BRANCH   3  15
ATOM     15  C   UNL     1       8.601   9.430  18.389  0.00  0.00    +0.000 C 
BRANCH  15  16
ATOM     16  C   UNL     1       9.157  10.249  19.555  0.00  0.00    +0.000 C 
BRANCH  16  17
ATOM     17  C   UNL     1      10.191  11.240  19.054  0.00  0.00    +0.000 A 
ATOM     18  C   UNL     1      10.056  11.814  17.781  0.00  0.00    +0.000 A 
ATOM     19  C   UNL     1      11.037  12.675  17.278  0.00  0.00    +0.000 A 
ATOM     20  C   UNL     1      12.164  12.972  18.040  0.00  0.00    +0.000 A 
ATOM     21  C   UNL     1      12.308  12.414  19.309  0.00  0.00    +0.000 A 
ATOM     22  C   UNL     1      11.328  11.552  19.814  0.00  0.00    +0.000 A 
ENDBRANCH  16  17
ENDBRANCH  15  16
ENDBRANCH   3  15
TORSDOF 7
ENDMDL
MODEL 4
REMARK VINA RESULT:      -7.2      1.549      2.201
REMARK  Name = 
REMARK  8 active torsions:
REMARK  status: ('A' for Active; 'I' for Inactive)
REMARK    1  A    between atoms: C_1  and  C_2
REMARK    2  A    between atoms: C_2  and  O_3
REMARK    3  A    between atoms: O_3  and  C_4
REMARK    4  A    between atoms: C_7  and  C_8
REMARK    5  A    between atoms: C_8  and  C_9
REMARK    6  A    between atoms: N_11  and  C_12
REMARK    7  A    between atoms: C_12  and  C_13
REMARK    8  A    between atoms: C_13  and  C_14
REMARK                            x       y       z     vdW  Elec       q    Type
REMARK                         _______ _______ _______ _____ _____    ______ ____
ROOT
ATOM      1  C   UNL     1       7.818   7.180  18.049  0.00  0.00    +0.000 C 
ATOM      2  O   UNL     1       7.110   7.636  17.160  0.00  0.00    +0.000 OA
ATOM      3  N   UNL     1       8.628   7.986  18.840  0.00  0.00    +0.000 N 
ATOM      4  H   UNL     1       9.405   7.561  19.330  0.00  0.00    +0.000 HD
ENDROOT
BRANCH   1   5
ATOM      5  C   UNL     1       7.844   5.692  18.357  0.00  0.00    +0.000 C 
BRANCH   5   9
ATOM      6  C   UNL     1       4.169   3.532  17.575  0.00  0.00    +0.000 A 
ATOM      7  C   UNL     1       4.506   3.926  18.869  0.00  0.00    +0.000 A 
ATOM      8  C   UNL     1       5.685   4.639  19.105  0.00  0.00    +0.000 A 
ATOM      9  C   UNL     1       6.568   4.939  18.056  0.00  0.00    +0.000 A 
ATOM     10  C   UNL     1       6.196   4.578  16.754  0.00  0.00    +0.000 A 
ATOM     11  C   UNL     1       5.021   3.855  16.521  0.00  0.00    +0.000 A 
BRANCH   6  12
ATOM     12  O   UNL     1       2.995   2.840  17.454  0.00  0.00    +0.000 OA
BRANCH  12  14
ATOM     13  C   UNL     1       1.403   4.605  17.647  0.00  0.00    +0.000 C 
ATOM     14  C   UNL     1       1.915   3.317  18.260  0.00  0.00    +0.000 C 
ENDBRANCH  12  14
ENDBRANCH   6  12
ENDBRANCH   5   9
ENDBRANCH   1   5
BRANCH   3  15
ATOM     15  C   UNL     1       8.646   9.414  18.535  0.00  0.00    +0.000 C 
BRANCH  15  16
ATOM     16  C   UNL     1       9.154  10.339  19.643  0.00  0.00    +0.000 C 
BRANCH  16  17
ATOM     17  C   UNL     1      10.261  11.233  19.116  0.00  0.00    +0.000 A 
ATOM     18  C   UNL     1      11.218  11.761  19.996  0.00  0.00    +0.000 A 
ATOM     19  C   UNL     1      12.202  12.642  19.536  0.00  0.00    +0.000 A 
ATOM     20  C   UNL     1      12.241  13.007  18.193  0.00  0.00    +0.000 A 
ATOM     21  C   UNL     1      11.301  12.486  17.306  0.00  0.00    +0.000 A 
ATOM     22  C   UNL     1      10.316  11.604  17.764  0.00  0.00    +0.000 A 
ENDBRANCH  16  17
ENDBRANCH  15  16
ENDBRANCH   3  15
TORSDOF 7
ENDMDL
MODEL 5
REMARK VINA RESULT:      -7.1      4.992      8.194
REMARK  Name = 
REMARK  8 active torsions:
REMARK  status: ('A' for Active; 'I' for Inactive)
REMARK    1  A    between atoms: C_1  and  C_2
REMARK    2  A    between atoms: C_2  and  O_3
REMARK    3  A    between atoms: O_3  and  C_4
REMARK    4  A    between atoms: C_7  and  C_8
REMARK    5  A    between atoms: C_8  and  C_9
REMARK    6  A    between atoms: N_11  and  C_12
REMARK    7  A    between atoms: C_12  and  C_13
REMARK    8  A    between atoms: C_13  and  C_14
REMARK                            x       y       z     vdW  Elec       q    Type
REMARK                         _______ _______ _______ _____ _____    ______ ____
ROOT
ATOM      1  C   UNL     1       2.784   6.232  18.700  0.00  0.00    +0.000 C 
ATOM      2  O   UNL     1       1.812   5.958  18.007  0.00  0.00    +0.000 OA
ATOM      3  N   UNL     1       2.804   6.006  20.072  0.00  0.00    +0.000 N 
ATOM      4  H   UNL     1       3.471   6.517  20.638  0.00  0.00    +0.000 HD
ENDROOT
BRANCH   1   5
ATOM      5  C   UNL     1       4.046   6.826  18.098  0.00  0.00    +0.000 C 
BRANCH   5   9
ATOM      6  C   UNL     1       6.069   4.411  15.121  0.00  0.00    +0.000 A 
ATOM      7  C   UNL     1       5.722   5.734  14.854  0.00  0.00    +0.000 A 
ATOM      8  C   UNL     1       5.087   6.509  15.829  0.00  0.00    +0.000 A 
ATOM      9  C   UNL     1       4.753   5.962  17.078  0.00  0.00    +0.000 A 
ATOM     10  C   UNL     1       5.147   4.645  17.350  0.00  0.00    +0.000 A 
ATOM     11  C   UNL     1       5.773   3.868  16.370  0.00  0.00    +0.000 A 
BRANCH   6  12
ATOM     12  O   UNL     1       6.685   3.743  14.099  0.00  0.00    +0.000 OA
BRANCH  12  14
ATOM     13  C   UNL     1       6.807   3.632  11.720  0.00  0.00    +0.000 C 
ATOM     14  C   UNL     1       5.892   3.549  12.926  0.00  0.00    +0.000 C 
ENDBRANCH  12  14
ENDBRANCH   6  12
ENDBRANCH   5   9
ENDBRANCH   1   5
BRANCH   3  15
ATOM     15  C   UNL     1       1.587   5.472  20.677  0.00  0.00    +0.000 C 
BRANCH  15  16
ATOM     16  C   UNL     1       1.669   4.045  21.221  0.00  0.00    +0.000 C 
BRANCH  16  17
ATOM     17  C   UNL     1       2.276   3.120  20.182  0.00  0.00    +0.000 A 
ATOM     18  C   UNL     1       3.578   2.626  20.355  0.00  0.00    +0.000 A 
ATOM     19  C   UNL     1       4.175   1.830  19.372  0.00  0.00    +0.000 A 
ATOM     20  C   UNL     1       3.481   1.520  18.205  0.00  0.00    +0.000 A 
ATOM     21  C   UNL     1       2.186   1.999  18.022  0.00  0.00    +0.000 A 
ATOM     22  C   UNL     1       1.585   2.796  19.004  0.00  0.00    +0.000 A 
ENDBRANCH  16  17
ENDBRANCH  15  16
ENDBRANCH   3  15
TORSDOF 7
ENDMDL
MODEL 6
REMARK VINA RESULT:      -7.1      4.651      7.939
REMARK  Name = 
REMARK  8 active torsions:
REMARK  status: ('A' for Active; 'I' for Inactive)
REMARK    1  A    between atoms: C_1  and  C_2
REMARK    2  A    between atoms: C_2  and  O_3
REMARK    3  A    between atoms: O_3  and  C_4
REMARK    4  A    between atoms: C_7  and  C_8
REMARK    5  A    between atoms: C_8  and  C_9
REMARK    6  A    between atoms: N_11  and  C_12
REMARK    7  A    between atoms: C_12  and  C_13
REMARK    8  A    between atoms: C_13  and  C_14
REMARK                            x       y       z     vdW  Elec       q    Type
REMARK                         _______ _______ _______ _____ _____    ______ ____
ROOT
ATOM      1  C   UNL     1       5.645   5.459  18.444  0.00  0.00    +0.000 C 
ATOM      2  O   UNL     1       5.462   5.334  19.648  0.00  0.00    +0.000 OA
ATOM      3  N   UNL     1       4.754   6.144  17.625  0.00  0.00    +0.000 N 
ATOM      4  H   UNL     1       4.773   5.962  16.629  0.00  0.00    +0.000 HD
ENDROOT
BRANCH   1   5
ATOM      5  C   UNL     1       6.877   4.884  17.765  0.00  0.00    +0.000 C 
BRANCH   5   9
ATOM      6  C   UNL     1       6.448   4.096  13.525  0.00  0.00    +0.000 A 
ATOM      7  C   UNL     1       5.680   3.408  14.462  0.00  0.00    +0.000 A 
ATOM      8  C   UNL     1       5.814   3.684  15.825  0.00  0.00    +0.000 A 
ATOM      9  C   UNL     1       6.746   4.630  16.280  0.00  0.00    +0.000 A 
ATOM     10  C   UNL     1       7.480   5.347  15.326  0.00  0.00    +0.000 A 
ATOM     11  C   UNL     1       7.353   5.061  13.962  0.00  0.00    +0.000 A 
BRANCH   6  12
ATOM     12  O   UNL     1       6.239   3.749  12.218  0.00  0.00    +0.000 OA
BRANCH  12  14
ATOM     13  C   UNL     1       4.063   3.350  11.328  0.00  0.00    +0.000 C 
ATOM     14  C   UNL     1       5.267   2.723  12.003  0.00  0.00    +0.000 C 
ENDBRANCH  12  14
ENDBRANCH   6  12
ENDBRANCH   5   9
ENDBRANCH   1   5
BRANCH   3  15
ATOM     15  C   UNL     1       3.545   6.671  18.251  0.00  0.00    +0.000 C 
BRANCH  15  16
ATOM     16  C   UNL     1       2.232   5.979  17.880  0.00  0.00    +0.000 C 
BRANCH  16  17
ATOM     17  C   UNL     1       1.955   4.833  18.835  0.00  0.00    +0.000 A 
ATOM     18  C   UNL     1       1.530   3.591  18.337  0.00  0.00    +0.000 A 
ATOM     19  C   UNL     1       1.204   2.547  19.208  0.00  0.00    +0.000 A 
ATOM     20  C   UNL     1       1.296   2.730  20.586  0.00  0.00    +0.000 A 
ATOM     21  C   UNL     1       1.722   3.955  21.094  0.00  0.00    +0.000 A 
ATOM     22  C   UNL     1       2.050   5.002  20.224  0.00  0.00    +0.000 A 
ENDBRANCH  16  17
ENDBRANCH  15  16
ENDBRANCH   3  15
TORSDOF 7
ENDMDL
MODEL 7
REMARK VINA RESULT:      -7.1      4.304      6.021
REMARK  Name = 
REMARK  8 active torsions:
REMARK  status: ('A' for Active; 'I' for Inactive)
REMARK    1  A    between atoms: C_1  and  C_2
REMARK    2  A    between atoms: C_2  and  O_3
REMARK    3  A    between atoms: O_3  and  C_4
REMARK    4  A    between atoms: C_7  and  C_8
REMARK    5  A    between atoms: C_8  and  C_9
REMARK    6  A    between atoms: N_11  and  C_12
REMARK    7  A    between atoms: C_12  and  C_13
REMARK    8  A    between atoms: C_13  and  C_14
REMARK                            x       y       z     vdW  Elec       q    Type
REMARK                         _______ _______ _______ _____ _____    ______ ____
ROOT
ATOM      1  C   UNL     1       4.767   6.904  16.790  0.00  0.00    +0.000 C 
ATOM      2  O   UNL     1       4.865   7.026  15.576  0.00  0.00    +0.000 OA
ATOM      3  N   UNL     1       5.771   6.330  17.561  0.00  0.00    +0.000 N 
ATOM      4  H   UNL     1       5.534   5.970  18.478  0.00  0.00    +0.000 HD
ENDROOT
BRANCH   1   5
ATOM      5  C   UNL     1       3.538   7.391  17.540  0.00  0.00    +0.000 C 
BRANCH   5   9
ATOM      6  C   UNL     1       1.481   4.350  19.843  0.00  0.00    +0.000 A 
ATOM      7  C   UNL     1       1.855   4.116  18.521  0.00  0.00    +0.000 A 
ATOM      8  C   UNL     1       2.535   5.097  17.795  0.00  0.00    +0.000 A 
ATOM      9  C   UNL     1       2.821   6.347  18.367  0.00  0.00    +0.000 A 
ATOM     10  C   UNL     1       2.480   6.554  19.710  0.00  0.00    +0.000 A 
ATOM     11  C   UNL     1       1.790   5.575  20.432  0.00  0.00    +0.000 A 
BRANCH   6  12
ATOM     12  O   UNL     1       0.820   3.325  20.462  0.00  0.00    +0.000 OA
BRANCH  12  14
ATOM     13  C   UNL     1       2.816   2.420  21.404  0.00  0.00    +0.000 C 
ATOM     14  C   UNL     1       1.397   2.874  21.689  0.00  0.00    +0.000 C 
ENDBRANCH  12  14
ENDBRANCH   6  12
ENDBRANCH   5   9
ENDBRANCH   1   5
BRANCH   3  15
ATOM     15  C   UNL     1       6.944   5.821  16.856  0.00  0.00    +0.000 C 
BRANCH  15  16
ATOM     16  C   UNL     1       6.838   4.400  16.299  0.00  0.00    +0.000 C 
BRANCH  16  17
ATOM     17  C   UNL     1       6.852   4.427  14.782  0.00  0.00    +0.000 A 
ATOM     18  C   UNL     1       6.011   3.569  14.056  0.00  0.00    +0.000 A 
ATOM     19  C   UNL     1       6.064   3.534  12.659  0.00  0.00    +0.000 A 
ATOM     20  C   UNL     1       6.956   4.352  11.971  0.00  0.00    +0.000 A 
ATOM     21  C   UNL     1       7.792   5.213  12.679  0.00  0.00    +0.000 A 
ATOM     22  C   UNL     1       7.742   5.251  14.077  0.00  0.00    +0.000 A 
ENDBRANCH  16  17
ENDBRANCH  15  16
ENDBRANCH   3  15
TORSDOF 7
ENDMDL
MODEL 8
REMARK VINA RESULT:      -7.1      4.381      8.028
REMARK  Name = 
REMARK  8 active torsions:
REMARK  status: ('A' for Active; 'I' for Inactive)
REMARK    1  A    between atoms: C_1  and  C_2
REMARK    2  A    between atoms: C_2  and  O_3
REMARK    3  A    between atoms: O_3  and  C_4
REMARK    4  A    between atoms: C_7  and  C_8
REMARK    5  A    between atoms: C_8  and  C_9
REMARK    6  A    between atoms: N_11  and  C_12
REMARK    7  A    between atoms: C_12  and  C_13
REMARK    8  A    between atoms: C_13  and  C_14
REMARK                            x       y       z     vdW  Elec       q    Type
REMARK                         _______ _______ _______ _____ _____    ______ ____
ROOT
ATOM      1  C   UNL     1       5.631   5.686  18.106  0.00  0.00    +0.000 C 
ATOM      2  O   UNL     1       5.500   4.989  19.104  0.00  0.00    +0.000 OA
ATOM      3  N   UNL     1       4.656   6.589  17.697  0.00  0.00    +0.000 N 
ATOM      4  H   UNL     1       4.658   6.903  16.734  0.00  0.00    +0.000 HD
ENDROOT
BRANCH   1   5
ATOM      5  C   UNL     1       6.886   5.620  17.252  0.00  0.00    +0.000 C 
BRANCH   5   9
ATOM      6  C   UNL     1       6.451   3.876  13.308  0.00  0.00    +0.000 A 
ATOM      7  C   UNL     1       7.338   4.928  13.532  0.00  0.00    +0.000 A 
ATOM      8  C   UNL     1       7.483   5.469  14.812  0.00  0.00    +0.000 A 
ATOM      9  C   UNL     1       6.716   4.992  15.886  0.00  0.00    +0.000 A 
ATOM     10  C   UNL     1       5.862   3.905  15.659  0.00  0.00    +0.000 A 
ATOM     11  C   UNL     1       5.710   3.372  14.374  0.00  0.00    +0.000 A 
BRANCH   6  12
ATOM     12  O   UNL     1       6.386   3.422  12.019  0.00  0.00    +0.000 OA
BRANCH  12  14
ATOM     13  C   UNL     1       4.139   3.283  11.231  0.00  0.00    +0.000 C 
ATOM     14  C   UNL     1       5.329   2.499  11.747  0.00  0.00    +0.000 C 
ENDBRANCH  12  14
ENDBRANCH   6  12
ENDBRANCH   5   9
ENDBRANCH   1   5
BRANCH   3  15
ATOM     15  C   UNL     1       3.425   6.641  18.482  0.00  0.00    +0.000 C 
BRANCH  15  16
ATOM     16  C   UNL     1       2.255   5.802  17.965  0.00  0.00    +0.000 C 
BRANCH  16  17
ATOM     17  C   UNL     1       1.908   4.713  18.962  0.00  0.00    +0.000 A 
ATOM     18  C   UNL     1       2.171   4.900  20.328  0.00  0.00    +0.000 A 
ATOM     19  C   UNL     1       1.921   3.878  21.250  0.00  0.00    +0.000 A 
ATOM     20  C   UNL     1       1.408   2.658  20.818  0.00  0.00    +0.000 A 
ATOM     21  C   UNL     1       1.136   2.460  19.467  0.00  0.00    +0.000 A 
ATOM     22  C   UNL     1       1.385   3.481  18.542  0.00  0.00    +0.000 A 
ENDBRANCH  16  17
ENDBRANCH  15  16
ENDBRANCH   3  15
TORSDOF 7
ENDMDL
MODEL 9
REMARK VINA RESULT:      -7.0      5.081      7.920
REMARK  Name = 
REMARK  8 active torsions:
REMARK  status: ('A' for Active; 'I' for Inactive)
REMARK    1  A    between atoms: C_1  and  C_2
REMARK    2  A    between atoms: C_2  and  O_3
REMARK    3  A    between atoms: O_3  and  C_4
REMARK    4  A    between atoms: C_7  and  C_8
REMARK    5  A    between atoms: C_8  and  C_9
REMARK    6  A    between atoms: N_11  and  C_12
REMARK    7  A    between atoms: C_12  and  C_13
REMARK    8  A    between atoms: C_13  and  C_14
REMARK                            x       y       z     vdW  Elec       q    Type
REMARK                         _______ _______ _______ _____ _____    ______ ____
ROOT
ATOM      1  C   UNL     1       4.476   5.349  17.618  0.00  0.00    +0.000 C 
ATOM      2  O   UNL     1       5.365   5.098  18.422  0.00  0.00    +0.000 OA
ATOM      3  N   UNL     1       3.789   4.352  16.936  0.00  0.00    +0.000 N 
ATOM      4  H   UNL     1       3.303   4.595  16.081  0.00  0.00    +0.000 HD
ENDROOT
BRANCH   1   5
ATOM      5  C   UNL     1       4.053   6.779  17.325  0.00  0.00    +0.000 C 
BRANCH   5   9
ATOM      6  C   UNL     1       1.137   8.536  20.007  0.00  0.00    +0.000 A 
ATOM      7  C   UNL     1       1.445   9.140  18.789  0.00  0.00    +0.000 A 
ATOM      8  C   UNL     1       2.373   8.554  17.924  0.00  0.00    +0.000 A 
ATOM      9  C   UNL     1       3.039   7.369  18.278  0.00  0.00    +0.000 A 
ATOM     10  C   UNL     1       2.688   6.748  19.484  0.00  0.00    +0.000 A 
ATOM     11  C   UNL     1       1.767   7.342  20.354  0.00  0.00    +0.000 A 
BRANCH   6  12
ATOM     12  O   UNL     1       0.217   9.192  20.777  0.00  0.00    +0.000 OA
BRANCH  12  14
ATOM     13  C   UNL     1      -0.457  10.982  22.202  0.00  0.00    +0.000 C 
ATOM     14  C   UNL     1       0.709  10.335  21.481  0.00  0.00    +0.000 C 
ENDBRANCH  12  14
ENDBRANCH   6  12
ENDBRANCH   5   9
ENDBRANCH   1   5
BRANCH   3  15
ATOM     15  C   UNL     1       4.206   2.973  17.174  0.00  0.00    +0.000 C 
BRANCH  15  16
ATOM     16  C   UNL     1       3.126   2.014  17.678  0.00  0.00    +0.000 C 
BRANCH  16  17
ATOM     17  C   UNL     1       2.529   2.529  18.974  0.00  0.00    +0.000 A 
ATOM     18  C   UNL     1       1.234   3.072  18.984  0.00  0.00    +0.000 A 
ATOM     19  C   UNL     1       0.697   3.614  20.156  0.00  0.00    +0.000 A 
ATOM     20  C   UNL     1       1.446   3.624  21.330  0.00  0.00    +0.000 A 
ATOM     21  C   UNL     1       2.730   3.084  21.336  0.00  0.00    +0.000 A 
ATOM     22  C   UNL     1       3.270   2.540  20.165  0.00  0.00    +0.000 A 
ENDBRANCH  16  17
ENDBRANCH  15  16
ENDBRANCH   3  15
TORSDOF 7
ENDMDL
