MODEL 1
REMARK VINA RESULT:      -5.7      0.000      0.000
REMARK  Name = 
REMARK  6 active torsions:
REMARK  status: ('A' for Active; 'I' for Inactive)
REMARK    1  A    between atoms: C_1  and  C_2
REMARK    2  A    between atoms: C_2  and  O_3
REMARK    3  A    between atoms: O_3  and  C_4
REMARK    4  A    between atoms: C_4  and  C_6
REMARK    5  A    between atoms: C_7  and  O_8
REMARK    6  A    between atoms: C_12  and  O_13
REMARK                            x       y       z     vdW  Elec       q    Type
REMARK                         _______ _______ _______ _____ _____    ______ ____
ROOT
ATOM      1  C   UNL     1       3.396   3.563  19.135  0.00  0.00    +0.000 A 
ATOM      2  C   UNL     1       2.935   4.682  19.849  0.00  0.00    +0.000 A 
ATOM      3  C   UNL     1       1.661   4.697  20.410  0.00  0.00    +0.000 A 
ATOM      4  C   UNL     1       0.834   3.583  20.283  0.00  0.00    +0.000 A 
ATOM      5  C   UNL     1       1.291   2.445  19.617  0.00  0.00    +0.000 A 
ATOM      6  C   UNL     1       2.570   2.432  19.054  0.00  0.00    +0.000 A 
ENDROOT
BRANCH   1   7
ATOM      7  C   UNL     1       4.696   3.676  18.430  0.00  0.00    +0.000 C 
ATOM      8  O   UNL     1       5.721   4.013  19.008  0.00  0.00    +0.000 OA
BRANCH   7   9
ATOM      9  O   UNL     1       4.522   3.585  17.093  0.00  0.00    +0.000 OA
BRANCH   9  11
ATOM     10  C   UNL     1       6.029   3.950  15.282  0.00  0.00    +0.000 C 
ATOM     11  C   UNL     1       5.119   4.613  16.298  0.00  0.00    +0.000 C 
ENDBRANCH   9  11
ENDBRANCH   7   9
ENDBRANCH   1   7
BRANCH   2  12
ATOM     12  O   UNL     1       3.676   5.825  20.025  0.00  0.00    +0.000 OA
ATOM     13  H   UNL     1       4.384   5.643  20.681  0.00  0.00    +0.000 HD
ENDBRANCH   2  12
BRANCH   6  14
ATOM     14  O   UNL     1       3.002   1.286  18.443  0.00  0.00    +0.000 OA
ATOM     15  H   UNL     1       2.239   0.763  18.147  0.00  0.00    +0.000 HD
ENDBRANCH   6  14
TORSDOF 5
ENDMDL
MODEL 2
REMARK VINA RESULT:      -5.7      0.309      2.345
REMARK  Name = 
REMARK  6 active torsions:
REMARK  status: ('A' for Active; 'I' for Inactive)
REMARK    1  A    between atoms: C_1  and  C_2
REMARK    2  A    between atoms: C_2  and  O_3
REMARK    3  A    between atoms: O_3  and  C_4
REMARK    4  A    between atoms: C_4  and  C_6
REMARK    5  A    between atoms: C_7  and  O_8
REMARK    6  A    between atoms: C_12  and  O_13
REMARK                            x       y       z     vdW  Elec       q    Type
REMARK                         _______ _______ _______ _____ _____    ______ ____
ROOT
ATOM      1  C   UNL     1       3.339   3.692  19.145  0.00  0.00    +0.000 A 
ATOM      2  C   UNL     1       2.551   2.545  18.951  0.00  0.00    +0.000 A 
ATOM      3  C   UNL     1       1.307   2.421  19.564  0.00  0.00    +0.000 A 
ATOM      4  C   UNL     1       0.822   3.453  20.365  0.00  0.00    +0.000 A 
ATOM      5  C   UNL     1       1.570   4.619  20.531  0.00  0.00    +0.000 A 
ATOM      6  C   UNL     1       2.819   4.741  19.917  0.00  0.00    +0.000 A 
ENDROOT
BRANCH   1   7
ATOM      7  C   UNL     1       4.716   3.689  18.594  0.00  0.00    +0.000 C 
ATOM      8  O   UNL     1       5.694   3.938  19.287  0.00  0.00    +0.000 OA
BRANCH   7   9
ATOM      9  O   UNL     1       4.689   3.607  17.245  0.00  0.00    +0.000 OA
BRANCH   9  11
ATOM     10  C   UNL     1       5.540   4.558  15.231  0.00  0.00    +0.000 C 
ATOM     11  C   UNL     1       4.804   4.839  16.527  0.00  0.00    +0.000 C 
ENDBRANCH   9  11
ENDBRANCH   7   9
ENDBRANCH   1   7
BRANCH   2  12
ATOM     12  O   UNL     1       2.943   1.476  18.182  0.00  0.00    +0.000 OA
ATOM     13  H   UNL     1       2.296   1.361  17.452  0.00  0.00    +0.000 HD
ENDBRANCH   2  12
BRANCH   6  14
ATOM     14  O   UNL     1       3.509   5.914  20.068  0.00  0.00    +0.000 OA
ATOM     15  H   UNL     1       2.932   6.665  19.853  0.00  0.00    +0.000 HD
ENDBRANCH   6  14
TORSDOF 5
ENDMDL
MODEL 3
REMARK VINA RESULT:      -5.6      1.195      1.693
REMARK  Name = 
REMARK  6 active torsions:
REMARK  status: ('A' for Active; 'I' for Inactive)
REMARK    1  A    between atoms: C_1  and  C_2
REMARK    2  A    between atoms: C_2  and  O_3
REMARK    3  A    between atoms: O_3  and  C_4
REMARK    4  A    between atoms: C_4  and  C_6
REMARK    5  A    between atoms: C_7  and  O_8
REMARK    6  A    between atoms: C_12  and  O_13
REMARK                            x       y       z     vdW  Elec       q    Type
REMARK                         _______ _______ _______ _____ _____    ______ ____
ROOT
ATOM      1  C   UNL     1       3.449   3.643  19.068  0.00  0.00    +0.000 A 
ATOM      2  C   UNL     1       3.078   4.738  19.866  0.00  0.00    +0.000 A 
ATOM      3  C   UNL     1       1.914   4.703  20.630  0.00  0.00    +0.000 A 
ATOM      4  C   UNL     1       1.113   3.563  20.623  0.00  0.00    +0.000 A 
ATOM      5  C   UNL     1       1.490   2.449  19.872  0.00  0.00    +0.000 A 
ATOM      6  C   UNL     1       2.658   2.485  19.105  0.00  0.00    +0.000 A 
ENDROOT
BRANCH   1   7
ATOM      7  C   UNL     1       4.611   3.808  18.160  0.00  0.00    +0.000 C 
ATOM      8  O   UNL     1       4.560   3.497  16.977  0.00  0.00    +0.000 OA
BRANCH   7   9
ATOM      9  O   UNL     1       5.725   4.112  18.863  0.00  0.00    +0.000 OA
BRANCH   9  11
ATOM     10  C   UNL     1       7.472   5.713  19.116  0.00  0.00    +0.000 C 
ATOM     11  C   UNL     1       6.771   4.778  18.150  0.00  0.00    +0.000 C 
ENDBRANCH   9  11
ENDBRANCH   7   9
ENDBRANCH   1   7
BRANCH   2  12
ATOM     12  O   UNL     1       3.800   5.904  19.937  0.00  0.00    +0.000 OA
ATOM     13  H   UNL     1       4.461   5.909  19.210  0.00  0.00    +0.000 HD
ENDBRANCH   2  12
BRANCH   6  14
ATOM     14  O   UNL     1       3.019   1.362  18.413  0.00  0.00    +0.000 OA
ATOM     15  H   UNL     1       2.643   0.576  18.842  0.00  0.00    +0.000 HD
ENDBRANCH   6  14
TORSDOF 5
ENDMDL
MODEL 4
REMARK VINA RESULT:      -5.6      2.466      3.460
REMARK  Name = 
REMARK  6 active torsions:
REMARK  status: ('A' for Active; 'I' for Inactive)
REMARK    1  A    between atoms: C_1  and  C_2
REMARK    2  A    between atoms: C_2  and  O_3
REMARK    3  A    between atoms: O_3  and  C_4
REMARK    4  A    between atoms: C_4  and  C_6
REMARK    5  A    between atoms: C_7  and  O_8
REMARK    6  A    between atoms: C_12  and  O_13
REMARK                            x       y       z     vdW  Elec       q    Type
REMARK                         _______ _______ _______ _____ _____    ______ ____
ROOT
ATOM      1  C   UNL     1       5.468   4.814  16.847  0.00  0.00    +0.000 A 
ATOM      2  C   UNL     1       5.381   6.213  16.948  0.00  0.00    +0.000 A 
ATOM      3  C   UNL     1       4.258   6.821  17.503  0.00  0.00    +0.000 A 
ATOM      4  C   UNL     1       3.211   6.037  17.985  0.00  0.00    +0.000 A 
ATOM      5  C   UNL     1       3.300   4.645  17.934  0.00  0.00    +0.000 A 
ATOM      6  C   UNL     1       4.428   4.037  17.376  0.00  0.00    +0.000 A 
ENDROOT
BRANCH   1   7
ATOM      7  C   UNL     1       6.617   4.243  16.103  0.00  0.00    +0.000 C 
ATOM      8  O   UNL     1       7.776   4.513  16.389  0.00  0.00    +0.000 OA
BRANCH   7   9
ATOM      9  O   UNL     1       6.193   3.611  14.985  0.00  0.00    +0.000 OA
BRANCH   9  11
ATOM     10  C   UNL     1       5.887   3.415  12.629  0.00  0.00    +0.000 C 
ATOM     11  C   UNL     1       6.552   4.209  13.736  0.00  0.00    +0.000 C 
ENDBRANCH   9  11
ENDBRANCH   7   9
ENDBRANCH   1   7
BRANCH   2  12
ATOM     12  O   UNL     1       6.359   7.068  16.501  0.00  0.00    +0.000 OA
ATOM     13  H   UNL     1       7.069   7.115  17.178  0.00  0.00    +0.000 HD
ENDBRANCH   2  12
BRANCH   6  14
ATOM     14  O   UNL     1       4.500   2.670  17.379  0.00  0.00    +0.000 OA
ATOM     15  H   UNL     1       5.354   2.385  17.015  0.00  0.00    +0.000 HD
ENDBRANCH   6  14
TORSDOF 5
ENDMDL
MODEL 5
REMARK VINA RESULT:      -5.6      1.857      1.968
REMARK  Name = 
REMARK  6 active torsions:
REMARK  status: ('A' for Active; 'I' for Inactive)
REMARK    1  A    between atoms: C_1  and  C_2
REMARK    2  A    between atoms: C_2  and  O_3
REMARK    3  A    between atoms: O_3  and  C_4
REMARK    4  A    between atoms: C_4  and  C_6
REMARK    5  A    between atoms: C_7  and  O_8
REMARK    6  A    between atoms: C_12  and  O_13
REMARK                            x       y       z     vdW  Elec       q    Type
REMARK                         _______ _______ _______ _____ _____    ______ ____
ROOT
ATOM      1  C   UNL     1       4.354   4.075  18.693  0.00  0.00    +0.000 A 
ATOM      2  C   UNL     1       3.312   4.763  18.048  0.00  0.00    +0.000 A 
ATOM      3  C   UNL     1       2.070   4.163  17.859  0.00  0.00    +0.000 A 
ATOM      4  C   UNL     1       1.843   2.872  18.332  0.00  0.00    +0.000 A 
ATOM      5  C   UNL     1       2.851   2.192  19.016  0.00  0.00    +0.000 A 
ATOM      6  C   UNL     1       4.098   2.794  19.204  0.00  0.00    +0.000 A 
ENDROOT
BRANCH   1   7
ATOM      7  C   UNL     1       5.695   4.710  18.718  0.00  0.00    +0.000 C 
ATOM      8  O   UNL     1       6.287   4.936  19.765  0.00  0.00    +0.000 OA
BRANCH   7   9
ATOM      9  O   UNL     1       6.020   5.182  17.494  0.00  0.00    +0.000 OA
BRANCH   9  11
ATOM     10  C   UNL     1       6.940   4.608  15.370  0.00  0.00    +0.000 C 
ATOM     11  C   UNL     1       7.170   4.603  16.870  0.00  0.00    +0.000 C 
ENDBRANCH   9  11
ENDBRANCH   7   9
ENDBRANCH   1   7
BRANCH   2  12
ATOM     12  O   UNL     1       3.441   6.035  17.546  0.00  0.00    +0.000 OA
ATOM     13  H   UNL     1       4.351   6.355  17.732  0.00  0.00    +0.000 HD
ENDBRANCH   2  12
BRANCH   6  14
ATOM     14  O   UNL     1       5.050   2.114  19.913  0.00  0.00    +0.000 OA
ATOM     15  H   UNL     1       4.637   1.653  20.661  0.00  0.00    +0.000 HD
ENDBRANCH   6  14
TORSDOF 5
ENDMDL
MODEL 6
REMARK VINA RESULT:      -5.6      1.177      2.874
REMARK  Name = 
REMARK  6 active torsions:
REMARK  status: ('A' for Active; 'I' for Inactive)
REMARK    1  A    between atoms: C_1  and  C_2
REMARK    2  A    between atoms: C_2  and  O_3
REMARK    3  A    between atoms: O_3  and  C_4
REMARK    4  A    between atoms: C_4  and  C_6
REMARK    5  A    between atoms: C_7  and  O_8
REMARK    6  A    between atoms: C_12  and  O_13
REMARK                            x       y       z     vdW  Elec       q    Type
REMARK                         _______ _______ _______ _____ _____    ______ ____
ROOT
ATOM      1  C   UNL     1       3.244   3.803  18.879  0.00  0.00    +0.000 A 
ATOM      2  C   UNL     1       2.394   2.691  18.748  0.00  0.00    +0.000 A 
ATOM      3  C   UNL     1       1.325   2.503  19.619  0.00  0.00    +0.000 A 
ATOM      4  C   UNL     1       1.075   3.436  20.624  0.00  0.00    +0.000 A 
ATOM      5  C   UNL     1       1.880   4.569  20.740  0.00  0.00    +0.000 A 
ATOM      6  C   UNL     1       2.954   4.757  19.866  0.00  0.00    +0.000 A 
ENDROOT
BRANCH   1   7
ATOM      7  C   UNL     1       4.453   3.857  18.022  0.00  0.00    +0.000 C 
ATOM      8  O   UNL     1       4.420   3.569  16.832  0.00  0.00    +0.000 OA
BRANCH   7   9
ATOM      9  O   UNL     1       5.562   4.032  18.774  0.00  0.00    +0.000 OA
BRANCH   9  11
ATOM     10  C   UNL     1       7.273   5.641  19.187  0.00  0.00    +0.000 C 
ATOM     11  C   UNL     1       6.655   4.717  18.155  0.00  0.00    +0.000 C 
ENDBRANCH   9  11
ENDBRANCH   7   9
ENDBRANCH   1   7
BRANCH   2  12
ATOM     12  O   UNL     1       2.560   1.719  17.792  0.00  0.00    +0.000 OA
ATOM     13  H   UNL     1       2.945   0.922  18.218  0.00  0.00    +0.000 HD
ENDBRANCH   2  12
BRANCH   6  14
ATOM     14  O   UNL     1       3.699   5.899  19.983  0.00  0.00    +0.000 OA
ATOM     15  H   UNL     1       3.147   6.617  20.334  0.00  0.00    +0.000 HD
ENDBRANCH   6  14
TORSDOF 5
ENDMDL
MODEL 7
REMARK VINA RESULT:      -5.5      1.575      1.897
REMARK  Name = 
REMARK  6 active torsions:
REMARK  status: ('A' for Active; 'I' for Inactive)
REMARK    1  A    between atoms: C_1  and  C_2
REMARK    2  A    between atoms: C_2  and  O_3
REMARK    3  A    between atoms: O_3  and  C_4
REMARK    4  A    between atoms: C_4  and  C_6
REMARK    5  A    between atoms: C_7  and  O_8
REMARK    6  A    between atoms: C_12  and  O_13
REMARK                            x       y       z     vdW  Elec       q    Type
REMARK                         _______ _______ _______ _____ _____    ______ ____
ROOT
ATOM      1  C   UNL     1       3.454   4.361  19.503  0.00  0.00    +0.000 A 
ATOM      2  C   UNL     1       2.417   4.977  20.225  0.00  0.00    +0.000 A 
ATOM      3  C   UNL     1       1.275   4.266  20.582  0.00  0.00    +0.000 A 
ATOM      4  C   UNL     1       1.159   2.920  20.240  0.00  0.00    +0.000 A 
ATOM      5  C   UNL     1       2.198   2.280  19.563  0.00  0.00    +0.000 A 
ATOM      6  C   UNL     1       3.344   2.995  19.204  0.00  0.00    +0.000 A 
ENDROOT
BRANCH   1   7
ATOM      7  C   UNL     1       4.565   5.216  19.018  0.00  0.00    +0.000 C 
ATOM      8  O   UNL     1       4.378   6.154  18.254  0.00  0.00    +0.000 OA
BRANCH   7   9
ATOM      9  O   UNL     1       5.759   4.674  19.346  0.00  0.00    +0.000 OA
BRANCH   9  11
ATOM     10  C   UNL     1       7.575   4.688  17.802  0.00  0.00    +0.000 C 
ATOM     11  C   UNL     1       6.924   5.412  18.964  0.00  0.00    +0.000 C 
ENDBRANCH   9  11
ENDBRANCH   7   9
ENDBRANCH   1   7
BRANCH   2  12
ATOM     12  O   UNL     1       2.440   6.297  20.606  0.00  0.00    +0.000 OA
ATOM     13  H   UNL     1       1.845   6.410  21.380  0.00  0.00    +0.000 HD
ENDBRANCH   2  12
BRANCH   6  14
ATOM     14  O   UNL     1       4.360   2.327  18.576  0.00  0.00    +0.000 OA
ATOM     15  H   UNL     1       5.016   2.037  19.230  0.00  0.00    +0.000 HD
ENDBRANCH   6  14
TORSDOF 5
ENDMDL
MODEL 8
REMARK VINA RESULT:      -5.5      1.740      2.721
REMARK  Name = 
REMARK  6 active torsions:
REMARK  status: ('A' for Active; 'I' for Inactive)
REMARK    1  A    between atoms: C_1  and  C_2
REMARK    2  A    between atoms: C_2  and  O_3
REMARK    3  A    between atoms: O_3  and  C_4
REMARK    4  A    between atoms: C_4  and  C_6
REMARK    5  A    between atoms: C_7  and  O_8
REMARK    6  A    between atoms: C_12  and  O_13
REMARK                            x       y       z     vdW  Elec       q    Type
REMARK                         _______ _______ _______ _____ _____    ______ ____
ROOT
ATOM      1  C   UNL     1       3.713   3.820  19.202  0.00  0.00    +0.000 A 
ATOM      2  C   UNL     1       3.871   2.777  20.131  0.00  0.00    +0.000 A 
ATOM      3  C   UNL     1       2.930   2.568  21.136  0.00  0.00    +0.000 A 
ATOM      4  C   UNL     1       1.805   3.387  21.216  0.00  0.00    +0.000 A 
ATOM      5  C   UNL     1       1.609   4.397  20.274  0.00  0.00    +0.000 A 
ATOM      6  C   UNL     1       2.555   4.607  19.266  0.00  0.00    +0.000 A 
ENDROOT
BRANCH   1   7
ATOM      7  C   UNL     1       4.829   4.085  18.261  0.00  0.00    +0.000 C 
ATOM      8  O   UNL     1       4.680   4.036  17.047  0.00  0.00    +0.000 OA
BRANCH   7   9
ATOM      9  O   UNL     1       6.005   4.146  18.923  0.00  0.00    +0.000 OA
BRANCH   9  11
ATOM     10  C   UNL     1       7.583   5.843  18.363  0.00  0.00    +0.000 C 
ATOM     11  C   UNL     1       6.460   5.449  19.302  0.00  0.00    +0.000 C 
ENDBRANCH   9  11
ENDBRANCH   7   9
ENDBRANCH   1   7
BRANCH   2  12
ATOM     12  O   UNL     1       4.945   1.921  20.135  0.00  0.00    +0.000 OA
ATOM     13  H   UNL     1       4.611   0.998  20.078  0.00  0.00    +0.000 HD
ENDBRANCH   2  12
BRANCH   6  14
ATOM     14  O   UNL     1       2.311   5.581  18.336  0.00  0.00    +0.000 OA
ATOM     15  H   UNL     1       2.828   6.375  18.548  0.00  0.00    +0.000 HD
ENDBRANCH   6  14
TORSDOF 5
ENDMDL
MODEL 9
REMARK VINA RESULT:      -5.5      2.140      2.460
REMARK  Name = 
REMARK  6 active torsions:
REMARK  status: ('A' for Active; 'I' for Inactive)
REMARK    1  A    between atoms: C_1  and  C_2
REMARK    2  A    between atoms: C_2  and  O_3
REMARK    3  A    between atoms: O_3  and  C_4
REMARK    4  A    between atoms: C_4  and  C_6
REMARK    5  A    between atoms: C_7  and  O_8
REMARK    6  A    between atoms: C_12  and  O_13
REMARK                            x       y       z     vdW  Elec       q    Type
REMARK                         _______ _______ _______ _____ _____    ______ ____
ROOT
ATOM      1  C   UNL     1       4.344   4.540  18.654  0.00  0.00    +0.000 A 
ATOM      2  C   UNL     1       3.291   5.328  18.159  0.00  0.00    +0.000 A 
ATOM      3  C   UNL     1       2.043   4.769  17.897  0.00  0.00    +0.000 A 
ATOM      4  C   UNL     1       1.822   3.416  18.146  0.00  0.00    +0.000 A 
ATOM      5  C   UNL     1       2.843   2.629  18.681  0.00  0.00    +0.000 A 
ATOM      6  C   UNL     1       4.095   3.190  18.943  0.00  0.00    +0.000 A 
ENDROOT
BRANCH   1   7
ATOM      7  C   UNL     1       5.687   5.163  18.758  0.00  0.00    +0.000 C 
ATOM      8  O   UNL     1       6.311   5.188  19.811  0.00  0.00    +0.000 OA
BRANCH   7   9
ATOM      9  O   UNL     1       5.977   5.857  17.636  0.00  0.00    +0.000 OA
BRANCH   9  11
ATOM     10  C   UNL     1       7.583   7.619  17.579  0.00  0.00    +0.000 C 
ATOM     11  C   UNL     1       7.360   6.131  17.392  0.00  0.00    +0.000 C 
ENDBRANCH   9  11
ENDBRANCH   7   9
ENDBRANCH   1   7
BRANCH   2  12
ATOM     12  O   UNL     1       3.413   6.667  17.881  0.00  0.00    +0.000 OA
ATOM     13  H   UNL     1       2.960   7.178  18.588  0.00  0.00    +0.000 HD
ENDBRANCH   2  12
BRANCH   6  14
ATOM     14  O   UNL     1       5.060   2.399  19.504  0.00  0.00    +0.000 OA
ATOM     15  H   UNL     1       5.896   2.890  19.561  0.00  0.00    +0.000 HD
ENDBRANCH   6  14
TORSDOF 5
ENDMDL
