MODEL 1
REMARK VINA RESULT:      -7.5      0.000      0.000
REMARK  Name = 
REMARK  9 active torsions:
REMARK  status: ('A' for Active; 'I' for Inactive)
REMARK    1  A    between atoms: C_1  and  C_2
REMARK    2  A    between atoms: C_7  and  N_8
REMARK    3  A    between atoms: C_9  and  C_11
REMARK    4  A    between atoms: C_11  and  N_12
REMARK    5  A    between atoms: N_12  and  C_13
REMARK    6  A    between atoms: N_12  and  S_14
REMARK    7  A    between atoms: S_14  and  C_17
REMARK    8  A    between atoms: N_23  and  C_24
REMARK    9  A    between atoms: N_29  and  C_30
REMARK                            x       y       z     vdW  Elec       q    Type
REMARK                         _______ _______ _______ _____ _____    ______ ____
ROOT
ATOM      1  S   UNL     1       0.591   8.977  21.564  0.00  0.00    +0.000 S 
ATOM      2  O   UNL     1       1.433   9.192  22.721  0.00  0.00    +0.000 OA
ATOM      3  O   UNL     1      -0.742   8.431  21.684  0.00  0.00    +0.000 OA
ENDROOT
BRANCH   1   4
ATOM      4  C   UNL     1       1.512   7.931  20.460  0.00  0.00    +0.000 A 
ATOM      5  C   UNL     1       2.025   8.475  19.289  0.00  0.00    +0.000 A 
ATOM      6  C   UNL     1       2.770   7.663  18.436  0.00  0.00    +0.000 A 
ATOM      7  C   UNL     1       2.983   6.298  18.721  0.00  0.00    +0.000 A 
ATOM      8  C   UNL     1       2.429   5.743  19.897  0.00  0.00    +0.000 A 
ATOM      9  C   UNL     1       1.729   6.587  20.778  0.00  0.00    +0.000 A 
ATOM     10  N   UNL     1       2.571   4.350  20.155  0.00  0.00    +0.000 N 
ATOM     11  C   UNL     1       1.935   3.675  21.272  0.00  0.00    +0.000 C 
ATOM     12  C   UNL     1       3.263   3.508  19.281  0.00  0.00    +0.000 A 
ATOM     13  O   UNL     1       3.336   2.292  19.442  0.00  0.00    +0.000 OA
ATOM     14  C   UNL     1       3.951   4.132  18.066  0.00  0.00    +0.000 A 
ATOM     15  O   UNL     1       4.631   3.411  17.343  0.00  0.00    +0.000 OA
ATOM     16  N   UNL     1       3.752   5.492  17.836  0.00  0.00    +0.000 N 
ATOM     17  C   UNL     1       4.406   6.080  16.676  0.00  0.00    +0.000 C 
ENDBRANCH   1   4
BRANCH   1  18
ATOM     18  N   UNL     1       0.494  10.426  20.675  0.00  0.00    +0.000 NA
ATOM     19  C   UNL     1       1.465  11.463  21.103  0.00  0.00    +0.000 C 
BRANCH  18  20
ATOM     20  C   UNL     1      -0.882  10.968  20.457  0.00  0.00    +0.000 C 
BRANCH  20  22
ATOM     21  N   UNL     1      -2.120  10.242  18.454  0.00  0.00    +0.000 N 
ATOM     22  C   UNL     1      -1.273  11.198  18.998  0.00  0.00    +0.000 C 
ATOM     23  O   UNL     1      -0.793  12.152  18.384  0.00  0.00    +0.000 OA
ATOM     24  H   UNL     1      -2.247   9.378  18.961  0.00  0.00    +0.000 HD
BRANCH  21  31
ATOM     25  C   UNL     1      -4.631  11.768  18.145  0.00  0.00    +0.000 C 
ATOM     26  C   UNL     1      -3.941  11.048  17.019  0.00  0.00    +0.000 A 
ATOM     27  C   UNL     1      -4.536  11.115  15.742  0.00  0.00    +0.000 A 
ATOM     28  C   UNL     1      -3.959  10.478  14.645  0.00  0.00    +0.000 A 
ATOM     29  C   UNL     1      -2.766   9.787  14.800  0.00  0.00    +0.000 A 
ATOM     30  C   UNL     1      -2.161   9.721  16.055  0.00  0.00    +0.000 A 
ATOM     31  C   UNL     1      -2.740  10.326  17.180  0.00  0.00    +0.000 A 
ENDBRANCH  21  31
ENDBRANCH  20  22
ENDBRANCH  18  20
ENDBRANCH   1  18
TORSDOF 5
ENDMDL
MODEL 2
REMARK VINA RESULT:      -7.5      2.686      8.908
REMARK  Name = 
REMARK  9 active torsions:
REMARK  status: ('A' for Active; 'I' for Inactive)
REMARK    1  A    between atoms: C_1  and  C_2
REMARK    2  A    between atoms: C_7  and  N_8
REMARK    3  A    between atoms: C_9  and  C_11
REMARK    4  A    between atoms: C_11  and  N_12
REMARK    5  A    between atoms: N_12  and  C_13
REMARK    6  A    between atoms: N_12  and  S_14
REMARK    7  A    between atoms: S_14  and  C_17
REMARK    8  A    between atoms: N_23  and  C_24
REMARK    9  A    between atoms: N_29  and  C_30
REMARK                            x       y       z     vdW  Elec       q    Type
REMARK                         _______ _______ _______ _____ _____    ______ ____
ROOT
ATOM      1  S   UNL     1       0.689  10.859  20.267  0.00  0.00    +0.000 S 
ATOM      2  O   UNL     1       0.939  11.599  21.485  0.00  0.00    +0.000 OA
ATOM      3  O   UNL     1       1.549  10.979  19.112  0.00  0.00    +0.000 OA
ENDROOT
BRANCH   1   4
ATOM      4  C   UNL     1      -0.965  11.271  19.760  0.00  0.00    +0.000 A 
ATOM      5  C   UNL     1      -1.472  10.708  18.596  0.00  0.00    +0.000 A 
ATOM      6  C   UNL     1      -2.778  11.008  18.212  0.00  0.00    +0.000 A 
ATOM      7  C   UNL     1      -3.578  11.894  18.962  0.00  0.00    +0.000 A 
ATOM      8  C   UNL     1      -3.044  12.490  20.128  0.00  0.00    +0.000 A 
ATOM      9  C   UNL     1      -1.747  12.133  20.535  0.00  0.00    +0.000 A 
ATOM     10  N   UNL     1      -3.815  13.445  20.848  0.00  0.00    +0.000 N 
ATOM     11  C   UNL     1      -3.304  14.193  21.983  0.00  0.00    +0.000 C 
ATOM     12  C   UNL     1      -5.104  13.804  20.445  0.00  0.00    +0.000 A 
ATOM     13  O   UNL     1      -5.760  14.680  21.005  0.00  0.00    +0.000 OA
ATOM     14  C   UNL     1      -5.716  13.079  19.246  0.00  0.00    +0.000 A 
ATOM     15  O   UNL     1      -6.879  13.330  18.941  0.00  0.00    +0.000 OA
ATOM     16  N   UNL     1      -4.910  12.181  18.551  0.00  0.00    +0.000 N 
ATOM     17  C   UNL     1      -5.497  11.495  17.409  0.00  0.00    +0.000 C 
ENDBRANCH   1   4
BRANCH   1  18
ATOM     18  N   UNL     1       0.538   9.206  20.647  0.00  0.00    +0.000 NA
ATOM     19  C   UNL     1      -0.397   8.928  21.765  0.00  0.00    +0.000 C 
BRANCH  18  20
ATOM     20  C   UNL     1       1.817   8.440  20.749  0.00  0.00    +0.000 C 
BRANCH  20  22
ATOM     21  N   UNL     1       2.650   6.265  19.942  0.00  0.00    +0.000 N 
ATOM     22  C   UNL     1       2.109   7.494  19.585  0.00  0.00    +0.000 C 
ATOM     23  O   UNL     1       1.911   7.873  18.430  0.00  0.00    +0.000 OA
ATOM     24  H   UNL     1       3.003   6.159  20.882  0.00  0.00    +0.000 HD
BRANCH  21  31
ATOM     25  C   UNL     1       0.894   3.896  20.110  0.00  0.00    +0.000 C 
ATOM     26  C   UNL     1       2.028   4.034  19.131  0.00  0.00    +0.000 A 
ATOM     27  C   UNL     1       2.255   2.963  18.242  0.00  0.00    +0.000 A 
ATOM     28  C   UNL     1       3.283   3.013  17.302  0.00  0.00    +0.000 A 
ATOM     29  C   UNL     1       4.082   4.143  17.218  0.00  0.00    +0.000 A 
ATOM     30  C   UNL     1       3.863   5.215  18.084  0.00  0.00    +0.000 A 
ATOM     31  C   UNL     1       2.856   5.174  19.059  0.00  0.00    +0.000 A 
ENDBRANCH  21  31
ENDBRANCH  20  22
ENDBRANCH  18  20
ENDBRANCH   1  18
TORSDOF 5
ENDMDL
MODEL 3
REMARK VINA RESULT:      -7.4      2.695      9.049
REMARK  Name = 
REMARK  9 active torsions:
REMARK  status: ('A' for Active; 'I' for Inactive)
REMARK    1  A    between atoms: C_1  and  C_2
REMARK    2  A    between atoms: C_7  and  N_8
REMARK    3  A    between atoms: C_9  and  C_11
REMARK    4  A    between atoms: C_11  and  N_12
REMARK    5  A    between atoms: N_12  and  C_13
REMARK    6  A    between atoms: N_12  and  S_14
REMARK    7  A    between atoms: S_14  and  C_17
REMARK    8  A    between atoms: N_23  and  C_24
REMARK    9  A    between atoms: N_29  and  C_30
REMARK                            x       y       z     vdW  Elec       q    Type
REMARK                         _______ _______ _______ _____ _____    ______ ____
ROOT
ATOM      1  S   UNL     1       0.738  10.583  19.593  0.00  0.00    +0.000 S 
ATOM      2  O   UNL     1       1.225  11.483  20.617  0.00  0.00    +0.000 OA
ATOM      3  O   UNL     1       1.398  10.455  18.315  0.00  0.00    +0.000 OA
ENDROOT
BRANCH   1   4
ATOM      4  C   UNL     1      -0.955  11.035  19.291  0.00  0.00    +0.000 A 
ATOM      5  C   UNL     1      -1.635  10.433  18.241  0.00  0.00    +0.000 A 
ATOM      6  C   UNL     1      -2.970  10.766  18.020  0.00  0.00    +0.000 A 
ATOM      7  C   UNL     1      -3.630  11.723  18.819  0.00  0.00    +0.000 A 
ATOM      8  C   UNL     1      -2.922  12.357  19.865  0.00  0.00    +0.000 A 
ATOM      9  C   UNL     1      -1.593  11.969  20.114  0.00  0.00    +0.000 A 
ATOM     10  N   UNL     1      -3.553  13.381  20.626  0.00  0.00    +0.000 N 
ATOM     11  C   UNL     1      -2.867  14.166  21.636  0.00  0.00    +0.000 C 
ATOM     12  C   UNL     1      -4.873  13.771  20.380  0.00  0.00    +0.000 A 
ATOM     13  O   UNL     1      -5.416  14.701  20.972  0.00  0.00    +0.000 OA
ATOM     14  C   UNL     1      -5.668  13.009  19.319  0.00  0.00    +0.000 A 
ATOM     15  O   UNL     1      -6.852  13.291  19.159  0.00  0.00    +0.000 OA
ATOM     16  N   UNL     1      -4.996  12.042  18.575  0.00  0.00    +0.000 N 
ATOM     17  C   UNL     1      -5.756  11.322  17.564  0.00  0.00    +0.000 C 
ENDBRANCH   1   4
BRANCH   1  18
ATOM     18  N   UNL     1       0.571   9.026  20.263  0.00  0.00    +0.000 NA
ATOM     19  C   UNL     1      -0.382   8.957  21.399  0.00  0.00    +0.000 C 
BRANCH  18  20
ATOM     20  C   UNL     1       1.843   8.285  20.521  0.00  0.00    +0.000 C 
BRANCH  20  22
ATOM     21  N   UNL     1       2.316   5.902  20.110  0.00  0.00    +0.000 N 
ATOM     22  C   UNL     1       2.157   7.159  19.538  0.00  0.00    +0.000 C 
ATOM     23  O   UNL     1       2.301   7.418  18.344  0.00  0.00    +0.000 OA
ATOM     24  H   UNL     1       2.426   5.849  21.112  0.00  0.00    +0.000 HD
BRANCH  21  31
ATOM     25  C   UNL     1       4.994   5.025  19.221  0.00  0.00    +0.000 C 
ATOM     26  C   UNL     1       3.727   4.259  18.955  0.00  0.00    +0.000 A 
ATOM     27  C   UNL     1       3.836   3.048  18.241  0.00  0.00    +0.000 A 
ATOM     28  C   UNL     1       2.712   2.276  17.955  0.00  0.00    +0.000 A 
ATOM     29  C   UNL     1       1.465   2.687  18.403  0.00  0.00    +0.000 A 
ATOM     30  C   UNL     1       1.342   3.878  19.120  0.00  0.00    +0.000 A 
ATOM     31  C   UNL     1       2.455   4.687  19.390  0.00  0.00    +0.000 A 
ENDBRANCH  21  31
ENDBRANCH  20  22
ENDBRANCH  18  20
ENDBRANCH   1  18
TORSDOF 5
ENDMDL
MODEL 4
REMARK VINA RESULT:      -7.4      2.548      3.813
REMARK  Name = 
REMARK  9 active torsions:
REMARK  status: ('A' for Active; 'I' for Inactive)
REMARK    1  A    between atoms: C_1  and  C_2
REMARK    2  A    between atoms: C_7  and  N_8
REMARK    3  A    between atoms: C_9  and  C_11
REMARK    4  A    between atoms: C_11  and  N_12
REMARK    5  A    between atoms: N_12  and  C_13
REMARK    6  A    between atoms: N_12  and  S_14
REMARK    7  A    between atoms: S_14  and  C_17
REMARK    8  A    between atoms: N_23  and  C_24
REMARK    9  A    between atoms: N_29  and  C_30
REMARK                            x       y       z     vdW  Elec       q    Type
REMARK                         _______ _______ _______ _____ _____    ______ ____
ROOT
ATOM      1  S   UNL     1       0.385  10.040  20.082  0.00  0.00    +0.000 S 
ATOM      2  O   UNL     1       0.859  10.180  21.442  0.00  0.00    +0.000 OA
ATOM      3  O   UNL     1      -0.970   9.637  19.785  0.00  0.00    +0.000 OA
ENDROOT
BRANCH   1   4
ATOM      4  C   UNL     1       1.483   8.892  19.283  0.00  0.00    +0.000 A 
ATOM      5  C   UNL     1       2.052   9.241  18.065  0.00  0.00    +0.000 A 
ATOM      6  C   UNL     1       2.934   8.353  17.451  0.00  0.00    +0.000 A 
ATOM      7  C   UNL     1       3.232   7.100  18.025  0.00  0.00    +0.000 A 
ATOM      8  C   UNL     1       2.623   6.737  19.248  0.00  0.00    +0.000 A 
ATOM      9  C   UNL     1       1.781   7.665  19.885  0.00  0.00    +0.000 A 
ATOM     10  N   UNL     1       2.855   5.444  19.795  0.00  0.00    +0.000 N 
ATOM     11  C   UNL     1       2.181   4.943  20.980  0.00  0.00    +0.000 C 
ATOM     12  C   UNL     1       3.689   4.517  19.164  0.00  0.00    +0.000 A 
ATOM     13  O   UNL     1       3.847   3.370  19.575  0.00  0.00    +0.000 OA
ATOM     14  C   UNL     1       4.429   4.953  17.897  0.00  0.00    +0.000 A 
ATOM     15  O   UNL     1       5.227   4.173  17.387  0.00  0.00    +0.000 OA
ATOM     16  N   UNL     1       4.139   6.213  17.380  0.00  0.00    +0.000 N 
ATOM     17  C   UNL     1       4.843   6.622  16.173  0.00  0.00    +0.000 C 
ENDBRANCH   1   4
BRANCH   1  18
ATOM     18  N   UNL     1       0.709  11.481  19.234  0.00  0.00    +0.000 NA
ATOM     19  C   UNL     1       1.719  12.350  19.886  0.00  0.00    +0.000 C 
BRANCH  18  20
ATOM     20  C   UNL     1      -0.486  12.237  18.749  0.00  0.00    +0.000 C 
BRANCH  20  22
ATOM     21  N   UNL     1      -2.371  12.240  20.337  0.00  0.00    +0.000 N 
ATOM     22  C   UNL     1      -1.292  12.954  19.831  0.00  0.00    +0.000 C 
ATOM     23  O   UNL     1      -0.990  14.105  20.150  0.00  0.00    +0.000 OA
ATOM     24  H   UNL     1      -2.675  11.421  19.832  0.00  0.00    +0.000 HD
BRANCH  21  31
ATOM     25  C   UNL     1      -1.550  11.461  23.065  0.00  0.00    +0.000 C 
ATOM     26  C   UNL     1      -2.785  12.263  22.756  0.00  0.00    +0.000 A 
ATOM     27  C   UNL     1      -3.590  12.663  23.842  0.00  0.00    +0.000 A 
ATOM     28  C   UNL     1      -4.750  13.410  23.642  0.00  0.00    +0.000 A 
ATOM     29  C   UNL     1      -5.108  13.791  22.357  0.00  0.00    +0.000 A 
ATOM     30  C   UNL     1      -4.315  13.411  21.274  0.00  0.00    +0.000 A 
ATOM     31  C   UNL     1      -3.163  12.631  21.448  0.00  0.00    +0.000 A 
ENDBRANCH  21  31
ENDBRANCH  20  22
ENDBRANCH  18  20
ENDBRANCH   1  18
TORSDOF 5
ENDMDL
MODEL 5
REMARK VINA RESULT:      -7.3      2.434      4.281
REMARK  Name = 
REMARK  9 active torsions:
REMARK  status: ('A' for Active; 'I' for Inactive)
REMARK    1  A    between atoms: C_1  and  C_2
REMARK    2  A    between atoms: C_7  and  N_8
REMARK    3  A    between atoms: C_9  and  C_11
REMARK    4  A    between atoms: C_11  and  N_12
REMARK    5  A    between atoms: N_12  and  C_13
REMARK    6  A    between atoms: N_12  and  S_14
REMARK    7  A    between atoms: S_14  and  C_17
REMARK    8  A    between atoms: N_23  and  C_24
REMARK    9  A    between atoms: N_29  and  C_30
REMARK                            x       y       z     vdW  Elec       q    Type
REMARK                         _______ _______ _______ _____ _____    ______ ____
ROOT
ATOM      1  S   UNL     1       0.528   9.706  20.642  0.00  0.00    +0.000 S 
ATOM      2  O   UNL     1       1.392  10.402  21.571  0.00  0.00    +0.000 OA
ATOM      3  O   UNL     1      -0.633   8.970  21.086  0.00  0.00    +0.000 OA
ENDROOT
BRANCH   1   4
ATOM      4  C   UNL     1       1.568   8.589  19.730  0.00  0.00    +0.000 A 
ATOM      5  C   UNL     1       2.092   9.000  18.512  0.00  0.00    +0.000 A 
ATOM      6  C   UNL     1       2.929   8.134  17.809  0.00  0.00    +0.000 A 
ATOM      7  C   UNL     1       3.225   6.844  18.294  0.00  0.00    +0.000 A 
ATOM      8  C   UNL     1       2.661   6.419  19.519  0.00  0.00    +0.000 A 
ATOM      9  C   UNL     1       1.866   7.323  20.246  0.00  0.00    +0.000 A 
ATOM     10  N   UNL     1       2.890   5.092  19.978  0.00  0.00    +0.000 N 
ATOM     11  C   UNL     1       2.255   4.534  21.159  0.00  0.00    +0.000 C 
ATOM     12  C   UNL     1       3.677   4.190  19.258  0.00  0.00    +0.000 A 
ATOM     13  O   UNL     1       3.829   3.018  19.594  0.00  0.00    +0.000 OA
ATOM     14  C   UNL     1       4.372   4.688  17.989  0.00  0.00    +0.000 A 
ATOM     15  O   UNL     1       5.132   3.925  17.400  0.00  0.00    +0.000 OA
ATOM     16  N   UNL     1       4.087   5.982  17.560  0.00  0.00    +0.000 N 
ATOM     17  C   UNL     1       4.748   6.449  16.350  0.00  0.00    +0.000 C 
ENDBRANCH   1   4
BRANCH   1  18
ATOM     18  N   UNL     1       0.035  10.794  19.428  0.00  0.00    +0.000 NA
ATOM     19  C   UNL     1       0.810  12.059  19.400  0.00  0.00    +0.000 C 
BRANCH  18  20
ATOM     20  C   UNL     1      -1.439  11.010  19.303  0.00  0.00    +0.000 C 
BRANCH  20  22
ATOM     21  N   UNL     1      -1.871  11.787  21.601  0.00  0.00    +0.000 N 
ATOM     22  C   UNL     1      -2.032  12.054  20.248  0.00  0.00    +0.000 C 
ATOM     23  O   UNL     1      -2.645  13.015  19.782  0.00  0.00    +0.000 OA
ATOM     24  H   UNL     1      -1.580  10.858  21.869  0.00  0.00    +0.000 HD
BRANCH  21  31
ATOM     25  C   UNL     1      -0.009  13.976  22.287  0.00  0.00    +0.000 C 
ATOM     26  C   UNL     1      -1.312  13.727  22.997  0.00  0.00    +0.000 A 
ATOM     27  C   UNL     1      -1.657  14.600  24.050  0.00  0.00    +0.000 A 
ATOM     28  C   UNL     1      -2.847  14.440  24.757  0.00  0.00    +0.000 A 
ATOM     29  C   UNL     1      -3.724  13.424  24.405  0.00  0.00    +0.000 A 
ATOM     30  C   UNL     1      -3.401  12.559  23.359  0.00  0.00    +0.000 A 
ATOM     31  C   UNL     1      -2.194  12.680  22.656  0.00  0.00    +0.000 A 
ENDBRANCH  21  31
ENDBRANCH  20  22
ENDBRANCH  18  20
ENDBRANCH   1  18
TORSDOF 5
ENDMDL
MODEL 6
REMARK VINA RESULT:      -7.3      2.397      3.840
REMARK  Name = 
REMARK  9 active torsions:
REMARK  status: ('A' for Active; 'I' for Inactive)
REMARK    1  A    between atoms: C_1  and  C_2
REMARK    2  A    between atoms: C_7  and  N_8
REMARK    3  A    between atoms: C_9  and  C_11
REMARK    4  A    between atoms: C_11  and  N_12
REMARK    5  A    between atoms: N_12  and  C_13
REMARK    6  A    between atoms: N_12  and  S_14
REMARK    7  A    between atoms: S_14  and  C_17
REMARK    8  A    between atoms: N_23  and  C_24
REMARK    9  A    between atoms: N_29  and  C_30
REMARK                            x       y       z     vdW  Elec       q    Type
REMARK                         _______ _______ _______ _____ _____    ______ ____
ROOT
ATOM      1  S   UNL     1       0.572   9.729  20.652  0.00  0.00    +0.000 S 
ATOM      2  O   UNL     1       1.240   9.953  21.916  0.00  0.00    +0.000 OA
ATOM      3  O   UNL     1      -0.792   9.257  20.585  0.00  0.00    +0.000 OA
ENDROOT
BRANCH   1   4
ATOM      4  C   UNL     1       1.589   8.590  19.741  0.00  0.00    +0.000 A 
ATOM      5  C   UNL     1       2.122   8.989  18.523  0.00  0.00    +0.000 A 
ATOM      6  C   UNL     1       2.942   8.107  17.821  0.00  0.00    +0.000 A 
ATOM      7  C   UNL     1       3.211   6.811  18.307  0.00  0.00    +0.000 A 
ATOM      8  C   UNL     1       2.638   6.399  19.531  0.00  0.00    +0.000 A 
ATOM      9  C   UNL     1       1.861   7.319  20.258  0.00  0.00    +0.000 A 
ATOM     10  N   UNL     1       2.840   5.067  19.992  0.00  0.00    +0.000 N 
ATOM     11  C   UNL     1       2.194   4.523  21.173  0.00  0.00    +0.000 C 
ATOM     12  C   UNL     1       3.609   4.149  19.272  0.00  0.00    +0.000 A 
ATOM     13  O   UNL     1       3.737   2.974  19.608  0.00  0.00    +0.000 OA
ATOM     14  C   UNL     1       4.314   4.632  18.003  0.00  0.00    +0.000 A 
ATOM     15  O   UNL     1       5.059   3.854  17.414  0.00  0.00    +0.000 OA
ATOM     16  N   UNL     1       4.056   5.931  17.573  0.00  0.00    +0.000 N 
ATOM     17  C   UNL     1       4.726   6.384  16.363  0.00  0.00    +0.000 C 
ENDBRANCH   1   4
BRANCH   1  18
ATOM     18  N   UNL     1       0.694  11.140  19.707  0.00  0.00    +0.000 NA
ATOM     19  C   UNL     1       1.527  12.205  20.317  0.00  0.00    +0.000 C 
BRANCH  18  20
ATOM     20  C   UNL     1      -0.587  11.655  19.135  0.00  0.00    +0.000 C 
BRANCH  20  22
ATOM     21  N   UNL     1      -2.049  12.134  21.060  0.00  0.00    +0.000 N 
ATOM     22  C   UNL     1      -1.330  12.672  20.000  0.00  0.00    +0.000 C 
ATOM     23  O   UNL     1      -1.300  13.865  19.697  0.00  0.00    +0.000 OA
ATOM     24  H   UNL     1      -2.210  11.138  21.065  0.00  0.00    +0.000 HD
BRANCH  21  31
ATOM     25  C   UNL     1      -4.958  12.634  20.921  0.00  0.00    +0.000 C 
ATOM     26  C   UNL     1      -4.071  13.135  22.028  0.00  0.00    +0.000 A 
ATOM     27  C   UNL     1      -4.675  13.885  23.058  0.00  0.00    +0.000 A 
ATOM     28  C   UNL     1      -3.925  14.383  24.122  0.00  0.00    +0.000 A 
ATOM     29  C   UNL     1      -2.566  14.117  24.187  0.00  0.00    +0.000 A 
ATOM     30  C   UNL     1      -1.955  13.368  23.180  0.00  0.00    +0.000 A 
ATOM     31  C   UNL     1      -2.683  12.885  22.084  0.00  0.00    +0.000 A 
ENDBRANCH  21  31
ENDBRANCH  20  22
ENDBRANCH  18  20
ENDBRANCH   1  18
TORSDOF 5
ENDMDL
MODEL 7
REMARK VINA RESULT:      -7.3      3.016      4.909
REMARK  Name = 
REMARK  9 active torsions:
REMARK  status: ('A' for Active; 'I' for Inactive)
REMARK    1  A    between atoms: C_1  and  C_2
REMARK    2  A    between atoms: C_7  and  N_8
REMARK    3  A    between atoms: C_9  and  C_11
REMARK    4  A    between atoms: C_11  and  N_12
REMARK    5  A    between atoms: N_12  and  C_13
REMARK    6  A    between atoms: N_12  and  S_14
REMARK    7  A    between atoms: S_14  and  C_17
REMARK    8  A    between atoms: N_23  and  C_24
REMARK    9  A    between atoms: N_29  and  C_30
REMARK                            x       y       z     vdW  Elec       q    Type
REMARK                         _______ _______ _______ _____ _____    ______ ____
ROOT
ATOM      1  S   UNL     1       1.047  10.129  18.592  0.00  0.00    +0.000 S 
ATOM      2  O   UNL     1      -0.114   9.898  17.759  0.00  0.00    +0.000 OA
ATOM      3  O   UNL     1       2.170  10.913  18.132  0.00  0.00    +0.000 OA
ENDROOT
BRANCH   1   4
ATOM      4  C   UNL     1       1.655   8.526  19.062  0.00  0.00    +0.000 A 
ATOM      5  C   UNL     1       1.213   7.960  20.250  0.00  0.00    +0.000 A 
ATOM      6  C   UNL     1       1.668   6.692  20.606  0.00  0.00    +0.000 A 
ATOM      7  C   UNL     1       2.590   5.990  19.802  0.00  0.00    +0.000 A 
ATOM      8  C   UNL     1       3.062   6.586  18.611  0.00  0.00    +0.000 A 
ATOM      9  C   UNL     1       2.550   7.840  18.234  0.00  0.00    +0.000 A 
ATOM     10  N   UNL     1       4.051   5.921  17.833  0.00  0.00    +0.000 N 
ATOM     11  C   UNL     1       4.678   6.510  16.663  0.00  0.00    +0.000 C 
ATOM     12  C   UNL     1       4.564   4.676  18.205  0.00  0.00    +0.000 A 
ATOM     13  O   UNL     1       5.470   4.116  17.593  0.00  0.00    +0.000 OA
ATOM     14  C   UNL     1       3.973   3.988  19.436  0.00  0.00    +0.000 A 
ATOM     15  O   UNL     1       4.360   2.857  19.718  0.00  0.00    +0.000 OA
ATOM     16  N   UNL     1       3.035   4.694  20.186  0.00  0.00    +0.000 N 
ATOM     17  C   UNL     1       2.479   4.036  21.359  0.00  0.00    +0.000 C 
ENDBRANCH   1   4
BRANCH   1  18
ATOM     18  N   UNL     1       0.535  10.762  20.088  0.00  0.00    +0.000 NA
ATOM     19  C   UNL     1      -0.841  11.316  20.069  0.00  0.00    +0.000 C 
BRANCH  18  20
ATOM     20  C   UNL     1       1.512  11.646  20.792  0.00  0.00    +0.000 C 
BRANCH  20  22
ATOM     21  N   UNL     1       1.470  13.634  19.337  0.00  0.00    +0.000 N 
ATOM     22  C   UNL     1       1.279  13.146  20.624  0.00  0.00    +0.000 C 
ATOM     23  O   UNL     1       0.998  13.832  21.607  0.00  0.00    +0.000 OA
ATOM     24  H   UNL     1       1.940  13.039  18.670  0.00  0.00    +0.000 HD
BRANCH  21  31
ATOM     25  C   UNL     1       3.652  15.459  18.539  0.00  0.00    +0.000 C 
ATOM     26  C   UNL     1       2.195  15.834  18.527  0.00  0.00    +0.000 A 
ATOM     27  C   UNL     1       1.862  17.138  18.104  0.00  0.00    +0.000 A 
ATOM     28  C   UNL     1       0.536  17.564  18.060  0.00  0.00    +0.000 A 
ATOM     29  C   UNL     1      -0.479  16.687  18.413  0.00  0.00    +0.000 A 
ATOM     30  C   UNL     1      -0.166  15.391  18.823  0.00  0.00    +0.000 A 
ATOM     31  C   UNL     1       1.163  14.951  18.906  0.00  0.00    +0.000 A 
ENDBRANCH  21  31
ENDBRANCH  20  22
ENDBRANCH  18  20
ENDBRANCH   1  18
TORSDOF 5
ENDMDL
MODEL 8
REMARK VINA RESULT:      -7.1      1.621      2.420
REMARK  Name = 
REMARK  9 active torsions:
REMARK  status: ('A' for Active; 'I' for Inactive)
REMARK    1  A    between atoms: C_1  and  C_2
REMARK    2  A    between atoms: C_7  and  N_8
REMARK    3  A    between atoms: C_9  and  C_11
REMARK    4  A    between atoms: C_11  and  N_12
REMARK    5  A    between atoms: N_12  and  C_13
REMARK    6  A    between atoms: N_12  and  S_14
REMARK    7  A    between atoms: S_14  and  C_17
REMARK    8  A    between atoms: N_23  and  C_24
REMARK    9  A    between atoms: N_29  and  C_30
REMARK                            x       y       z     vdW  Elec       q    Type
REMARK                         _______ _______ _______ _____ _____    ______ ____
ROOT
ATOM      1  S   UNL     1       0.470   9.902  20.264  0.00  0.00    +0.000 S 
ATOM      2  O   UNL     1       1.309  10.759  21.073  0.00  0.00    +0.000 OA
ATOM      3  O   UNL     1      -0.625   9.150  20.832  0.00  0.00    +0.000 OA
ENDROOT
BRANCH   1   4
ATOM      4  C   UNL     1       1.560   8.753  19.455  0.00  0.00    +0.000 A 
ATOM      5  C   UNL     1       2.141   9.113  18.246  0.00  0.00    +0.000 A 
ATOM      6  C   UNL     1       3.016   8.224  17.624  0.00  0.00    +0.000 A 
ATOM      7  C   UNL     1       3.295   6.959  18.181  0.00  0.00    +0.000 A 
ATOM      8  C   UNL     1       2.674   6.585  19.394  0.00  0.00    +0.000 A 
ATOM      9  C   UNL     1       1.839   7.514  20.040  0.00  0.00    +0.000 A 
ATOM     10  N   UNL     1       2.887   5.281  19.924  0.00  0.00    +0.000 N 
ATOM     11  C   UNL     1       2.199   4.771  21.097  0.00  0.00    +0.000 C 
ATOM     12  C   UNL     1       3.715   4.355  19.284  0.00  0.00    +0.000 A 
ATOM     13  O   UNL     1       3.856   3.200  19.679  0.00  0.00    +0.000 OA
ATOM     14  C   UNL     1       4.467   4.800  18.029  0.00  0.00    +0.000 A 
ATOM     15  O   UNL     1       5.260   4.018  17.512  0.00  0.00    +0.000 OA
ATOM     16  N   UNL     1       4.197   6.072  17.529  0.00  0.00    +0.000 N 
ATOM     17  C   UNL     1       4.913   6.490  16.333  0.00  0.00    +0.000 C 
ENDBRANCH   1   4
BRANCH   1  18
ATOM     18  N   UNL     1      -0.130  10.801  18.948  0.00  0.00    +0.000 NA
ATOM     19  C   UNL     1      -0.406  12.224  19.265  0.00  0.00    +0.000 C 
BRANCH  18  20
ATOM     20  C   UNL     1      -1.223  10.156  18.159  0.00  0.00    +0.000 C 
BRANCH  20  22
ATOM     21  N   UNL     1      -3.510  10.989  18.547  0.00  0.00    +0.000 N 
ATOM     22  C   UNL     1      -2.372  11.078  17.754  0.00  0.00    +0.000 C 
ATOM     23  O   UNL     1      -2.259  11.786  16.753  0.00  0.00    +0.000 OA
ATOM     24  H   UNL     1      -3.587  10.205  19.178  0.00  0.00    +0.000 HD
BRANCH  21  31
ATOM     25  C   UNL     1      -4.107  12.835  20.774  0.00  0.00    +0.000 C 
ATOM     26  C   UNL     1      -4.934  12.734  19.522  0.00  0.00    +0.000 A 
ATOM     27  C   UNL     1      -6.059  13.578  19.414  0.00  0.00    +0.000 A 
ATOM     28  C   UNL     1      -6.876  13.548  18.285  0.00  0.00    +0.000 A 
ATOM     29  C   UNL     1      -6.567  12.695  17.236  0.00  0.00    +0.000 A 
ATOM     30  C   UNL     1      -5.452  11.861  17.324  0.00  0.00    +0.000 A 
ATOM     31  C   UNL     1      -4.635  11.850  18.464  0.00  0.00    +0.000 A 
ENDBRANCH  21  31
ENDBRANCH  20  22
ENDBRANCH  18  20
ENDBRANCH   1  18
TORSDOF 5
ENDMDL
MODEL 9
REMARK VINA RESULT:      -7.1      2.758      5.150
REMARK  Name = 
REMARK  9 active torsions:
REMARK  status: ('A' for Active; 'I' for Inactive)
REMARK    1  A    between atoms: C_1  and  C_2
REMARK    2  A    between atoms: C_7  and  N_8
REMARK    3  A    between atoms: C_9  and  C_11
REMARK    4  A    between atoms: C_11  and  N_12
REMARK    5  A    between atoms: N_12  and  C_13
REMARK    6  A    between atoms: N_12  and  S_14
REMARK    7  A    between atoms: S_14  and  C_17
REMARK    8  A    between atoms: N_23  and  C_24
REMARK    9  A    between atoms: N_29  and  C_30
REMARK                            x       y       z     vdW  Elec       q    Type
REMARK                         _______ _______ _______ _____ _____    ______ ____
ROOT
ATOM      1  S   UNL     1       1.103   9.843  18.526  0.00  0.00    +0.000 S 
ATOM      2  O   UNL     1       0.231   9.603  17.396  0.00  0.00    +0.000 OA
ATOM      3  O   UNL     1       2.175  10.810  18.469  0.00  0.00    +0.000 OA
ENDROOT
BRANCH   1   4
ATOM      4  C   UNL     1       1.808   8.269  18.959  0.00  0.00    +0.000 A 
ATOM      5  C   UNL     1       1.380   7.635  20.117  0.00  0.00    +0.000 A 
ATOM      6  C   UNL     1       1.913   6.389  20.444  0.00  0.00    +0.000 A 
ATOM      7  C   UNL     1       2.898   5.779  19.640  0.00  0.00    +0.000 A 
ATOM      8  C   UNL     1       3.355   6.446  18.481  0.00  0.00    +0.000 A 
ATOM      9  C   UNL     1       2.767   7.675  18.132  0.00  0.00    +0.000 A 
ATOM     10  N   UNL     1       4.405   5.876  17.706  0.00  0.00    +0.000 N 
ATOM     11  C   UNL     1       5.016   6.546  16.572  0.00  0.00    +0.000 C 
ATOM     12  C   UNL     1       4.993   4.656  18.051  0.00  0.00    +0.000 A 
ATOM     13  O   UNL     1       5.949   4.180  17.444  0.00  0.00    +0.000 OA
ATOM     14  C   UNL     1       4.423   3.889  19.245  0.00  0.00    +0.000 A 
ATOM     15  O   UNL     1       4.880   2.778  19.499  0.00  0.00    +0.000 OA
ATOM     16  N   UNL     1       3.423   4.504  19.993  0.00  0.00    +0.000 N 
ATOM     17  C   UNL     1       2.886   3.770  21.130  0.00  0.00    +0.000 C 
ENDBRANCH   1   4
BRANCH   1  18
ATOM     18  N   UNL     1       0.149  10.187  19.894  0.00  0.00    +0.000 NA
ATOM     19  C   UNL     1      -1.285  10.416  19.588  0.00  0.00    +0.000 C 
BRANCH  18  20
ATOM     20  C   UNL     1       0.712  11.193  20.846  0.00  0.00    +0.000 C 
BRANCH  20  22
ATOM     21  N   UNL     1      -0.879  12.648  22.040  0.00  0.00    +0.000 N 
ATOM     22  C   UNL     1      -0.140  11.472  22.084  0.00  0.00    +0.000 C 
ATOM     23  O   UNL     1      -0.090  10.702  23.042  0.00  0.00    +0.000 OA
ATOM     24  H   UNL     1      -0.653  13.323  21.324  0.00  0.00    +0.000 HD
BRANCH  21  31
ATOM     25  C   UNL     1      -0.594  15.224  23.457  0.00  0.00    +0.000 C 
ATOM     26  C   UNL     1      -1.729  14.263  23.681  0.00  0.00    +0.000 A 
ATOM     27  C   UNL     1      -2.712  14.625  24.625  0.00  0.00    +0.000 A 
ATOM     28  C   UNL     1      -3.798  13.793  24.889  0.00  0.00    +0.000 A 
ATOM     29  C   UNL     1      -3.932  12.599  24.196  0.00  0.00    +0.000 A 
ATOM     30  C   UNL     1      -2.973  12.232  23.253  0.00  0.00    +0.000 A 
ATOM     31  C   UNL     1      -1.855  13.037  22.994  0.00  0.00    +0.000 A 
ENDBRANCH  21  31
ENDBRANCH  20  22
ENDBRANCH  18  20
ENDBRANCH   1  18
TORSDOF 5
ENDMDL
