MODEL 1
REMARK VINA RESULT:      -6.3      0.000      0.000
REMARK  Name = 
REMARK  11 active torsions:
REMARK  status: ('A' for Active; 'I' for Inactive)
REMARK    1  A    between atoms: C_1  and  C_2
REMARK    2  A    between atoms: C_2  and  O_4
REMARK    3  A    between atoms: O_4  and  C_5
REMARK    4  A    between atoms: C_7  and  C_8
REMARK    5  A    between atoms: C_9  and  C_10
REMARK    6  A    between atoms: C_10  and  O_11
REMARK    7  A    between atoms: C_14  and  C_15
REMARK    8  A    between atoms: C_14  and  C_16
REMARK    9  A    between atoms: C_18  and  C_19
REMARK   10  A    between atoms: C_18  and  C_20
REMARK   11  A    between atoms: C_20  and  O_21
REMARK                            x       y       z     vdW  Elec       q    Type
REMARK                         _______ _______ _______ _____ _____    ______ ____
ROOT
ATOM      1  C   UNL     1       2.724   5.999  18.290  0.00  0.00    +0.000 C 
ATOM      2  C   UNL     1       3.793   6.491  17.311  0.00  0.00    +0.000 C 
ATOM      3  C   UNL     1       5.159   5.775  17.319  0.00  0.00    +0.000 C 
ATOM      4  C   UNL     1       6.196   6.506  18.179  0.00  0.00    +0.000 C 
ATOM      5  C   UNL     1       5.132   4.237  17.629  0.00  0.00    +0.000 C 
ATOM      6  C   UNL     1       3.911   3.774  18.403  0.00  0.00    +0.000 C 
ATOM      7  C   UNL     1       2.844   4.551  18.654  0.00  0.00    +0.000 C 
ATOM      8  C   UNL     1       1.706   3.800  19.315  0.00  0.00    +0.000 C 
ATOM      9  C   UNL     1       1.061   4.501  20.519  0.00  0.00    +0.000 C 
ATOM     10  C   UNL     1       0.614   3.492  18.272  0.00  0.00    +0.000 C 
ATOM     11  C   UNL     1       2.385   2.495  19.778  0.00  0.00    +0.000 C 
ATOM     12  C   UNL     1       3.795   2.427  19.126  0.00  0.00    +0.000 C 
ATOM     13  C   UNL     1       3.859   1.182  18.230  0.00  0.00    +0.000 C 
ENDROOT
BRANCH   1  14
ATOM     14  O   UNL     1       2.803   6.749  19.521  0.00  0.00    +0.000 OA
BRANCH  14  16
ATOM     15  C   UNL     1       1.430   8.029  20.942  0.00  0.00    +0.000 C 
ATOM     16  C   UNL     1       2.016   7.859  19.571  0.00  0.00    +0.000 C 
ATOM     17  O   UNL     1       1.795   8.616  18.639  0.00  0.00    +0.000 OA
ENDBRANCH  14  16
ENDBRANCH   1  14
BRANCH   5  18
ATOM     18  C   UNL     1       5.307   3.479  16.290  0.00  0.00    +0.000 C 
BRANCH  18  19
ATOM     19  O   UNL     1       6.430   3.977  15.561  0.00  0.00    +0.000 OA
ATOM     20  H   UNL     1       6.090   4.483  14.803  0.00  0.00    +0.000 HD
ENDBRANCH  18  19
ENDBRANCH   5  18
BRANCH  12  21
ATOM     21  C   UNL     1       4.876   2.283  20.232  0.00  0.00    +0.000 C 
BRANCH  21  22
ATOM     22  O   UNL     1       5.433   0.974  20.304  0.00  0.00    +0.000 OA
ATOM     23  H   UNL     1       6.333   1.014  19.934  0.00  0.00    +0.000 HD
ENDBRANCH  21  22
ENDBRANCH  12  21
TORSDOF 6
ENDMDL
MODEL 2
REMARK VINA RESULT:      -6.0      1.769      4.700
REMARK  Name = 
REMARK  11 active torsions:
REMARK  status: ('A' for Active; 'I' for Inactive)
REMARK    1  A    between atoms: C_1  and  C_2
REMARK    2  A    between atoms: C_2  and  O_4
REMARK    3  A    between atoms: O_4  and  C_5
REMARK    4  A    between atoms: C_7  and  C_8
REMARK    5  A    between atoms: C_9  and  C_10
REMARK    6  A    between atoms: C_10  and  O_11
REMARK    7  A    between atoms: C_14  and  C_15
REMARK    8  A    between atoms: C_14  and  C_16
REMARK    9  A    between atoms: C_18  and  C_19
REMARK   10  A    between atoms: C_18  and  C_20
REMARK   11  A    between atoms: C_20  and  O_21
REMARK                            x       y       z     vdW  Elec       q    Type
REMARK                         _______ _______ _______ _____ _____    ______ ____
ROOT
ATOM      1  C   UNL     1       4.766   4.399  18.346  0.00  0.00    +0.000 C 
ATOM      2  C   UNL     1       4.633   5.912  18.543  0.00  0.00    +0.000 C 
ATOM      3  C   UNL     1       3.219   6.484  18.773  0.00  0.00    +0.000 C 
ATOM      4  C   UNL     1       2.585   7.010  17.481  0.00  0.00    +0.000 C 
ATOM      5  C   UNL     1       2.226   5.572  19.575  0.00  0.00    +0.000 C 
ATOM      6  C   UNL     1       2.560   4.091  19.534  0.00  0.00    +0.000 C 
ATOM      7  C   UNL     1       3.699   3.595  19.023  0.00  0.00    +0.000 C 
ATOM      8  C   UNL     1       3.845   2.103  19.241  0.00  0.00    +0.000 C 
ATOM      9  C   UNL     1       4.290   1.294  18.014  0.00  0.00    +0.000 C 
ATOM     10  C   UNL     1       4.833   1.843  20.395  0.00  0.00    +0.000 C 
ATOM     11  C   UNL     1       2.421   1.679  19.653  0.00  0.00    +0.000 C 
ATOM     12  C   UNL     1       1.593   2.967  19.924  0.00  0.00    +0.000 C 
ATOM     13  C   UNL     1       1.141   2.956  21.391  0.00  0.00    +0.000 C 
ENDROOT
BRANCH   1  14
ATOM     14  O   UNL     1       4.704   4.080  16.940  0.00  0.00    +0.000 OA
BRANCH  14  16
ATOM     15  C   UNL     1       5.549   4.649  14.817  0.00  0.00    +0.000 C 
ATOM     16  C   UNL     1       5.853   4.307  16.246  0.00  0.00    +0.000 C 
ATOM     17  O   UNL     1       6.984   4.234  16.701  0.00  0.00    +0.000 OA
ENDBRANCH  14  16
ENDBRANCH   1  14
BRANCH   5  18
ATOM     18  C   UNL     1       2.136   6.120  21.020  0.00  0.00    +0.000 C 
BRANCH  18  19
ATOM     19  O   UNL     1       1.900   7.528  21.023  0.00  0.00    +0.000 OA
ATOM     20  H   UNL     1       2.546   7.936  21.625  0.00  0.00    +0.000 HD
ENDBRANCH  18  19
ENDBRANCH   5  18
BRANCH  12  21
ATOM     21  C   UNL     1       0.326   2.974  19.026  0.00  0.00    +0.000 C 
BRANCH  21  22
ATOM     22  O   UNL     1       0.211   1.810  18.211  0.00  0.00    +0.000 OA
ATOM     23  H   UNL     1      -0.681   1.807  17.823  0.00  0.00    +0.000 HD
ENDBRANCH  21  22
ENDBRANCH  12  21
TORSDOF 6
ENDMDL
MODEL 3
REMARK VINA RESULT:      -5.4      8.138     10.988
REMARK  Name = 
REMARK  11 active torsions:
REMARK  status: ('A' for Active; 'I' for Inactive)
REMARK    1  A    between atoms: C_1  and  C_2
REMARK    2  A    between atoms: C_2  and  O_4
REMARK    3  A    between atoms: O_4  and  C_5
REMARK    4  A    between atoms: C_7  and  C_8
REMARK    5  A    between atoms: C_9  and  C_10
REMARK    6  A    between atoms: C_10  and  O_11
REMARK    7  A    between atoms: C_14  and  C_15
REMARK    8  A    between atoms: C_14  and  C_16
REMARK    9  A    between atoms: C_18  and  C_19
REMARK   10  A    between atoms: C_18  and  C_20
REMARK   11  A    between atoms: C_20  and  O_21
REMARK                            x       y       z     vdW  Elec       q    Type
REMARK                         _______ _______ _______ _____ _____    ______ ____
ROOT
ATOM      1  C   UNL     1      -2.578  12.688  19.941  0.00  0.00    +0.000 C 
ATOM      2  C   UNL     1      -1.742  12.318  18.713  0.00  0.00    +0.000 C 
ATOM      3  C   UNL     1      -2.251  11.169  17.819  0.00  0.00    +0.000 C 
ATOM      4  C   UNL     1      -1.593   9.828  18.161  0.00  0.00    +0.000 C 
ATOM      5  C   UNL     1      -3.808  11.033  17.687  0.00  0.00    +0.000 C 
ATOM      6  C   UNL     1      -4.591  11.642  18.836  0.00  0.00    +0.000 C 
ATOM      7  C   UNL     1      -4.041  12.399  19.799  0.00  0.00    +0.000 C 
ATOM      8  C   UNL     1      -5.066  13.001  20.738  0.00  0.00    +0.000 C 
ATOM      9  C   UNL     1      -4.741  12.887  22.235  0.00  0.00    +0.000 C 
ATOM     10  C   UNL     1      -5.281  14.485  20.385  0.00  0.00    +0.000 C 
ATOM     11  C   UNL     1      -6.336  12.187  20.421  0.00  0.00    +0.000 C 
ATOM     12  C   UNL     1      -6.067  11.355  19.135  0.00  0.00    +0.000 C 
ATOM     13  C   UNL     1      -7.065  11.794  18.053  0.00  0.00    +0.000 C 
ENDROOT
BRANCH   1  14
ATOM     14  O   UNL     1      -2.114  11.951  21.092  0.00  0.00    +0.000 OA
BRANCH  14  16
ATOM     15  C   UNL     1      -1.228  13.935  22.001  0.00  0.00    +0.000 C 
ATOM     16  C   UNL     1      -1.021  12.477  21.711  0.00  0.00    +0.000 C 
ATOM     17  O   UNL     1       0.001  11.868  21.988  0.00  0.00    +0.000 OA
ENDBRANCH  14  16
ENDBRANCH   1  14
BRANCH   5  18
ATOM     18  C   UNL     1      -4.223  11.614  16.313  0.00  0.00    +0.000 C 
BRANCH  18  19
ATOM     19  O   UNL     1      -3.128  11.596  15.395  0.00  0.00    +0.000 OA
ATOM     20  H   UNL     1      -2.345  11.936  15.862  0.00  0.00    +0.000 HD
ENDBRANCH  18  19
ENDBRANCH   5  18
BRANCH  12  21
ATOM     21  C   UNL     1      -6.303   9.848  19.428  0.00  0.00    +0.000 C 
BRANCH  21  22
ATOM     22  O   UNL     1      -7.575   9.384  18.984  0.00  0.00    +0.000 OA
ATOM     23  H   UNL     1      -7.978  10.090  18.449  0.00  0.00    +0.000 HD
ENDBRANCH  21  22
ENDBRANCH  12  21
TORSDOF 6
ENDMDL
MODEL 4
REMARK VINA RESULT:      -5.3      8.803     11.643
REMARK  Name = 
REMARK  11 active torsions:
REMARK  status: ('A' for Active; 'I' for Inactive)
REMARK    1  A    between atoms: C_1  and  C_2
REMARK    2  A    between atoms: C_2  and  O_4
REMARK    3  A    between atoms: O_4  and  C_5
REMARK    4  A    between atoms: C_7  and  C_8
REMARK    5  A    between atoms: C_9  and  C_10
REMARK    6  A    between atoms: C_10  and  O_11
REMARK    7  A    between atoms: C_14  and  C_15
REMARK    8  A    between atoms: C_14  and  C_16
REMARK    9  A    between atoms: C_18  and  C_19
REMARK   10  A    between atoms: C_18  and  C_20
REMARK   11  A    between atoms: C_20  and  O_21
REMARK                            x       y       z     vdW  Elec       q    Type
REMARK                         _______ _______ _______ _____ _____    ______ ____
ROOT
ATOM      1  C   UNL     1       9.383  12.615  21.557  0.00  0.00    +0.000 C 
ATOM      2  C   UNL     1      10.042  11.414  20.874  0.00  0.00    +0.000 C 
ATOM      3  C   UNL     1      10.144  11.430  19.335  0.00  0.00    +0.000 C 
ATOM      4  C   UNL     1       8.999  10.662  18.666  0.00  0.00    +0.000 C 
ATOM      5  C   UNL     1      10.364  12.834  18.672  0.00  0.00    +0.000 C 
ATOM      6  C   UNL     1       9.903  14.008  19.517  0.00  0.00    +0.000 C 
ATOM      7  C   UNL     1       9.510  13.900  20.797  0.00  0.00    +0.000 C 
ATOM      8  C   UNL     1       9.242  15.240  21.450  0.00  0.00    +0.000 C 
ATOM      9  C   UNL     1       7.939  15.336  22.257  0.00  0.00    +0.000 C 
ATOM     10  C   UNL     1      10.424  15.615  22.364  0.00  0.00    +0.000 C 
ATOM     11  C   UNL     1       9.176  16.198  20.243  0.00  0.00    +0.000 C 
ATOM     12  C   UNL     1       9.680  15.430  18.989  0.00  0.00    +0.000 C 
ATOM     13  C   UNL     1      10.927  16.144  18.448  0.00  0.00    +0.000 C 
ENDROOT
BRANCH   1  14
ATOM     14  O   UNL     1       7.972  12.368  21.733  0.00  0.00    +0.000 OA
BRANCH  14  16
ATOM     15  C   UNL     1       6.254  12.304  23.341  0.00  0.00    +0.000 C 
ATOM     16  C   UNL     1       7.625  11.844  22.941  0.00  0.00    +0.000 C 
ATOM     17  O   UNL     1       8.322  11.111  23.624  0.00  0.00    +0.000 OA
ENDBRANCH  14  16
ENDBRANCH   1  14
BRANCH   5  18
ATOM     18  C   UNL     1      11.856  12.943  18.270  0.00  0.00    +0.000 C 
BRANCH  18  19
ATOM     19  O   UNL     1      12.244  11.852  17.435  0.00  0.00    +0.000 OA
ATOM     20  H   UNL     1      11.904  11.035  17.837  0.00  0.00    +0.000 HD
ENDBRANCH  18  19
ENDBRANCH   5  18
BRANCH  12  21
ATOM     21  C   UNL     1       8.588  15.459  17.884  0.00  0.00    +0.000 C 
BRANCH  21  22
ATOM     22  O   UNL     1       7.343  14.916  18.314  0.00  0.00    +0.000 OA
ATOM     23  H   UNL     1       6.891  14.554  17.531  0.00  0.00    +0.000 HD
ENDBRANCH  21  22
ENDBRANCH  12  21
TORSDOF 6
ENDMDL
MODEL 5
REMARK VINA RESULT:      -5.3      8.826     11.461
REMARK  Name = 
REMARK  11 active torsions:
REMARK  status: ('A' for Active; 'I' for Inactive)
REMARK    1  A    between atoms: C_1  and  C_2
REMARK    2  A    between atoms: C_2  and  O_4
REMARK    3  A    between atoms: O_4  and  C_5
REMARK    4  A    between atoms: C_7  and  C_8
REMARK    5  A    between atoms: C_9  and  C_10
REMARK    6  A    between atoms: C_10  and  O_11
REMARK    7  A    between atoms: C_14  and  C_15
REMARK    8  A    between atoms: C_14  and  C_16
REMARK    9  A    between atoms: C_18  and  C_19
REMARK   10  A    between atoms: C_18  and  C_20
REMARK   11  A    between atoms: C_20  and  O_21
REMARK                            x       y       z     vdW  Elec       q    Type
REMARK                         _______ _______ _______ _____ _____    ______ ____
ROOT
ATOM      1  C   UNL     1       9.489  13.040  21.624  0.00  0.00    +0.000 C 
ATOM      2  C   UNL     1      10.338  11.868  21.125  0.00  0.00    +0.000 C 
ATOM      3  C   UNL     1      10.217  11.475  19.638  0.00  0.00    +0.000 C 
ATOM      4  C   UNL     1       9.232  10.322  19.418  0.00  0.00    +0.000 C 
ATOM      5  C   UNL     1       9.967  12.651  18.631  0.00  0.00    +0.000 C 
ATOM      6  C   UNL     1       9.335  13.885  19.250  0.00  0.00    +0.000 C 
ATOM      7  C   UNL     1       9.166  14.057  20.572  0.00  0.00    +0.000 C 
ATOM      8  C   UNL     1       8.649  15.435  20.929  0.00  0.00    +0.000 C 
ATOM      9  C   UNL     1       7.493  15.468  21.938  0.00  0.00    +0.000 C 
ATOM     10  C   UNL     1       9.807  16.298  21.468  0.00  0.00    +0.000 C 
ATOM     11  C   UNL     1       8.167  15.980  19.570  0.00  0.00    +0.000 C 
ATOM     12  C   UNL     1       8.676  15.019  18.457  0.00  0.00    +0.000 C 
ATOM     13  C   UNL     1       9.604  15.806  17.521  0.00  0.00    +0.000 C 
ENDROOT
BRANCH   1  14
ATOM     14  O   UNL     1       8.231  12.553  22.136  0.00  0.00    +0.000 OA
BRANCH  14  16
ATOM     15  C   UNL     1       8.647  13.206  24.360  0.00  0.00    +0.000 C 
ATOM     16  C   UNL     1       8.268  12.100  23.420  0.00  0.00    +0.000 C 
ATOM     17  O   UNL     1       8.041  10.953  23.776  0.00  0.00    +0.000 OA
ENDBRANCH  14  16
ENDBRANCH   1  14
BRANCH   5  18
ATOM     18  C   UNL     1      11.306  12.964  17.920  0.00  0.00    +0.000 C 
BRANCH  18  19
ATOM     19  O   UNL     1      12.052  11.769  17.680  0.00  0.00    +0.000 OA
ATOM     20  H   UNL     1      12.082  11.267  18.512  0.00  0.00    +0.000 HD
ENDBRANCH  18  19
ENDBRANCH   5  18
BRANCH  12  21
ATOM     21  C   UNL     1       7.472  14.501  17.623  0.00  0.00    +0.000 C 
BRANCH  21  22
ATOM     22  O   UNL     1       7.773  13.324  16.878  0.00  0.00    +0.000 OA
ATOM     23  H   UNL     1       8.203  13.600  16.049  0.00  0.00    +0.000 HD
ENDBRANCH  21  22
ENDBRANCH  12  21
TORSDOF 6
ENDMDL
MODEL 6
REMARK VINA RESULT:      -5.2      1.860      5.456
REMARK  Name = 
REMARK  11 active torsions:
REMARK  status: ('A' for Active; 'I' for Inactive)
REMARK    1  A    between atoms: C_1  and  C_2
REMARK    2  A    between atoms: C_2  and  O_4
REMARK    3  A    between atoms: O_4  and  C_5
REMARK    4  A    between atoms: C_7  and  C_8
REMARK    5  A    between atoms: C_9  and  C_10
REMARK    6  A    between atoms: C_10  and  O_11
REMARK    7  A    between atoms: C_14  and  C_15
REMARK    8  A    between atoms: C_14  and  C_16
REMARK    9  A    between atoms: C_18  and  C_19
REMARK   10  A    between atoms: C_18  and  C_20
REMARK   11  A    between atoms: C_20  and  O_21
REMARK                            x       y       z     vdW  Elec       q    Type
REMARK                         _______ _______ _______ _____ _____    ______ ____
ROOT
ATOM      1  C   UNL     1       5.338   4.276  17.763  0.00  0.00    +0.000 C 
ATOM      2  C   UNL     1       4.647   2.940  18.048  0.00  0.00    +0.000 C 
ATOM      3  C   UNL     1       3.365   2.964  18.905  0.00  0.00    +0.000 C 
ATOM      4  C   UNL     1       3.645   2.667  20.383  0.00  0.00    +0.000 C 
ATOM      5  C   UNL     1       2.441   4.221  18.733  0.00  0.00    +0.000 C 
ATOM      6  C   UNL     1       3.153   5.457  18.212  0.00  0.00    +0.000 C 
ATOM      7  C   UNL     1       4.415   5.456  17.754  0.00  0.00    +0.000 C 
ATOM      8  C   UNL     1       4.830   6.786  17.158  0.00  0.00    +0.000 C 
ATOM      9  C   UNL     1       6.205   7.309  17.598  0.00  0.00    +0.000 C 
ATOM     10  C   UNL     1       4.799   6.696  15.620  0.00  0.00    +0.000 C 
ATOM     11  C   UNL     1       3.728   7.741  17.659  0.00  0.00    +0.000 C 
ATOM     12  C   UNL     1       2.589   6.881  18.279  0.00  0.00    +0.000 C 
ATOM     13  C   UNL     1       1.303   7.127  17.478  0.00  0.00    +0.000 C 
ENDROOT
BRANCH   1  14
ATOM     14  O   UNL     1       6.341   4.535  18.768  0.00  0.00    +0.000 OA
BRANCH  14  16
ATOM     15  C   UNL     1       8.466   5.418  19.268  0.00  0.00    +0.000 C 
ATOM     16  C   UNL     1       7.613   4.658  18.296  0.00  0.00    +0.000 C 
ATOM     17  O   UNL     1       8.018   4.230  17.226  0.00  0.00    +0.000 OA
ENDBRANCH  14  16
ENDBRANCH   1  14
BRANCH   5  18
ATOM     18  C   UNL     1       1.240   3.811  17.847  0.00  0.00    +0.000 C 
BRANCH  18  19
ATOM     19  O   UNL     1       0.668   2.580  18.293  0.00  0.00    +0.000 OA
ATOM     20  H   UNL     1       0.371   2.089  17.508  0.00  0.00    +0.000 HD
ENDBRANCH  18  19
ENDBRANCH   5  18
BRANCH  12  21
ATOM     21  C   UNL     1       2.340   7.323  19.746  0.00  0.00    +0.000 C 
BRANCH  21  22
ATOM     22  O   UNL     1       1.583   8.526  19.847  0.00  0.00    +0.000 OA
ATOM     23  H   UNL     1       0.911   8.397  20.540  0.00  0.00    +0.000 HD
ENDBRANCH  21  22
ENDBRANCH  12  21
TORSDOF 6
ENDMDL
MODEL 7
REMARK VINA RESULT:      -5.2      1.836      4.474
REMARK  Name = 
REMARK  11 active torsions:
REMARK  status: ('A' for Active; 'I' for Inactive)
REMARK    1  A    between atoms: C_1  and  C_2
REMARK    2  A    between atoms: C_2  and  O_4
REMARK    3  A    between atoms: O_4  and  C_5
REMARK    4  A    between atoms: C_7  and  C_8
REMARK    5  A    between atoms: C_9  and  C_10
REMARK    6  A    between atoms: C_10  and  O_11
REMARK    7  A    between atoms: C_14  and  C_15
REMARK    8  A    between atoms: C_14  and  C_16
REMARK    9  A    between atoms: C_18  and  C_19
REMARK   10  A    between atoms: C_18  and  C_20
REMARK   11  A    between atoms: C_20  and  O_21
REMARK                            x       y       z     vdW  Elec       q    Type
REMARK                         _______ _______ _______ _____ _____    ______ ____
ROOT
ATOM      1  C   UNL     1       1.859   4.528  19.504  0.00  0.00    +0.000 C 
ATOM      2  C   UNL     1       1.064   5.812  19.749  0.00  0.00    +0.000 C 
ATOM      3  C   UNL     1       1.836   7.148  19.743  0.00  0.00    +0.000 C 
ATOM      4  C   UNL     1       2.222   7.604  21.154  0.00  0.00    +0.000 C 
ATOM      5  C   UNL     1       3.050   7.240  18.753  0.00  0.00    +0.000 C 
ATOM      6  C   UNL     1       3.643   5.899  18.360  0.00  0.00    +0.000 C 
ATOM      7  C   UNL     1       3.087   4.716  18.666  0.00  0.00    +0.000 C 
ATOM      8  C   UNL     1       3.803   3.542  18.029  0.00  0.00    +0.000 C 
ATOM      9  C   UNL     1       4.085   2.353  18.959  0.00  0.00    +0.000 C 
ATOM     10  C   UNL     1       2.997   3.044  16.813  0.00  0.00    +0.000 C 
ATOM     11  C   UNL     1       5.134   4.166  17.567  0.00  0.00    +0.000 C 
ATOM     12  C   UNL     1       5.016   5.711  17.703  0.00  0.00    +0.000 C 
ATOM     13  C   UNL     1       5.180   6.337  16.311  0.00  0.00    +0.000 C 
ENDROOT
BRANCH   1  14
ATOM     14  O   UNL     1       2.291   3.970  20.763  0.00  0.00    +0.000 OA
BRANCH  14  16
ATOM     15  C   UNL     1       0.746   2.323  20.096  0.00  0.00    +0.000 C 
ATOM     16  C   UNL     1       1.549   2.921  21.214  0.00  0.00    +0.000 C 
ATOM     17  O   UNL     1       1.516   2.516  22.366  0.00  0.00    +0.000 OA
ENDBRANCH  14  16
ENDBRANCH   1  14
BRANCH   5  18
ATOM     18  C   UNL     1       2.602   8.072  17.526  0.00  0.00    +0.000 C 
BRANCH  18  19
ATOM     19  O   UNL     1       1.499   8.919  17.855  0.00  0.00    +0.000 OA
ATOM     20  H   UNL     1       0.890   8.919  17.096  0.00  0.00    +0.000 HD
ENDBRANCH  18  19
ENDBRANCH   5  18
BRANCH  12  21
ATOM     21  C   UNL     1       6.156   6.245  18.612  0.00  0.00    +0.000 C 
BRANCH  21  22
ATOM     22  O   UNL     1       6.503   5.346  19.661  0.00  0.00    +0.000 OA
ATOM     23  H   UNL     1       6.313   5.789  20.507  0.00  0.00    +0.000 HD
ENDBRANCH  21  22
ENDBRANCH  12  21
TORSDOF 6
ENDMDL
MODEL 8
REMARK VINA RESULT:      -5.1      2.020      4.868
REMARK  Name = 
REMARK  11 active torsions:
REMARK  status: ('A' for Active; 'I' for Inactive)
REMARK    1  A    between atoms: C_1  and  C_2
REMARK    2  A    between atoms: C_2  and  O_4
REMARK    3  A    between atoms: O_4  and  C_5
REMARK    4  A    between atoms: C_7  and  C_8
REMARK    5  A    between atoms: C_9  and  C_10
REMARK    6  A    between atoms: C_10  and  O_11
REMARK    7  A    between atoms: C_14  and  C_15
REMARK    8  A    between atoms: C_14  and  C_16
REMARK    9  A    between atoms: C_18  and  C_19
REMARK   10  A    between atoms: C_18  and  C_20
REMARK   11  A    between atoms: C_20  and  O_21
REMARK                            x       y       z     vdW  Elec       q    Type
REMARK                         _______ _______ _______ _____ _____    ______ ____
ROOT
ATOM      1  C   UNL     1       5.824   3.920  16.321  0.00  0.00    +0.000 C 
ATOM      2  C   UNL     1       7.191   4.470  16.737  0.00  0.00    +0.000 C 
ATOM      3  C   UNL     1       7.218   5.657  17.722  0.00  0.00    +0.000 C 
ATOM      4  C   UNL     1       7.351   7.006  17.006  0.00  0.00    +0.000 C 
ATOM      5  C   UNL     1       6.081   5.685  18.803  0.00  0.00    +0.000 C 
ATOM      6  C   UNL     1       4.832   4.910  18.421  0.00  0.00    +0.000 C 
ATOM      7  C   UNL     1       4.748   4.109  17.346  0.00  0.00    +0.000 C 
ATOM      8  C   UNL     1       3.443   3.343  17.280  0.00  0.00    +0.000 C 
ATOM      9  C   UNL     1       2.747   3.337  15.911  0.00  0.00    +0.000 C 
ATOM     10  C   UNL     1       3.674   1.887  17.728  0.00  0.00    +0.000 C 
ATOM     11  C   UNL     1       2.561   4.083  18.306  0.00  0.00    +0.000 C 
ATOM     12  C   UNL     1       3.471   5.054  19.112  0.00  0.00    +0.000 C 
ATOM     13  C   UNL     1       3.428   4.645  20.591  0.00  0.00    +0.000 C 
ENDROOT
BRANCH   1  14
ATOM     14  O   UNL     1       5.376   4.577  15.117  0.00  0.00    +0.000 OA
BRANCH  14  16
ATOM     15  C   UNL     1       5.913   3.478  13.105  0.00  0.00    +0.000 C 
ATOM     16  C   UNL     1       6.266   4.558  14.085  0.00  0.00    +0.000 C 
ATOM     17  O   UNL     1       7.230   5.298  13.964  0.00  0.00    +0.000 OA
ENDBRANCH  14  16
ENDBRANCH   1  14
BRANCH   5  18
ATOM     18  C   UNL     1       6.687   5.209  20.145  0.00  0.00    +0.000 C 
BRANCH  18  19
ATOM     19  O   UNL     1       8.065   5.572  20.245  0.00  0.00    +0.000 OA
ATOM     20  H   UNL     1       8.209   6.346  19.674  0.00  0.00    +0.000 HD
ENDBRANCH  18  19
ENDBRANCH   5  18
BRANCH  12  21
ATOM     21  C   UNL     1       2.926   6.503  18.993  0.00  0.00    +0.000 C 
BRANCH  21  22
ATOM     22  O   UNL     1       2.458   7.028  20.233  0.00  0.00    +0.000 OA
ATOM     23  H   UNL     1       3.203   7.484  20.662  0.00  0.00    +0.000 HD
ENDBRANCH  21  22
ENDBRANCH  12  21
TORSDOF 6
ENDMDL
MODEL 9
REMARK VINA RESULT:      -5.1      8.151     11.555
REMARK  Name = 
REMARK  11 active torsions:
REMARK  status: ('A' for Active; 'I' for Inactive)
REMARK    1  A    between atoms: C_1  and  C_2
REMARK    2  A    between atoms: C_2  and  O_4
REMARK    3  A    between atoms: O_4  and  C_5
REMARK    4  A    between atoms: C_7  and  C_8
REMARK    5  A    between atoms: C_9  and  C_10
REMARK    6  A    between atoms: C_10  and  O_11
REMARK    7  A    between atoms: C_14  and  C_15
REMARK    8  A    between atoms: C_14  and  C_16
REMARK    9  A    between atoms: C_18  and  C_19
REMARK   10  A    between atoms: C_18  and  C_20
REMARK   11  A    between atoms: C_20  and  O_21
REMARK                            x       y       z     vdW  Elec       q    Type
REMARK                         _______ _______ _______ _____ _____    ______ ____
ROOT
ATOM      1  C   UNL     1      -2.299  12.319  19.612  0.00  0.00    +0.000 C 
ATOM      2  C   UNL     1      -2.250  11.873  18.148  0.00  0.00    +0.000 C 
ATOM      3  C   UNL     1      -3.492  11.161  17.573  0.00  0.00    +0.000 C 
ATOM      4  C   UNL     1      -3.362   9.635  17.615  0.00  0.00    +0.000 C 
ATOM      5  C   UNL     1      -4.880  11.639  18.124  0.00  0.00    +0.000 C 
ATOM      6  C   UNL     1      -4.820  12.297  19.491  0.00  0.00    +0.000 C 
ATOM      7  C   UNL     1      -3.677  12.624  20.115  0.00  0.00    +0.000 C 
ATOM      8  C   UNL     1      -3.902  13.400  21.396  0.00  0.00    +0.000 C 
ATOM      9  C   UNL     1      -3.087  12.928  22.609  0.00  0.00    +0.000 C 
ATOM     10  C   UNL     1      -3.614  14.894  21.153  0.00  0.00    +0.000 C 
ATOM     11  C   UNL     1      -5.404  13.184  21.665  0.00  0.00    +0.000 C 
ATOM     12  C   UNL     1      -6.033  12.536  20.398  0.00  0.00    +0.000 C 
ATOM     13  C   UNL     1      -7.103  13.488  19.845  0.00  0.00    +0.000 C 
ENDROOT
BRANCH   1  14
ATOM     14  O   UNL     1      -1.761  11.283  20.460  0.00  0.00    +0.000 OA
BRANCH  14  16
ATOM     15  C   UNL     1       0.246  12.421  20.931  0.00  0.00    +0.000 C 
ATOM     16  C   UNL     1      -0.405  11.163  20.435  0.00  0.00    +0.000 C 
ATOM     17  O   UNL     1       0.215  10.182  20.052  0.00  0.00    +0.000 OA
ENDBRANCH  14  16
ENDBRANCH   1  14
BRANCH   5  18
ATOM     18  C   UNL     1      -5.529  12.552  17.055  0.00  0.00    +0.000 C 
BRANCH  18  19
ATOM     19  O   UNL     1      -6.879  12.163  16.797  0.00  0.00    +0.000 OA
ATOM     20  H   UNL     1      -7.258  11.838  17.632  0.00  0.00    +0.000 HD
ENDBRANCH  18  19
ENDBRANCH   5  18
BRANCH  12  21
ATOM     21  C   UNL     1      -6.724  11.200  20.782  0.00  0.00    +0.000 C 
BRANCH  21  22
ATOM     22  O   UNL     1      -7.797  10.853  19.910  0.00  0.00    +0.000 OA
ATOM     23  H   UNL     1      -8.464  11.560  19.966  0.00  0.00    +0.000 HD
ENDBRANCH  21  22
ENDBRANCH  12  21
TORSDOF 6
ENDMDL
