MODEL 1
REMARK VINA RESULT:      -6.5      0.000      0.000
REMARK  Name = 
REMARK  9 active torsions:
REMARK  status: ('A' for Active; 'I' for Inactive)
REMARK    1  A    between atoms: C_1  and  C_2
REMARK    2  A    between atoms: C_2  and  C_3
REMARK    3  A    between atoms: C_2  and  N_4
REMARK    4  A    between atoms: C_5  and  C_7
REMARK    5  A    between atoms: C_7  and  C_8
REMARK    6  A    between atoms: C_8  and  N_9
REMARK    7  A    between atoms: C_10  and  C_12
REMARK    8  A    between atoms: C_12  and  C_13
REMARK    9  A    between atoms: C_13  and  C_14
REMARK                            x       y       z     vdW  Elec       q    Type
REMARK                         _______ _______ _______ _____ _____    ______ ____
ROOT
ATOM      1  N   UNL     1       8.013   6.861  18.624  0.00  0.00    +0.000 N 
ATOM      2  C   UNL     1       7.616   7.679  17.584  0.00  0.00    +0.000 C 
ATOM      3  O   UNL     1       6.967   7.273  16.624  0.00  0.00    +0.000 OA
ATOM      4  H   UNL     1       8.624   7.224  19.345  0.00  0.00    +0.000 HD
ENDROOT
BRANCH   1   5
ATOM      5  C   UNL     1       7.633   5.458  18.618  0.00  0.00    +0.000 C 
BRANCH   5   6
ATOM      6  C   UNL     1       6.246   5.182  19.192  0.00  0.00    +0.000 C 
BRANCH   6   8
ATOM      7  N   UNL     1       4.087   4.250  18.541  0.00  0.00    +0.000 N 
ATOM      8  C   UNL     1       5.391   4.478  18.153  0.00  0.00    +0.000 C 
ATOM      9  O   UNL     1       5.820   4.145  17.050  0.00  0.00    +0.000 OA
ATOM     10  H   UNL     1       3.829   4.390  19.509  0.00  0.00    +0.000 HD
BRANCH   7  12
ATOM     11  C   UNL     1       3.077   2.064  18.005  0.00  0.00    +0.000 C 
ATOM     12  C   UNL     1       3.152   3.551  17.662  0.00  0.00    +0.000 C 
ATOM     13  C   UNL     1       1.769   4.188  17.732  0.00  0.00    +0.000 C 
ENDBRANCH   7  12
ENDBRANCH   6   8
ENDBRANCH   5   6
ENDBRANCH   1   5
BRANCH   2  14
ATOM     14  C   UNL     1       8.085   9.115  17.701  0.00  0.00    +0.000 C 
BRANCH  14  15
ATOM     15  C   UNL     1       8.906   9.299  18.978  0.00  0.00    +0.000 C 
BRANCH  15  16
ATOM     16  C   UNL     1       9.534  10.662  19.059  0.00  0.00    +0.000 A 
ATOM     17  C   UNL     1      10.030  11.436  18.027  0.00  0.00    +0.000 A 
ATOM     18  C   UNL     1      10.509  12.697  18.479  0.00  0.00    +0.000 A 
ATOM     19 CL   UNL     1      11.166  13.871  17.428  0.00  0.00    +0.000 Cl
ATOM     20  C   UNL     1      10.370  12.847  19.839  0.00  0.00    +0.000 A 
ATOM     21  S   UNL     1       9.671  11.466  20.567  0.00  0.00    +0.000 S 
ENDBRANCH  15  16
ENDBRANCH  14  15
ENDBRANCH   2  14
TORSDOF 7
ENDMDL
MODEL 2
REMARK VINA RESULT:      -6.3      4.589      7.829
REMARK  Name = 
REMARK  9 active torsions:
REMARK  status: ('A' for Active; 'I' for Inactive)
REMARK    1  A    between atoms: C_1  and  C_2
REMARK    2  A    between atoms: C_2  and  C_3
REMARK    3  A    between atoms: C_2  and  N_4
REMARK    4  A    between atoms: C_5  and  C_7
REMARK    5  A    between atoms: C_7  and  C_8
REMARK    6  A    between atoms: C_8  and  N_9
REMARK    7  A    between atoms: C_10  and  C_12
REMARK    8  A    between atoms: C_12  and  C_13
REMARK    9  A    between atoms: C_13  and  C_14
REMARK                            x       y       z     vdW  Elec       q    Type
REMARK                         _______ _______ _______ _____ _____    ______ ____
ROOT
ATOM      1  N   UNL     1       4.727   3.283  17.035  0.00  0.00    +0.000 N 
ATOM      2  C   UNL     1       3.584   2.649  17.483  0.00  0.00    +0.000 C 
ATOM      3  O   UNL     1       2.475   2.845  16.993  0.00  0.00    +0.000 OA
ATOM      4  H   UNL     1       5.600   3.156  17.531  0.00  0.00    +0.000 HD
ENDROOT
BRANCH   1   5
ATOM      5  C   UNL     1       4.643   4.206  15.915  0.00  0.00    +0.000 C 
BRANCH   5   6
ATOM      6  C   UNL     1       5.972   4.460  15.211  0.00  0.00    +0.000 C 
BRANCH   6   8
ATOM      7  N   UNL     1       6.854   6.180  16.701  0.00  0.00    +0.000 N 
ATOM      8  C   UNL     1       7.016   4.895  16.225  0.00  0.00    +0.000 C 
ATOM      9  O   UNL     1       7.928   4.162  16.600  0.00  0.00    +0.000 OA
ATOM     10  H   UNL     1       6.195   6.796  16.243  0.00  0.00    +0.000 HD
BRANCH   7  12
ATOM     11  C   UNL     1       7.700   8.276  17.689  0.00  0.00    +0.000 C 
ATOM     12  C   UNL     1       7.800   6.753  17.656  0.00  0.00    +0.000 C 
ATOM     13  C   UNL     1       7.579   6.170  19.048  0.00  0.00    +0.000 C 
ENDBRANCH   7  12
ENDBRANCH   6   8
ENDBRANCH   5   6
ENDBRANCH   1   5
BRANCH   2  14
ATOM     14  C   UNL     1       3.802   1.721  18.662  0.00  0.00    +0.000 C 
BRANCH  14  15
ATOM     15  C   UNL     1       4.117   2.531  19.919  0.00  0.00    +0.000 C 
BRANCH  15  16
ATOM     16  C   UNL     1       3.119   3.629  20.154  0.00  0.00    +0.000 A 
ATOM     17  C   UNL     1       3.294   4.990  19.993  0.00  0.00    +0.000 A 
ATOM     18  C   UNL     1       2.106   5.724  20.266  0.00  0.00    +0.000 A 
ATOM     19 CL   UNL     1       2.015   7.424  20.136  0.00  0.00    +0.000 Cl
ATOM     20  C   UNL     1       1.064   4.905  20.632  0.00  0.00    +0.000 A 
ATOM     21  S   UNL     1       1.521   3.257  20.652  0.00  0.00    +0.000 S 
ENDBRANCH  15  16
ENDBRANCH  14  15
ENDBRANCH   2  14
TORSDOF 7
ENDMDL
MODEL 3
REMARK VINA RESULT:      -6.3      5.098      6.737
REMARK  Name = 
REMARK  9 active torsions:
REMARK  status: ('A' for Active; 'I' for Inactive)
REMARK    1  A    between atoms: C_1  and  C_2
REMARK    2  A    between atoms: C_2  and  C_3
REMARK    3  A    between atoms: C_2  and  N_4
REMARK    4  A    between atoms: C_5  and  C_7
REMARK    5  A    between atoms: C_7  and  C_8
REMARK    6  A    between atoms: C_8  and  N_9
REMARK    7  A    between atoms: C_10  and  C_12
REMARK    8  A    between atoms: C_12  and  C_13
REMARK    9  A    between atoms: C_13  and  C_14
REMARK                            x       y       z     vdW  Elec       q    Type
REMARK                         _______ _______ _______ _____ _____    ______ ____
ROOT
ATOM      1  N   UNL     1       2.959   2.329  19.830  0.00  0.00    +0.000 N 
ATOM      2  C   UNL     1       4.067   2.662  19.076  0.00  0.00    +0.000 C 
ATOM      3  O   UNL     1       5.118   3.060  19.572  0.00  0.00    +0.000 OA
ATOM      4  H   UNL     1       2.089   2.095  19.370  0.00  0.00    +0.000 HD
ENDROOT
BRANCH   1   5
ATOM      5  C   UNL     1       3.024   2.418  21.280  0.00  0.00    +0.000 C 
BRANCH   5   6
ATOM      6  C   UNL     1       1.975   3.336  21.900  0.00  0.00    +0.000 C 
BRANCH   6   8
ATOM      7  N   UNL     1       2.066   5.617  21.040  0.00  0.00    +0.000 N 
ATOM      8  C   UNL     1       1.520   4.361  20.877  0.00  0.00    +0.000 C 
ATOM      9  O   UNL     1       0.735   4.095  19.969  0.00  0.00    +0.000 OA
ATOM     10  H   UNL     1       2.571   5.829  21.892  0.00  0.00    +0.000 HD
BRANCH   7  12
ATOM     11  C   UNL     1       1.464   8.008  20.941  0.00  0.00    +0.000 C 
ATOM     12  C   UNL     1       1.697   6.719  20.155  0.00  0.00    +0.000 C 
ATOM     13  C   UNL     1       2.762   6.929  19.084  0.00  0.00    +0.000 C 
ENDBRANCH   7  12
ENDBRANCH   6   8
ENDBRANCH   5   6
ENDBRANCH   1   5
BRANCH   2  14
ATOM     14  C   UNL     1       3.868   2.539  17.579  0.00  0.00    +0.000 C 
BRANCH  14  15
ATOM     15  C   UNL     1       3.652   3.920  16.960  0.00  0.00    +0.000 C 
BRANCH  15  16
ATOM     16  C   UNL     1       4.949   4.619  16.664  0.00  0.00    +0.000 A 
ATOM     17  C   UNL     1       5.500   5.705  17.315  0.00  0.00    +0.000 A 
ATOM     18  C   UNL     1       6.769   6.067  16.783  0.00  0.00    +0.000 A 
ATOM     19 CL   UNL     1       7.697   7.363  17.397  0.00  0.00    +0.000 Cl
ATOM     20  C   UNL     1       7.146   5.253  15.742  0.00  0.00    +0.000 A 
ATOM     21  S   UNL     1       5.967   4.060  15.403  0.00  0.00    +0.000 S 
ENDBRANCH  15  16
ENDBRANCH  14  15
ENDBRANCH   2  14
TORSDOF 7
ENDMDL
MODEL 4
REMARK VINA RESULT:      -6.3      6.024      8.152
REMARK  Name = 
REMARK  9 active torsions:
REMARK  status: ('A' for Active; 'I' for Inactive)
REMARK    1  A    between atoms: C_1  and  C_2
REMARK    2  A    between atoms: C_2  and  C_3
REMARK    3  A    between atoms: C_2  and  N_4
REMARK    4  A    between atoms: C_5  and  C_7
REMARK    5  A    between atoms: C_7  and  C_8
REMARK    6  A    between atoms: C_8  and  N_9
REMARK    7  A    between atoms: C_10  and  C_12
REMARK    8  A    between atoms: C_12  and  C_13
REMARK    9  A    between atoms: C_13  and  C_14
REMARK                            x       y       z     vdW  Elec       q    Type
REMARK                         _______ _______ _______ _____ _____    ______ ____
ROOT
ATOM      1  N   UNL     1       6.078   4.823  16.913  0.00  0.00    +0.000 N 
ATOM      2  C   UNL     1       5.707   6.095  17.305  0.00  0.00    +0.000 C 
ATOM      3  O   UNL     1       6.338   7.102  16.993  0.00  0.00    +0.000 OA
ATOM      4  H   UNL     1       5.578   4.020  17.272  0.00  0.00    +0.000 HD
ENDROOT
BRANCH   1   5
ATOM      5  C   UNL     1       7.247   4.645  16.067  0.00  0.00    +0.000 C 
BRANCH   5   6
ATOM      6  C   UNL     1       7.009   4.963  14.594  0.00  0.00    +0.000 C 
BRANCH   6   8
ATOM      7  N   UNL     1       6.325   3.468  12.791  0.00  0.00    +0.000 N 
ATOM      8  C   UNL     1       5.987   3.999  14.018  0.00  0.00    +0.000 C 
ATOM      9  O   UNL     1       4.944   3.705  14.601  0.00  0.00    +0.000 OA
ATOM     10  H   UNL     1       7.104   3.863  12.280  0.00  0.00    +0.000 HD
BRANCH   7  12
ATOM     11  C   UNL     1       4.369   3.313  11.295  0.00  0.00    +0.000 C 
ATOM     12  C   UNL     1       5.425   2.552  12.095  0.00  0.00    +0.000 C 
ATOM     13  C   UNL     1       6.211   1.612  11.187  0.00  0.00    +0.000 C 
ENDBRANCH   7  12
ENDBRANCH   6   8
ENDBRANCH   5   6
ENDBRANCH   1   5
BRANCH   2  14
ATOM     14  C   UNL     1       4.480   6.146  18.192  0.00  0.00    +0.000 C 
BRANCH  14  15
ATOM     15  C   UNL     1       3.317   5.410  17.526  0.00  0.00    +0.000 C 
BRANCH  15  16
ATOM     16  C   UNL     1       2.825   4.256  18.352  0.00  0.00    +0.000 A 
ATOM     17  C   UNL     1       2.440   4.259  19.679  0.00  0.00    +0.000 A 
ATOM     18  C   UNL     1       1.985   2.982  20.113  0.00  0.00    +0.000 A 
ATOM     19 CL   UNL     1       1.432   2.685  21.701  0.00  0.00    +0.000 Cl
ATOM     20  C   UNL     1       2.041   2.044  19.110  0.00  0.00    +0.000 A 
ATOM     21  S   UNL     1       2.647   2.701  17.651  0.00  0.00    +0.000 S 
ENDBRANCH  15  16
ENDBRANCH  14  15
ENDBRANCH   2  14
TORSDOF 7
ENDMDL
MODEL 5
REMARK VINA RESULT:      -6.3      5.841      7.044
REMARK  Name = 
REMARK  9 active torsions:
REMARK  status: ('A' for Active; 'I' for Inactive)
REMARK    1  A    between atoms: C_1  and  C_2
REMARK    2  A    between atoms: C_2  and  C_3
REMARK    3  A    between atoms: C_2  and  N_4
REMARK    4  A    between atoms: C_5  and  C_7
REMARK    5  A    between atoms: C_7  and  C_8
REMARK    6  A    between atoms: C_8  and  N_9
REMARK    7  A    between atoms: C_10  and  C_12
REMARK    8  A    between atoms: C_12  and  C_13
REMARK    9  A    between atoms: C_13  and  C_14
REMARK                            x       y       z     vdW  Elec       q    Type
REMARK                         _______ _______ _______ _____ _____    ______ ____
ROOT
ATOM      1  N   UNL     1       3.148   3.675  19.990  0.00  0.00    +0.000 N 
ATOM      2  C   UNL     1       2.038   4.023  20.735  0.00  0.00    +0.000 C 
ATOM      3  O   UNL     1       1.338   3.199  21.318  0.00  0.00    +0.000 OA
ATOM      4  H   UNL     1       3.637   4.381  19.456  0.00  0.00    +0.000 HD
ENDROOT
BRANCH   1   5
ATOM      5  C   UNL     1       3.543   2.279  19.902  0.00  0.00    +0.000 C 
BRANCH   5   6
ATOM      6  C   UNL     1       3.459   1.691  18.496  0.00  0.00    +0.000 C 
BRANCH   6   8
ATOM      7  N   UNL     1       4.726   3.234  17.094  0.00  0.00    +0.000 N 
ATOM      8  C   UNL     1       3.468   2.810  17.470  0.00  0.00    +0.000 C 
ATOM      9  O   UNL     1       2.440   3.296  17.002  0.00  0.00    +0.000 OA
ATOM     10  H   UNL     1       5.530   2.924  17.624  0.00  0.00    +0.000 HD
BRANCH   7  12
ATOM     11  C   UNL     1       5.215   5.641  16.854  0.00  0.00    +0.000 C 
ATOM     12  C   UNL     1       4.897   4.328  16.140  0.00  0.00    +0.000 C 
ATOM     13  C   UNL     1       5.984   3.992  15.125  0.00  0.00    +0.000 C 
ENDBRANCH   7  12
ENDBRANCH   6   8
ENDBRANCH   5   6
ENDBRANCH   1   5
BRANCH   2  14
ATOM     14  C   UNL     1       1.725   5.506  20.740  0.00  0.00    +0.000 C 
BRANCH  14  15
ATOM     15  C   UNL     1       2.652   6.244  19.774  0.00  0.00    +0.000 C 
BRANCH  15  16
ATOM     16  C   UNL     1       2.113   7.591  19.385  0.00  0.00    +0.000 A 
ATOM     17  C   UNL     1       1.336   8.449  20.138  0.00  0.00    +0.000 A 
ATOM     18  C   UNL     1       1.053   9.664  19.454  0.00  0.00    +0.000 A 
ATOM     19 CL   UNL     1       0.125  10.921  20.142  0.00  0.00    +0.000 Cl
ATOM     20  C   UNL     1       1.617   9.696  18.201  0.00  0.00    +0.000 A 
ATOM     21  S   UNL     1       2.478   8.261  17.850  0.00  0.00    +0.000 S 
ENDBRANCH  15  16
ENDBRANCH  14  15
ENDBRANCH   2  14
TORSDOF 7
ENDMDL
MODEL 6
REMARK VINA RESULT:      -6.3      5.904      7.790
REMARK  Name = 
REMARK  9 active torsions:
REMARK  status: ('A' for Active; 'I' for Inactive)
REMARK    1  A    between atoms: C_1  and  C_2
REMARK    2  A    between atoms: C_2  and  C_3
REMARK    3  A    between atoms: C_2  and  N_4
REMARK    4  A    between atoms: C_5  and  C_7
REMARK    5  A    between atoms: C_7  and  C_8
REMARK    6  A    between atoms: C_8  and  N_9
REMARK    7  A    between atoms: C_10  and  C_12
REMARK    8  A    between atoms: C_12  and  C_13
REMARK    9  A    between atoms: C_13  and  C_14
REMARK                            x       y       z     vdW  Elec       q    Type
REMARK                         _______ _______ _______ _____ _____    ______ ____
ROOT
ATOM      1  N   UNL     1       5.643   4.931  16.590  0.00  0.00    +0.000 N 
ATOM      2  C   UNL     1       5.170   6.194  16.288  0.00  0.00    +0.000 C 
ATOM      3  O   UNL     1       5.100   6.626  15.140  0.00  0.00    +0.000 OA
ATOM      4  H   UNL     1       5.766   4.658  17.556  0.00  0.00    +0.000 HD
ENDROOT
BRANCH   1   5
ATOM      5  C   UNL     1       6.056   4.045  15.514  0.00  0.00    +0.000 C 
BRANCH   5   6
ATOM      6  C   UNL     1       7.207   4.580  14.668  0.00  0.00    +0.000 C 
BRANCH   6   8
ATOM      7  N   UNL     1       5.983   3.325  12.971  0.00  0.00    +0.000 N 
ATOM      8  C   UNL     1       6.947   4.284  13.201  0.00  0.00    +0.000 C 
ATOM      9  O   UNL     1       7.539   4.858  12.290  0.00  0.00    +0.000 OA
ATOM     10  H   UNL     1       5.647   2.766  13.745  0.00  0.00    +0.000 HD
BRANCH   7  12
ATOM     11  C   UNL     1       5.992   1.437  11.382  0.00  0.00    +0.000 C 
ATOM     12  C   UNL     1       5.648   2.907  11.611  0.00  0.00    +0.000 C 
ATOM     13  C   UNL     1       4.174   3.166  11.317  0.00  0.00    +0.000 C 
ENDBRANCH   7  12
ENDBRANCH   6   8
ENDBRANCH   5   6
ENDBRANCH   1   5
BRANCH   2  14
ATOM     14  C   UNL     1       4.782   7.024  17.496  0.00  0.00    +0.000 C 
BRANCH  14  15
ATOM     15  C   UNL     1       3.273   6.947  17.726  0.00  0.00    +0.000 C 
BRANCH  15  16
ATOM     16  C   UNL     1       2.864   5.665  18.393  0.00  0.00    +0.000 A 
ATOM     17  C   UNL     1       1.873   4.782  18.010  0.00  0.00    +0.000 A 
ATOM     18  C   UNL     1       1.802   3.645  18.861  0.00  0.00    +0.000 A 
ATOM     19 CL   UNL     1       0.682   2.377  18.626  0.00  0.00    +0.000 Cl
ATOM     20  C   UNL     1       2.735   3.694  19.870  0.00  0.00    +0.000 A 
ATOM     21  S   UNL     1       3.687   5.113  19.792  0.00  0.00    +0.000 S 
ENDBRANCH  15  16
ENDBRANCH  14  15
ENDBRANCH   2  14
TORSDOF 7
ENDMDL
MODEL 7
REMARK VINA RESULT:      -6.1      5.857      7.761
REMARK  Name = 
REMARK  9 active torsions:
REMARK  status: ('A' for Active; 'I' for Inactive)
REMARK    1  A    between atoms: C_1  and  C_2
REMARK    2  A    between atoms: C_2  and  C_3
REMARK    3  A    between atoms: C_2  and  N_4
REMARK    4  A    between atoms: C_5  and  C_7
REMARK    5  A    between atoms: C_7  and  C_8
REMARK    6  A    between atoms: C_8  and  N_9
REMARK    7  A    between atoms: C_10  and  C_12
REMARK    8  A    between atoms: C_12  and  C_13
REMARK    9  A    between atoms: C_13  and  C_14
REMARK                            x       y       z     vdW  Elec       q    Type
REMARK                         _______ _______ _______ _____ _____    ______ ____
ROOT
ATOM      1  N   UNL     1       6.122   6.327  16.568  0.00  0.00    +0.000 N 
ATOM      2  C   UNL     1       5.474   6.296  17.788  0.00  0.00    +0.000 C 
ATOM      3  O   UNL     1       5.742   5.481  18.667  0.00  0.00    +0.000 OA
ATOM      4  H   UNL     1       5.802   6.959  15.845  0.00  0.00    +0.000 HD
ENDROOT
BRANCH   1   5
ATOM      5  C   UNL     1       7.191   5.380  16.299  0.00  0.00    +0.000 C 
BRANCH   5   6
ATOM      6  C   UNL     1       6.731   4.087  15.632  0.00  0.00    +0.000 C 
BRANCH   6   8
ATOM      7  N   UNL     1       6.178   3.195  13.430  0.00  0.00    +0.000 N 
ATOM      8  C   UNL     1       6.663   4.281  14.128  0.00  0.00    +0.000 C 
ATOM      9  O   UNL     1       7.004   5.324  13.573  0.00  0.00    +0.000 OA
ATOM     10  H   UNL     1       6.070   2.309  13.908  0.00  0.00    +0.000 HD
BRANCH   7  12
ATOM     11  C   UNL     1       6.829   2.035  11.352  0.00  0.00    +0.000 C 
ATOM     12  C   UNL     1       6.087   3.217  11.972  0.00  0.00    +0.000 C 
ATOM     13  C   UNL     1       4.629   3.230  11.524  0.00  0.00    +0.000 C 
ENDBRANCH   7  12
ENDBRANCH   6   8
ENDBRANCH   5   6
ENDBRANCH   1   5
BRANCH   2  14
ATOM     14  C   UNL     1       4.373   7.326  17.940  0.00  0.00    +0.000 C 
BRANCH  14  15
ATOM     15  C   UNL     1       3.068   6.794  17.347  0.00  0.00    +0.000 C 
BRANCH  15  16
ATOM     16  C   UNL     1       2.421   5.764  18.227  0.00  0.00    +0.000 A 
ATOM     17  C   UNL     1       1.863   4.555  17.858  0.00  0.00    +0.000 A 
ATOM     18  C   UNL     1       1.384   3.816  18.975  0.00  0.00    +0.000 A 
ATOM     19 CL   UNL     1       0.656   2.279  18.828  0.00  0.00    +0.000 Cl
ATOM     20  C   UNL     1       1.585   4.482  20.161  0.00  0.00    +0.000 A 
ATOM     21  S   UNL     1       2.343   5.997  19.924  0.00  0.00    +0.000 S 
ENDBRANCH  15  16
ENDBRANCH  14  15
ENDBRANCH   2  14
TORSDOF 7
ENDMDL
MODEL 8
REMARK VINA RESULT:      -6.1      5.981      7.964
REMARK  Name = 
REMARK  9 active torsions:
REMARK  status: ('A' for Active; 'I' for Inactive)
REMARK    1  A    between atoms: C_1  and  C_2
REMARK    2  A    between atoms: C_2  and  C_3
REMARK    3  A    between atoms: C_2  and  N_4
REMARK    4  A    between atoms: C_5  and  C_7
REMARK    5  A    between atoms: C_7  and  C_8
REMARK    6  A    between atoms: C_8  and  N_9
REMARK    7  A    between atoms: C_10  and  C_12
REMARK    8  A    between atoms: C_12  and  C_13
REMARK    9  A    between atoms: C_13  and  C_14
REMARK                            x       y       z     vdW  Elec       q    Type
REMARK                         _______ _______ _______ _____ _____    ______ ____
ROOT
ATOM      1  N   UNL     1       5.847   5.818  17.366  0.00  0.00    +0.000 N 
ATOM      2  C   UNL     1       4.757   6.626  17.106  0.00  0.00    +0.000 C 
ATOM      3  O   UNL     1       4.659   7.310  16.090  0.00  0.00    +0.000 OA
ATOM      4  H   UNL     1       5.921   5.346  18.258  0.00  0.00    +0.000 HD
ENDROOT
BRANCH   1   5
ATOM      5  C   UNL     1       6.926   5.734  16.396  0.00  0.00    +0.000 C 
BRANCH   5   6
ATOM      6  C   UNL     1       7.087   4.359  15.754  0.00  0.00    +0.000 C 
BRANCH   6   8
ATOM      7  N   UNL     1       6.258   3.487  13.631  0.00  0.00    +0.000 N 
ATOM      8  C   UNL     1       6.992   4.482  14.244  0.00  0.00    +0.000 C 
ATOM      9  O   UNL     1       7.518   5.397  13.615  0.00  0.00    +0.000 OA
ATOM     10  H   UNL     1       5.989   2.672  14.167  0.00  0.00    +0.000 HD
BRANCH   7  12
ATOM     11  C   UNL     1       6.879   2.281  11.571  0.00  0.00    +0.000 C 
ATOM     12  C   UNL     1       6.107   3.450  12.179  0.00  0.00    +0.000 C 
ATOM     13  C   UNL     1       4.633   3.378  11.793  0.00  0.00    +0.000 C 
ENDBRANCH   7  12
ENDBRANCH   6   8
ENDBRANCH   5   6
ENDBRANCH   1   5
BRANCH   2  14
ATOM     14  C   UNL     1       3.707   6.635  18.199  0.00  0.00    +0.000 C 
BRANCH  14  15
ATOM     15  C   UNL     1       4.137   5.727  19.350  0.00  0.00    +0.000 C 
BRANCH  15  16
ATOM     16  C   UNL     1       3.474   4.380  19.290  0.00  0.00    +0.000 A 
ATOM     17  C   UNL     1       2.157   4.089  18.991  0.00  0.00    +0.000 A 
ATOM     18  C   UNL     1       1.901   2.690  18.984  0.00  0.00    +0.000 A 
ATOM     19 CL   UNL     1       0.365   2.030  18.633  0.00  0.00    +0.000 Cl
ATOM     20  C   UNL     1       3.024   1.955  19.281  0.00  0.00    +0.000 A 
ATOM     21  S   UNL     1       4.382   2.954  19.575  0.00  0.00    +0.000 S 
ENDBRANCH  15  16
ENDBRANCH  14  15
ENDBRANCH   2  14
TORSDOF 7
ENDMDL
MODEL 9
REMARK VINA RESULT:      -6.0      4.920      7.002
REMARK  Name = 
REMARK  9 active torsions:
REMARK  status: ('A' for Active; 'I' for Inactive)
REMARK    1  A    between atoms: C_1  and  C_2
REMARK    2  A    between atoms: C_2  and  C_3
REMARK    3  A    between atoms: C_2  and  N_4
REMARK    4  A    between atoms: C_5  and  C_7
REMARK    5  A    between atoms: C_7  and  C_8
REMARK    6  A    between atoms: C_8  and  N_9
REMARK    7  A    between atoms: C_10  and  C_12
REMARK    8  A    between atoms: C_12  and  C_13
REMARK    9  A    between atoms: C_13  and  C_14
REMARK                            x       y       z     vdW  Elec       q    Type
REMARK                         _______ _______ _______ _____ _____    ______ ____
ROOT
ATOM      1  N   UNL     1       5.764   4.062  18.795  0.00  0.00    +0.000 N 
ATOM      2  C   UNL     1       4.690   3.439  18.190  0.00  0.00    +0.000 C 
ATOM      3  O   UNL     1       4.596   3.300  16.973  0.00  0.00    +0.000 OA
ATOM      4  H   UNL     1       5.751   4.232  19.792  0.00  0.00    +0.000 HD
ENDROOT
BRANCH   1   5
ATOM      5  C   UNL     1       6.859   4.558  17.977  0.00  0.00    +0.000 C 
BRANCH   5   6
ATOM      6  C   UNL     1       6.686   5.998  17.504  0.00  0.00    +0.000 C 
BRANCH   6   8
ATOM      7  N   UNL     1       7.101   5.192  15.239  0.00  0.00    +0.000 N 
ATOM      8  C   UNL     1       6.325   6.014  16.029  0.00  0.00    +0.000 C 
ATOM      9  O   UNL     1       5.411   6.697  15.573  0.00  0.00    +0.000 OA
ATOM     10  H   UNL     1       7.941   4.782  15.628  0.00  0.00    +0.000 HD
BRANCH   7  12
ATOM     11  C   UNL     1       8.190   5.427  13.038  0.00  0.00    +0.000 C 
ATOM     12  C   UNL     1       6.897   5.128  13.793  0.00  0.00    +0.000 C 
ATOM     13  C   UNL     1       6.342   3.766  13.389  0.00  0.00    +0.000 C 
ENDBRANCH   7  12
ENDBRANCH   6   8
ENDBRANCH   5   6
ENDBRANCH   1   5
BRANCH   2  14
ATOM     14  C   UNL     1       3.611   2.977  19.148  0.00  0.00    +0.000 C 
BRANCH  14  15
ATOM     15  C   UNL     1       2.270   3.613  18.780  0.00  0.00    +0.000 C 
BRANCH  15  16
ATOM     16  C   UNL     1       2.264   5.098  19.007  0.00  0.00    +0.000 A 
ATOM     17  C   UNL     1       2.429   6.105  18.075  0.00  0.00    +0.000 A 
ATOM     18  C   UNL     1       2.315   7.400  18.652  0.00  0.00    +0.000 A 
ATOM     19 CL   UNL     1       2.459   8.837  17.741  0.00  0.00    +0.000 Cl
ATOM     20  C   UNL     1       2.073   7.345  20.004  0.00  0.00    +0.000 A 
ATOM     21  S   UNL     1       1.990   5.735  20.575  0.00  0.00    +0.000 S 
ENDBRANCH  15  16
ENDBRANCH  14  15
ENDBRANCH   2  14
TORSDOF 7
ENDMDL
