MODEL 1
REMARK VINA RESULT:      -7.1      0.000      0.000
REMARK  Name = 
REMARK  8 active torsions:
REMARK  status: ('A' for Active; 'I' for Inactive)
REMARK    1  A    between atoms: C_1  and  C_2
REMARK    2  A    between atoms: C_2  and  O_3
REMARK    3  A    between atoms: O_3  and  C_4
REMARK    4  A    between atoms: C_4  and  C_6
REMARK    5  A    between atoms: C_7  and  C_8
REMARK    6  A    between atoms: C_10  and  N_11
REMARK    7  A    between atoms: C_12  and  C_13
REMARK    8  A    between atoms: C_15  and  C_16
REMARK                            x       y       z     vdW  Elec       q    Type
REMARK                         _______ _______ _______ _____ _____    ______ ____
ROOT
ATOM      1  C   UNL     1       3.001   4.140  18.042  0.00  0.00    +0.000 C 
ATOM      2  C   UNL     1       3.823   3.078  18.206  0.00  0.00    +0.000 C 
ATOM      3  C   UNL     1       3.451   1.661  18.545  0.00  0.00    +0.000 C 
ATOM      4  O   UNL     1       5.198   3.194  18.040  0.00  0.00    +0.000 OA
ATOM      5  C   UNL     1       5.803   4.439  17.970  0.00  0.00    +0.000 C 
ATOM      6  C   UNL     1       5.080   5.544  17.700  0.00  0.00    +0.000 C 
ATOM      7  C   UNL     1       3.561   5.473  17.558  0.00  0.00    +0.000 C 
ENDROOT
BRANCH   7   8
ATOM      8  C   UNL     1       2.881   6.701  18.178  0.00  0.00    +0.000 A 
ATOM      9  C   UNL     1       2.475   7.763  17.345  0.00  0.00    +0.000 A 
ATOM     10  C   UNL     1       1.820   8.875  17.877  0.00  0.00    +0.000 A 
ATOM     11  C   UNL     1       1.587   8.942  19.250  0.00  0.00    +0.000 A 
ATOM     12 CL   UNL     1       0.764  10.305  19.905  0.00  0.00    +0.000 Cl
ATOM     13  C   UNL     1       1.997   7.910  20.087  0.00  0.00    +0.000 A 
ATOM     14  C   UNL     1       2.637   6.787  19.557  0.00  0.00    +0.000 A 
ENDBRANCH   7   8
BRANCH   5  15
ATOM     15  N   UNL     1       7.154   4.387  18.199  0.00  0.00    +0.000 N 
ATOM     16  H   UNL     1       7.706   4.128  17.386  0.00  0.00    +0.000 HD
ATOM     17  H   UNL     1       7.567   5.093  18.801  0.00  0.00    +0.000 HD
ENDBRANCH   5  15
BRANCH   1  18
ATOM     18  C   UNL     1       1.550   4.012  18.355  0.00  0.00    +0.000 C 
ATOM     19  O   UNL     1       0.693   3.721  17.536  0.00  0.00    +0.000 OA
BRANCH  18  20
ATOM     20  O   UNL     1       1.319   4.224  19.673  0.00  0.00    +0.000 OA
BRANCH  20  22
ATOM     21  C   UNL     1       1.763   2.765  21.614  0.00  0.00    +0.000 C 
ATOM     22  C   UNL     1       0.868   3.086  20.425  0.00  0.00    +0.000 C 
ENDBRANCH  20  22
ENDBRANCH  18  20
ENDBRANCH   1  18
BRANCH   6  23
ATOM     23  C   UNL     1       5.734   6.804  17.561  0.00  0.00    +0.000 C 
ATOM     24  N   UNL     1       6.289   7.816  17.448  0.00  0.00    +0.000 NA
ENDBRANCH   6  23
TORSDOF 6
ENDMDL
MODEL 2
REMARK VINA RESULT:      -7.1      2.503      4.197
REMARK  Name = 
REMARK  8 active torsions:
REMARK  status: ('A' for Active; 'I' for Inactive)
REMARK    1  A    between atoms: C_1  and  C_2
REMARK    2  A    between atoms: C_2  and  O_3
REMARK    3  A    between atoms: O_3  and  C_4
REMARK    4  A    between atoms: C_4  and  C_6
REMARK    5  A    between atoms: C_7  and  C_8
REMARK    6  A    between atoms: C_10  and  N_11
REMARK    7  A    between atoms: C_12  and  C_13
REMARK    8  A    between atoms: C_15  and  C_16
REMARK                            x       y       z     vdW  Elec       q    Type
REMARK                         _______ _______ _______ _____ _____    ______ ____
ROOT
ATOM      1  C   UNL     1       4.642   5.264  17.348  0.00  0.00    +0.000 C 
ATOM      2  C   UNL     1       4.865   4.104  16.690  0.00  0.00    +0.000 C 
ATOM      3  C   UNL     1       5.834   3.843  15.570  0.00  0.00    +0.000 C 
ATOM      4  O   UNL     1       4.185   2.939  17.026  0.00  0.00    +0.000 OA
ATOM      5  C   UNL     1       3.073   2.978  17.852  0.00  0.00    +0.000 C 
ATOM      6  C   UNL     1       2.828   4.050  18.631  0.00  0.00    +0.000 C 
ATOM      7  C   UNL     1       3.714   5.293  18.557  0.00  0.00    +0.000 C 
ENDROOT
BRANCH   7   8
ATOM      8  C   UNL     1       2.888   6.580  18.683  0.00  0.00    +0.000 A 
ATOM      9  C   UNL     1       2.511   7.038  19.962  0.00  0.00    +0.000 A 
ATOM     10  C   UNL     1       1.792   8.227  20.109  0.00  0.00    +0.000 A 
ATOM     11  C   UNL     1       1.427   8.951  18.976  0.00  0.00    +0.000 A 
ATOM     12 CL   UNL     1       0.556  10.425  19.157  0.00  0.00    +0.000 Cl
ATOM     13  C   UNL     1       1.777   8.503  17.707  0.00  0.00    +0.000 A 
ATOM     14  C   UNL     1       2.511   7.324  17.555  0.00  0.00    +0.000 A 
ENDBRANCH   7   8
BRANCH   5  15
ATOM     15  N   UNL     1       2.309   1.843  17.768  0.00  0.00    +0.000 N 
ATOM     16  H   UNL     1       2.631   1.078  18.354  0.00  0.00    +0.000 HD
ATOM     17  H   UNL     1       1.300   1.946  17.701  0.00  0.00    +0.000 HD
ENDBRANCH   5  15
BRANCH   1  18
ATOM     18  C   UNL     1       5.289   6.521  16.877  0.00  0.00    +0.000 C 
ATOM     19  O   UNL     1       5.090   7.030  15.785  0.00  0.00    +0.000 OA
BRANCH  18  20
ATOM     20  O   UNL     1       6.094   7.039  17.835  0.00  0.00    +0.000 OA
BRANCH  20  22
ATOM     21  C   UNL     1       7.811   5.801  19.105  0.00  0.00    +0.000 C 
ATOM     22  C   UNL     1       7.452   6.569  17.841  0.00  0.00    +0.000 C 
ENDBRANCH  20  22
ENDBRANCH  18  20
ENDBRANCH   1  18
BRANCH   6  23
ATOM     23  C   UNL     1       1.718   4.040  19.526  0.00  0.00    +0.000 C 
ATOM     24  N   UNL     1       0.800   4.020  20.235  0.00  0.00    +0.000 NA
ENDBRANCH   6  23
TORSDOF 6
ENDMDL
MODEL 3
REMARK VINA RESULT:      -7.0      0.152      1.042
REMARK  Name = 
REMARK  8 active torsions:
REMARK  status: ('A' for Active; 'I' for Inactive)
REMARK    1  A    between atoms: C_1  and  C_2
REMARK    2  A    between atoms: C_2  and  O_3
REMARK    3  A    between atoms: O_3  and  C_4
REMARK    4  A    between atoms: C_4  and  C_6
REMARK    5  A    between atoms: C_7  and  C_8
REMARK    6  A    between atoms: C_10  and  N_11
REMARK    7  A    between atoms: C_12  and  C_13
REMARK    8  A    between atoms: C_15  and  C_16
REMARK                            x       y       z     vdW  Elec       q    Type
REMARK                         _______ _______ _______ _____ _____    ______ ____
ROOT
ATOM      1  C   UNL     1       3.088   4.151  17.976  0.00  0.00    +0.000 C 
ATOM      2  C   UNL     1       3.918   3.100  18.164  0.00  0.00    +0.000 C 
ATOM      3  C   UNL     1       3.558   1.687  18.532  0.00  0.00    +0.000 C 
ATOM      4  O   UNL     1       5.292   3.224  17.997  0.00  0.00    +0.000 OA
ATOM      5  C   UNL     1       5.887   4.472  17.901  0.00  0.00    +0.000 C 
ATOM      6  C   UNL     1       5.155   5.564  17.607  0.00  0.00    +0.000 C 
ATOM      7  C   UNL     1       3.637   5.478  17.464  0.00  0.00    +0.000 C 
ENDROOT
BRANCH   7   8
ATOM      8  C   UNL     1       2.946   6.713  18.057  0.00  0.00    +0.000 A 
ATOM      9  C   UNL     1       2.659   6.750  19.438  0.00  0.00    +0.000 A 
ATOM     10  C   UNL     1       2.066   7.877  20.011  0.00  0.00    +0.000 A 
ATOM     11  C   UNL     1       1.734   8.963  19.204  0.00  0.00    +0.000 A 
ATOM     12 CL   UNL     1       1.018  10.359  19.912  0.00  0.00    +0.000 Cl
ATOM     13  C   UNL     1       1.995   8.934  17.838  0.00  0.00    +0.000 A 
ATOM     14  C   UNL     1       2.605   7.817  17.262  0.00  0.00    +0.000 A 
ENDBRANCH   7   8
BRANCH   5  15
ATOM     15  N   UNL     1       7.238   4.436  18.133  0.00  0.00    +0.000 N 
ATOM     16  H   UNL     1       7.773   3.960  17.412  0.00  0.00    +0.000 HD
ATOM     17  H   UNL     1       7.679   5.260  18.532  0.00  0.00    +0.000 HD
ENDBRANCH   5  15
BRANCH   1  18
ATOM     18  C   UNL     1       1.637   4.017  18.290  0.00  0.00    +0.000 C 
ATOM     19  O   UNL     1       0.771   3.799  17.458  0.00  0.00    +0.000 OA
BRANCH  18  20
ATOM     20  O   UNL     1       1.418   4.132  19.622  0.00  0.00    +0.000 OA
BRANCH  20  22
ATOM     21  C   UNL     1       1.501   2.648  21.593  0.00  0.00    +0.000 C 
ATOM     22  C   UNL     1       0.835   2.989  20.266  0.00  0.00    +0.000 C 
ENDBRANCH  20  22
ENDBRANCH  18  20
ENDBRANCH   1  18
BRANCH   6  23
ATOM     23  C   UNL     1       5.798   6.827  17.441  0.00  0.00    +0.000 C 
ATOM     24  N   UNL     1       6.340   7.846  17.323  0.00  0.00    +0.000 NA
ENDBRANCH   6  23
TORSDOF 6
ENDMDL
MODEL 4
REMARK VINA RESULT:      -7.0      2.511      4.074
REMARK  Name = 
REMARK  8 active torsions:
REMARK  status: ('A' for Active; 'I' for Inactive)
REMARK    1  A    between atoms: C_1  and  C_2
REMARK    2  A    between atoms: C_2  and  O_3
REMARK    3  A    between atoms: O_3  and  C_4
REMARK    4  A    between atoms: C_4  and  C_6
REMARK    5  A    between atoms: C_7  and  C_8
REMARK    6  A    between atoms: C_10  and  N_11
REMARK    7  A    between atoms: C_12  and  C_13
REMARK    8  A    between atoms: C_15  and  C_16
REMARK                            x       y       z     vdW  Elec       q    Type
REMARK                         _______ _______ _______ _____ _____    ______ ____
ROOT
ATOM      1  C   UNL     1       4.650   5.260  17.364  0.00  0.00    +0.000 C 
ATOM      2  C   UNL     1       4.849   4.105  16.690  0.00  0.00    +0.000 C 
ATOM      3  C   UNL     1       5.808   3.842  15.562  0.00  0.00    +0.000 C 
ATOM      4  O   UNL     1       4.151   2.948  17.014  0.00  0.00    +0.000 OA
ATOM      5  C   UNL     1       3.043   2.996  17.846  0.00  0.00    +0.000 C 
ATOM      6  C   UNL     1       2.821   4.062  18.640  0.00  0.00    +0.000 C 
ATOM      7  C   UNL     1       3.728   5.290  18.578  0.00  0.00    +0.000 C 
ENDROOT
BRANCH   7   8
ATOM      8  C   UNL     1       2.926   6.589  18.725  0.00  0.00    +0.000 A 
ATOM      9  C   UNL     1       2.557   7.310  17.570  0.00  0.00    +0.000 A 
ATOM     10  C   UNL     1       1.794   8.475  17.672  0.00  0.00    +0.000 A 
ATOM     11  C   UNL     1       1.415   8.939  18.931  0.00  0.00    +0.000 A 
ATOM     12 CL   UNL     1       0.461  10.365  19.056  0.00  0.00    +0.000 Cl
ATOM     13  C   UNL     1       1.786   8.248  20.079  0.00  0.00    +0.000 A 
ATOM     14  C   UNL     1       2.533   7.072  19.982  0.00  0.00    +0.000 A 
ENDBRANCH   7   8
BRANCH   5  15
ATOM     15  N   UNL     1       2.258   1.875  17.751  0.00  0.00    +0.000 N 
ATOM     16  H   UNL     1       1.353   1.959  18.205  0.00  0.00    +0.000 HD
ATOM     17  H   UNL     1       2.262   1.358  16.876  0.00  0.00    +0.000 HD
ENDBRANCH   5  15
BRANCH   1  18
ATOM     18  C   UNL     1       5.317   6.512  16.906  0.00  0.00    +0.000 C 
ATOM     19  O   UNL     1       5.109   7.048  15.830  0.00  0.00    +0.000 OA
BRANCH  18  20
ATOM     20  O   UNL     1       6.152   6.991  17.859  0.00  0.00    +0.000 OA
BRANCH  20  22
ATOM     21  C   UNL     1       7.840   5.794  19.206  0.00  0.00    +0.000 C 
ATOM     22  C   UNL     1       7.477   6.435  17.873  0.00  0.00    +0.000 C 
ENDBRANCH  20  22
ENDBRANCH  18  20
ENDBRANCH   1  18
BRANCH   6  23
ATOM     23  C   UNL     1       1.715   4.060  19.541  0.00  0.00    +0.000 C 
ATOM     24  N   UNL     1       0.832   4.048  20.293  0.00  0.00    +0.000 NA
ENDBRANCH   6  23
TORSDOF 6
ENDMDL
MODEL 5
REMARK VINA RESULT:      -6.3      3.298      5.521
REMARK  Name = 
REMARK  8 active torsions:
REMARK  status: ('A' for Active; 'I' for Inactive)
REMARK    1  A    between atoms: C_1  and  C_2
REMARK    2  A    between atoms: C_2  and  O_3
REMARK    3  A    between atoms: O_3  and  C_4
REMARK    4  A    between atoms: C_4  and  C_6
REMARK    5  A    between atoms: C_7  and  C_8
REMARK    6  A    between atoms: C_10  and  N_11
REMARK    7  A    between atoms: C_12  and  C_13
REMARK    8  A    between atoms: C_15  and  C_16
REMARK                            x       y       z     vdW  Elec       q    Type
REMARK                         _______ _______ _______ _____ _____    ______ ____
ROOT
ATOM      1  C   UNL     1       2.475   6.150  19.057  0.00  0.00    +0.000 C 
ATOM      2  C   UNL     1       1.931   6.261  20.290  0.00  0.00    +0.000 C 
ATOM      3  C   UNL     1       1.424   7.503  20.972  0.00  0.00    +0.000 C 
ATOM      4  O   UNL     1       1.749   5.150  21.105  0.00  0.00    +0.000 OA
ATOM      5  C   UNL     1       2.358   3.942  20.805  0.00  0.00    +0.000 C 
ATOM      6  C   UNL     1       2.832   3.696  19.568  0.00  0.00    +0.000 C 
ATOM      7  C   UNL     1       2.800   4.774  18.486  0.00  0.00    +0.000 C 
ENDROOT
BRANCH   7   8
ATOM      8  C   UNL     1       4.067   4.738  17.620  0.00  0.00    +0.000 A 
ATOM      9  C   UNL     1       3.960   4.423  16.250  0.00  0.00    +0.000 A 
ATOM     10  C   UNL     1       5.091   4.420  15.431  0.00  0.00    +0.000 A 
ATOM     11  C   UNL     1       6.338   4.710  15.981  0.00  0.00    +0.000 A 
ATOM     12 CL   UNL     1       7.729   4.724  14.969  0.00  0.00    +0.000 Cl
ATOM     13  C   UNL     1       6.461   5.006  17.335  0.00  0.00    +0.000 A 
ATOM     14  C   UNL     1       5.331   5.028  18.155  0.00  0.00    +0.000 A 
ENDBRANCH   7   8
BRANCH   5  15
ATOM     15  N   UNL     1       2.403   3.089  21.878  0.00  0.00    +0.000 N 
ATOM     16  H   UNL     1       1.598   3.149  22.494  0.00  0.00    +0.000 HD
ATOM     17  H   UNL     1       2.773   2.154  21.733  0.00  0.00    +0.000 HD
ENDBRANCH   5  15
BRANCH   1  18
ATOM     18  C   UNL     1       2.776   7.374  18.264  0.00  0.00    +0.000 C 
ATOM     19  O   UNL     1       3.902   7.793  18.046  0.00  0.00    +0.000 OA
BRANCH  18  20
ATOM     20  O   UNL     1       1.638   7.934  17.788  0.00  0.00    +0.000 OA
BRANCH  20  22
ATOM     21  C   UNL     1       0.321   9.940  18.366  0.00  0.00    +0.000 C 
ATOM     22  C   UNL     1       1.601   9.370  17.770  0.00  0.00    +0.000 C 
ENDBRANCH  20  22
ENDBRANCH  18  20
ENDBRANCH   1  18
BRANCH   6  23
ATOM     23  C   UNL     1       3.388   2.418  19.261  0.00  0.00    +0.000 C 
ATOM     24  N   UNL     1       3.832   1.383  18.986  0.00  0.00    +0.000 NA
ENDBRANCH   6  23
TORSDOF 6
ENDMDL
MODEL 6
REMARK VINA RESULT:      -6.1      3.300      5.578
REMARK  Name = 
REMARK  8 active torsions:
REMARK  status: ('A' for Active; 'I' for Inactive)
REMARK    1  A    between atoms: C_1  and  C_2
REMARK    2  A    between atoms: C_2  and  O_3
REMARK    3  A    between atoms: O_3  and  C_4
REMARK    4  A    between atoms: C_4  and  C_6
REMARK    5  A    between atoms: C_7  and  C_8
REMARK    6  A    between atoms: C_10  and  N_11
REMARK    7  A    between atoms: C_12  and  C_13
REMARK    8  A    between atoms: C_15  and  C_16
REMARK                            x       y       z     vdW  Elec       q    Type
REMARK                         _______ _______ _______ _____ _____    ______ ____
ROOT
ATOM      1  C   UNL     1       2.406   6.252  19.065  0.00  0.00    +0.000 C 
ATOM      2  C   UNL     1       1.887   6.360  20.309  0.00  0.00    +0.000 C 
ATOM      3  C   UNL     1       1.393   7.600  21.003  0.00  0.00    +0.000 C 
ATOM      4  O   UNL     1       1.721   5.248  21.125  0.00  0.00    +0.000 OA
ATOM      5  C   UNL     1       2.324   4.040  20.810  0.00  0.00    +0.000 C 
ATOM      6  C   UNL     1       2.773   3.796  19.563  0.00  0.00    +0.000 C 
ATOM      7  C   UNL     1       2.720   4.877  18.484  0.00  0.00    +0.000 C 
ENDROOT
BRANCH   7   8
ATOM      8  C   UNL     1       3.969   4.843  17.594  0.00  0.00    +0.000 A 
ATOM      9  C   UNL     1       5.217   5.211  18.137  0.00  0.00    +0.000 A 
ATOM     10  C   UNL     1       6.376   5.153  17.360  0.00  0.00    +0.000 A 
ATOM     11  C   UNL     1       6.290   4.748  16.029  0.00  0.00    +0.000 A 
ATOM     12 CL   UNL     1       7.721   4.660  15.076  0.00  0.00    +0.000 Cl
ATOM     13  C   UNL     1       5.064   4.399  15.475  0.00  0.00    +0.000 A 
ATOM     14  C   UNL     1       3.904   4.438  16.252  0.00  0.00    +0.000 A 
ENDBRANCH   7   8
BRANCH   5  15
ATOM     15  N   UNL     1       2.390   3.184  21.880  0.00  0.00    +0.000 N 
ATOM     16  H   UNL     1       3.190   2.558  21.865  0.00  0.00    +0.000 HD
ATOM     17  H   UNL     1       2.129   3.539  22.796  0.00  0.00    +0.000 HD
ENDBRANCH   5  15
BRANCH   1  18
ATOM     18  C   UNL     1       2.691   7.478  18.269  0.00  0.00    +0.000 C 
ATOM     19  O   UNL     1       3.811   7.917  18.059  0.00  0.00    +0.000 OA
BRANCH  18  20
ATOM     20  O   UNL     1       1.548   8.014  17.780  0.00  0.00    +0.000 OA
BRANCH  20  22
ATOM     21  C   UNL     1       0.181   9.975  18.399  0.00  0.00    +0.000 C 
ATOM     22  C   UNL     1       1.471   9.449  17.784  0.00  0.00    +0.000 C 
ENDBRANCH  20  22
ENDBRANCH  18  20
ENDBRANCH   1  18
BRANCH   6  23
ATOM     23  C   UNL     1       3.323   2.520  19.242  0.00  0.00    +0.000 C 
ATOM     24  N   UNL     1       3.765   1.487  18.955  0.00  0.00    +0.000 NA
ENDBRANCH   6  23
TORSDOF 6
ENDMDL
MODEL 7
REMARK VINA RESULT:      -6.1      3.312      4.984
REMARK  Name = 
REMARK  8 active torsions:
REMARK  status: ('A' for Active; 'I' for Inactive)
REMARK    1  A    between atoms: C_1  and  C_2
REMARK    2  A    between atoms: C_2  and  O_3
REMARK    3  A    between atoms: O_3  and  C_4
REMARK    4  A    between atoms: C_4  and  C_6
REMARK    5  A    between atoms: C_7  and  C_8
REMARK    6  A    between atoms: C_10  and  N_11
REMARK    7  A    between atoms: C_12  and  C_13
REMARK    8  A    between atoms: C_15  and  C_16
REMARK                            x       y       z     vdW  Elec       q    Type
REMARK                         _______ _______ _______ _____ _____    ______ ____
ROOT
ATOM      1  C   UNL     1       3.659   3.378  20.091  0.00  0.00    +0.000 C 
ATOM      2  C   UNL     1       2.571   3.463  20.889  0.00  0.00    +0.000 C 
ATOM      3  C   UNL     1       1.938   2.376  21.714  0.00  0.00    +0.000 C 
ATOM      4  O   UNL     1       1.890   4.663  21.060  0.00  0.00    +0.000 OA
ATOM      5  C   UNL     1       2.127   5.740  20.222  0.00  0.00    +0.000 C 
ATOM      6  C   UNL     1       3.244   5.797  19.469  0.00  0.00    +0.000 C 
ATOM      7  C   UNL     1       4.234   4.633  19.443  0.00  0.00    +0.000 C 
ENDROOT
BRANCH   7   8
ATOM      8  C   UNL     1       4.801   4.409  18.035  0.00  0.00    +0.000 A 
ATOM      9  C   UNL     1       3.925   4.084  16.979  0.00  0.00    +0.000 A 
ATOM     10  C   UNL     1       4.408   3.911  15.681  0.00  0.00    +0.000 A 
ATOM     11  C   UNL     1       5.774   4.042  15.435  0.00  0.00    +0.000 A 
ATOM     12 CL   UNL     1       6.369   3.847  13.831  0.00  0.00    +0.000 Cl
ATOM     13  C   UNL     1       6.652   4.347  16.469  0.00  0.00    +0.000 A 
ATOM     14  C   UNL     1       6.172   4.538  17.766  0.00  0.00    +0.000 A 
ENDBRANCH   7   8
BRANCH   5  15
ATOM     15  N   UNL     1       1.129   6.679  20.267  0.00  0.00    +0.000 N 
ATOM     16  H   UNL     1       0.314   6.450  19.706  0.00  0.00    +0.000 HD
ATOM     17  H   UNL     1       0.934   7.131  21.156  0.00  0.00    +0.000 HD
ENDBRANCH   5  15
BRANCH   1  18
ATOM     18  C   UNL     1       4.286   2.052  19.827  0.00  0.00    +0.000 C 
ATOM     19  O   UNL     1       3.989   1.325  18.892  0.00  0.00    +0.000 OA
BRANCH  18  20
ATOM     20  O   UNL     1       5.250   1.783  20.739  0.00  0.00    +0.000 OA
BRANCH  20  22
ATOM     21  C   UNL     1       6.293   0.152  22.270  0.00  0.00    +0.000 C 
ATOM     22  C   UNL     1       5.520   0.393  20.981  0.00  0.00    +0.000 C 
ENDBRANCH  20  22
ENDBRANCH  18  20
ENDBRANCH   1  18
BRANCH   6  23
ATOM     23  C   UNL     1       3.504   6.949  18.668  0.00  0.00    +0.000 C 
ATOM     24  N   UNL     1       3.707   7.872  17.996  0.00  0.00    +0.000 NA
ENDBRANCH   6  23
TORSDOF 6
ENDMDL
MODEL 8
REMARK VINA RESULT:      -6.1      3.323      5.018
REMARK  Name = 
REMARK  8 active torsions:
REMARK  status: ('A' for Active; 'I' for Inactive)
REMARK    1  A    between atoms: C_1  and  C_2
REMARK    2  A    between atoms: C_2  and  O_3
REMARK    3  A    between atoms: O_3  and  C_4
REMARK    4  A    between atoms: C_4  and  C_6
REMARK    5  A    between atoms: C_7  and  C_8
REMARK    6  A    between atoms: C_10  and  N_11
REMARK    7  A    between atoms: C_12  and  C_13
REMARK    8  A    between atoms: C_15  and  C_16
REMARK                            x       y       z     vdW  Elec       q    Type
REMARK                         _______ _______ _______ _____ _____    ______ ____
ROOT
ATOM      1  C   UNL     1       3.610   3.391  20.109  0.00  0.00    +0.000 C 
ATOM      2  C   UNL     1       2.537   3.448  20.929  0.00  0.00    +0.000 C 
ATOM      3  C   UNL     1       1.943   2.343  21.759  0.00  0.00    +0.000 C 
ATOM      4  O   UNL     1       1.835   4.632  21.122  0.00  0.00    +0.000 OA
ATOM      5  C   UNL     1       2.033   5.720  20.286  0.00  0.00    +0.000 C 
ATOM      6  C   UNL     1       3.133   5.804  19.512  0.00  0.00    +0.000 C 
ATOM      7  C   UNL     1       4.146   4.662  19.459  0.00  0.00    +0.000 C 
ENDROOT
BRANCH   7   8
ATOM      8  C   UNL     1       4.689   4.458  18.038  0.00  0.00    +0.000 A 
ATOM      9  C   UNL     1       6.071   4.606  17.798  0.00  0.00    +0.000 A 
ATOM     10  C   UNL     1       6.598   4.390  16.523  0.00  0.00    +0.000 A 
ATOM     11  C   UNL     1       5.743   4.047  15.476  0.00  0.00    +0.000 A 
ATOM     12 CL   UNL     1       6.395   3.763  13.909  0.00  0.00    +0.000 Cl
ATOM     13  C   UNL     1       4.377   3.914  15.695  0.00  0.00    +0.000 A 
ATOM     14  C   UNL     1       3.846   4.111  16.972  0.00  0.00    +0.000 A 
ENDBRANCH   7   8
BRANCH   5  15
ATOM     15  N   UNL     1       1.017   6.638  20.358  0.00  0.00    +0.000 N 
ATOM     16  H   UNL     1       0.086   6.231  20.359  0.00  0.00    +0.000 HD
ATOM     17  H   UNL     1       1.141   7.446  20.961  0.00  0.00    +0.000 HD
ENDBRANCH   5  15
BRANCH   1  18
ATOM     18  C   UNL     1       4.258   2.079  19.823  0.00  0.00    +0.000 C 
ATOM     19  O   UNL     1       3.988   1.373  18.865  0.00  0.00    +0.000 OA
BRANCH  18  20
ATOM     20  O   UNL     1       5.208   1.799  20.746  0.00  0.00    +0.000 OA
BRANCH  20  22
ATOM     21  C   UNL     1       6.270   0.138  22.233  0.00  0.00    +0.000 C 
ATOM     22  C   UNL     1       5.505   0.407  20.944  0.00  0.00    +0.000 C 
ENDBRANCH  20  22
ENDBRANCH  18  20
ENDBRANCH   1  18
BRANCH   6  23
ATOM     23  C   UNL     1       3.354   6.967  18.715  0.00  0.00    +0.000 C 
ATOM     24  N   UNL     1       3.541   7.895  18.046  0.00  0.00    +0.000 NA
ENDBRANCH   6  23
TORSDOF 6
ENDMDL
MODEL 9
REMARK VINA RESULT:      -6.1      1.118      1.558
REMARK  Name = 
REMARK  8 active torsions:
REMARK  status: ('A' for Active; 'I' for Inactive)
REMARK    1  A    between atoms: C_1  and  C_2
REMARK    2  A    between atoms: C_2  and  O_3
REMARK    3  A    between atoms: O_3  and  C_4
REMARK    4  A    between atoms: C_4  and  C_6
REMARK    5  A    between atoms: C_7  and  C_8
REMARK    6  A    between atoms: C_10  and  N_11
REMARK    7  A    between atoms: C_12  and  C_13
REMARK    8  A    between atoms: C_15  and  C_16
REMARK                            x       y       z     vdW  Elec       q    Type
REMARK                         _______ _______ _______ _____ _____    ______ ____
ROOT
ATOM      1  C   UNL     1       3.401   4.283  19.355  0.00  0.00    +0.000 C 
ATOM      2  C   UNL     1       4.384   3.439  19.743  0.00  0.00    +0.000 C 
ATOM      3  C   UNL     1       4.269   2.219  20.615  0.00  0.00    +0.000 C 
ATOM      4  O   UNL     1       5.697   3.614  19.322  0.00  0.00    +0.000 OA
ATOM      5  C   UNL     1       6.099   4.796  18.720  0.00  0.00    +0.000 C 
ATOM      6  C   UNL     1       5.194   5.650  18.203  0.00  0.00    +0.000 C 
ATOM      7  C   UNL     1       3.695   5.390  18.348  0.00  0.00    +0.000 C 
ENDROOT
BRANCH   7   8
ATOM      8  C   UNL     1       2.921   6.690  18.601  0.00  0.00    +0.000 A 
ATOM      9  C   UNL     1       2.558   7.504  17.509  0.00  0.00    +0.000 A 
ATOM     10  C   UNL     1       1.821   8.673  17.706  0.00  0.00    +0.000 A 
ATOM     11  C   UNL     1       1.461   9.046  19.000  0.00  0.00    +0.000 A 
ATOM     12 CL   UNL     1       0.537  10.478  19.242  0.00  0.00    +0.000 Cl
ATOM     13  C   UNL     1       1.826   8.262  20.089  0.00  0.00    +0.000 A 
ATOM     14  C   UNL     1       2.548   7.083  19.895  0.00  0.00    +0.000 A 
ENDBRANCH   7   8
BRANCH   5  15
ATOM     15  N   UNL     1       7.460   4.959  18.725  0.00  0.00    +0.000 N 
ATOM     16  H   UNL     1       7.821   5.434  19.547  0.00  0.00    +0.000 HD
ATOM     17  H   UNL     1       8.037   4.201  18.370  0.00  0.00    +0.000 HD
ENDBRANCH   5  15
BRANCH   1  18
ATOM     18  C   UNL     1       2.033   4.144  19.929  0.00  0.00    +0.000 C 
ATOM     19  O   UNL     1       1.759   4.327  21.105  0.00  0.00    +0.000 OA
BRANCH  18  20
ATOM     20  O   UNL     1       1.135   3.828  18.967  0.00  0.00    +0.000 OA
BRANCH  20  22
ATOM     21  C   UNL     1       2.036   1.911  17.698  0.00  0.00    +0.000 C 
ATOM     22  C   UNL     1       0.989   2.428  18.676  0.00  0.00    +0.000 C 
ENDBRANCH  20  22
ENDBRANCH  18  20
ENDBRANCH   1  18
BRANCH   6  23
ATOM     23  C   UNL     1       5.632   6.825  17.523  0.00  0.00    +0.000 C 
ATOM     24  N   UNL     1       6.005   7.765  16.956  0.00  0.00    +0.000 NA
ENDBRANCH   6  23
TORSDOF 6
ENDMDL
