MODEL 1
REMARK VINA RESULT:      -8.9      0.000      0.000
REMARK  Name = 
REMARK  9 active torsions:
REMARK  status: ('A' for Active; 'I' for Inactive)
REMARK    1  A    between atoms: C_1  and  O_2
REMARK    2  A    between atoms: O_2  and  C_3
REMARK    3  A    between atoms: C_3  and  C_4
REMARK    4  A    between atoms: C_4  and  O_5
REMARK    5  A    between atoms: O_5  and  C_6
REMARK    6  A    between atoms: C_10  and  C_11
REMARK    7  A    between atoms: C_17  and  C_18
REMARK    8  A    between atoms: C_21  and  C_22
REMARK    9  A    between atoms: C_22  and  N_23
REMARK                            x       y       z     vdW  Elec       q    Type
REMARK                         _______ _______ _______ _____ _____    ______ ____
ROOT
ATOM      1  C   UNL     1       6.369   4.967  15.321  0.00  0.00    +0.000 A 
ATOM      2  C   UNL     1       5.894   3.682  15.874  0.00  0.00    +0.000 A 
ATOM      3  C   UNL     1       4.887   3.801  16.753  0.00  0.00    +0.000 A 
ATOM      4  N   UNL     1       4.378   5.065  17.065  0.00  0.00    +0.000 N 
ATOM      5  C   UNL     1       3.390   5.462  17.962  0.00  0.00    +0.000 A 
ATOM      6  C   UNL     1       3.340   6.848  17.804  0.00  0.00    +0.000 A 
ATOM      7  N   UNL     1       4.232   7.281  16.852  0.00  0.00    +0.000 NA
ATOM      8  C   UNL     1       4.866   6.212  16.435  0.00  0.00    +0.000 A 
ATOM      9  N   UNL     1       5.897   6.148  15.545  0.00  0.00    +0.000 NA
ENDROOT
BRANCH   5  10
ATOM     10  C   UNL     1       2.602   4.547  18.809  0.00  0.00    +0.000 A 
ATOM     11  C   UNL     1       1.482   3.867  18.309  0.00  0.00    +0.000 A 
ATOM     12  C   UNL     1       0.747   2.997  19.119  0.00  0.00    +0.000 A 
ATOM     13  C   UNL     1       1.159   2.744  20.425  0.00  0.00    +0.000 A 
ATOM     14  C   UNL     1       2.292   3.376  20.926  0.00  0.00    +0.000 A 
ATOM     15  C   UNL     1       2.988   4.293  20.134  0.00  0.00    +0.000 A 
ENDBRANCH   5  10
BRANCH   6  16
ATOM     16  C   UNL     1       2.456   7.783  18.475  0.00  0.00    +0.000 A 
ATOM     17  C   UNL     1       1.928   8.894  17.822  0.00  0.00    +0.000 A 
ATOM     18  C   UNL     1       1.225   9.867  18.536  0.00  0.00    +0.000 A 
ATOM     19  C   UNL     1       0.971   9.752  19.917  0.00  0.00    +0.000 A 
ATOM     20  C   UNL     1       1.407   8.561  20.522  0.00  0.00    +0.000 A 
ATOM     21  C   UNL     1       2.144   7.598  19.826  0.00  0.00    +0.000 A 
BRANCH  19  22
ATOM     22  C   UNL     1       0.222  10.888  20.710  0.00  0.00    +0.000 C 
ATOM     23  C   UNL     1       0.611  12.386  20.554  0.00  0.00    +0.000 C 
ATOM     24  C   UNL     1      -0.594  12.535  19.604  0.00  0.00    +0.000 C 
ATOM     25  C   UNL     1      -1.220  11.311  20.301  0.00  0.00    +0.000 C 
BRANCH  22  26
ATOM     26  N   UNL     1       0.209  10.571  22.140  0.00  0.00    +0.000 NA
ATOM     27  H   UNL     1       0.584  11.331  22.708  0.00  0.00    +0.000 HD
ATOM     28  H   UNL     1       0.792   9.766  22.366  0.00  0.00    +0.000 HD
ENDBRANCH  22  26
ENDBRANCH  19  22
ENDBRANCH   6  16
BRANCH   1  29
ATOM     29  O   UNL     1       7.466   4.739  14.559  0.00  0.00    +0.000 OA
BRANCH  29  30
ATOM     30  C   UNL     1       7.351   5.124  13.173  0.00  0.00    +0.000 C 
BRANCH  30  31
ATOM     31  C   UNL     1       7.089   3.891  12.305  0.00  0.00    +0.000 C 
BRANCH  31  33
ATOM     32  C   UNL     1       5.497   2.302  11.662  0.00  0.00    +0.000 C 
ATOM     33  O   UNL     1       5.706   3.557  12.301  0.00  0.00    +0.000 OA
ENDBRANCH  31  33
ENDBRANCH  30  31
ENDBRANCH  29  30
ENDBRANCH   1  29
TORSDOF 8
ENDMDL
MODEL 2
REMARK VINA RESULT:      -8.6      0.608      1.072
REMARK  Name = 
REMARK  9 active torsions:
REMARK  status: ('A' for Active; 'I' for Inactive)
REMARK    1  A    between atoms: C_1  and  O_2
REMARK    2  A    between atoms: O_2  and  C_3
REMARK    3  A    between atoms: C_3  and  C_4
REMARK    4  A    between atoms: C_4  and  O_5
REMARK    5  A    between atoms: O_5  and  C_6
REMARK    6  A    between atoms: C_10  and  C_11
REMARK    7  A    between atoms: C_17  and  C_18
REMARK    8  A    between atoms: C_21  and  C_22
REMARK    9  A    between atoms: C_22  and  N_23
REMARK                            x       y       z     vdW  Elec       q    Type
REMARK                         _______ _______ _______ _____ _____    ______ ____
ROOT
ATOM      1  C   UNL     1       6.358   4.884  15.573  0.00  0.00    +0.000 A 
ATOM      2  C   UNL     1       5.832   3.653  16.197  0.00  0.00    +0.000 A 
ATOM      3  C   UNL     1       4.820   3.860  17.054  0.00  0.00    +0.000 A 
ATOM      4  N   UNL     1       4.354   5.158  17.282  0.00  0.00    +0.000 N 
ATOM      5  C   UNL     1       3.371   5.643  18.141  0.00  0.00    +0.000 A 
ATOM      6  C   UNL     1       3.373   7.018  17.899  0.00  0.00    +0.000 A 
ATOM      7  N   UNL     1       4.289   7.360  16.934  0.00  0.00    +0.000 NA
ATOM      8  C   UNL     1       4.890   6.246  16.591  0.00  0.00    +0.000 A 
ATOM      9  N   UNL     1       5.926   6.092  15.719  0.00  0.00    +0.000 NA
ENDROOT
BRANCH   5  10
ATOM     10  C   UNL     1       2.542   4.810  19.032  0.00  0.00    +0.000 A 
ATOM     11  C   UNL     1       1.491   4.026  18.535  0.00  0.00    +0.000 A 
ATOM     12  C   UNL     1       0.716   3.235  19.388  0.00  0.00    +0.000 A 
ATOM     13  C   UNL     1       1.023   3.165  20.745  0.00  0.00    +0.000 A 
ATOM     14  C   UNL     1       2.089   3.902  21.250  0.00  0.00    +0.000 A 
ATOM     15  C   UNL     1       2.822   4.740  20.406  0.00  0.00    +0.000 A 
ENDBRANCH   5  10
BRANCH   6  16
ATOM     16  C   UNL     1       2.516   8.023  18.501  0.00  0.00    +0.000 A 
ATOM     17  C   UNL     1       2.020   7.888  19.796  0.00  0.00    +0.000 A 
ATOM     18  C   UNL     1       1.062   8.780  20.283  0.00  0.00    +0.000 A 
ATOM     19  C   UNL     1       0.595   9.872  19.526  0.00  0.00    +0.000 A 
ATOM     20  C   UNL     1       1.205  10.054  18.273  0.00  0.00    +0.000 A 
ATOM     21  C   UNL     1       2.137   9.148  17.760  0.00  0.00    +0.000 A 
BRANCH  19  22
ATOM     22  C   UNL     1      -0.526  10.832  20.078  0.00  0.00    +0.000 C 
ATOM     23  C   UNL     1      -0.422  12.377  19.931  0.00  0.00    +0.000 C 
ATOM     24  C   UNL     1      -1.391  12.265  18.736  0.00  0.00    +0.000 C 
ATOM     25  C   UNL     1      -1.895  10.942  19.344  0.00  0.00    +0.000 C 
BRANCH  22  26
ATOM     26  N   UNL     1      -0.792  10.529  21.485  0.00  0.00    +0.000 NA
ATOM     27  H   UNL     1      -0.186   9.789  21.843  0.00  0.00    +0.000 HD
ATOM     28  H   UNL     1      -1.739  10.183  21.638  0.00  0.00    +0.000 HD
ENDBRANCH  22  26
ENDBRANCH  19  22
ENDBRANCH   6  16
BRANCH   1  29
ATOM     29  O   UNL     1       7.454   4.572  14.840  0.00  0.00    +0.000 OA
BRANCH  29  30
ATOM     30  C   UNL     1       7.296   4.676  13.410  0.00  0.00    +0.000 C 
BRANCH  30  31
ATOM     31  C   UNL     1       6.229   3.692  12.925  0.00  0.00    +0.000 C 
BRANCH  31  33
ATOM     32  C   UNL     1       5.779   1.916  11.469  0.00  0.00    +0.000 C 
ATOM     33  O   UNL     1       6.685   2.968  11.787  0.00  0.00    +0.000 OA
ENDBRANCH  31  33
ENDBRANCH  30  31
ENDBRANCH  29  30
ENDBRANCH   1  29
TORSDOF 8
ENDMDL
MODEL 3
REMARK VINA RESULT:      -8.5      0.912      1.091
REMARK  Name = 
REMARK  9 active torsions:
REMARK  status: ('A' for Active; 'I' for Inactive)
REMARK    1  A    between atoms: C_1  and  O_2
REMARK    2  A    between atoms: O_2  and  C_3
REMARK    3  A    between atoms: C_3  and  C_4
REMARK    4  A    between atoms: C_4  and  O_5
REMARK    5  A    between atoms: O_5  and  C_6
REMARK    6  A    between atoms: C_10  and  C_11
REMARK    7  A    between atoms: C_17  and  C_18
REMARK    8  A    between atoms: C_21  and  C_22
REMARK    9  A    between atoms: C_22  and  N_23
REMARK                            x       y       z     vdW  Elec       q    Type
REMARK                         _______ _______ _______ _____ _____    ______ ____
ROOT
ATOM      1  C   UNL     1       6.360   5.314  15.754  0.00  0.00    +0.000 A 
ATOM      2  C   UNL     1       5.976   4.047  16.409  0.00  0.00    +0.000 A 
ATOM      3  C   UNL     1       4.919   4.152  17.229  0.00  0.00    +0.000 A 
ATOM      4  N   UNL     1       4.283   5.385  17.395  0.00  0.00    +0.000 N 
ATOM      5  C   UNL     1       3.219   5.769  18.207  0.00  0.00    +0.000 A 
ATOM      6  C   UNL     1       3.053   7.123  17.913  0.00  0.00    +0.000 A 
ATOM      7  N   UNL     1       3.949   7.548  16.961  0.00  0.00    +0.000 NA
ATOM      8  C   UNL     1       4.698   6.509  16.677  0.00  0.00    +0.000 A 
ATOM      9  N   UNL     1       5.773   6.460  15.841  0.00  0.00    +0.000 NA
ENDROOT
BRANCH   5  10
ATOM     10  C   UNL     1       2.475   4.867  19.106  0.00  0.00    +0.000 A 
ATOM     11  C   UNL     1       1.467   4.020  18.623  0.00  0.00    +0.000 A 
ATOM     12  C   UNL     1       0.773   3.164  19.484  0.00  0.00    +0.000 A 
ATOM     13  C   UNL     1       1.121   3.095  20.830  0.00  0.00    +0.000 A 
ATOM     14  C   UNL     1       2.148   3.896  21.319  0.00  0.00    +0.000 A 
ATOM     15  C   UNL     1       2.797   4.796  20.470  0.00  0.00    +0.000 A 
ENDBRANCH   5  10
BRANCH   6  16
ATOM     16  C   UNL     1       2.055   8.030  18.452  0.00  0.00    +0.000 A 
ATOM     17  C   UNL     1       1.276   8.839  17.629  0.00  0.00    +0.000 A 
ATOM     18  C   UNL     1       0.452   9.823  18.181  0.00  0.00    +0.000 A 
ATOM     19  C   UNL     1       0.327  10.008  19.571  0.00  0.00    +0.000 A 
ATOM     20  C   UNL     1       1.028   9.095  20.376  0.00  0.00    +0.000 A 
ATOM     21  C   UNL     1       1.885   8.132  19.836  0.00  0.00    +0.000 A 
BRANCH  19  22
ATOM     22  C   UNL     1      -0.569  11.160  20.167  0.00  0.00    +0.000 C 
ATOM     23  C   UNL     1      -1.095  11.112  21.629  0.00  0.00    +0.000 C 
ATOM     24  C   UNL     1       0.045  12.081  22.004  0.00  0.00    +0.000 C 
ATOM     25  C   UNL     1       0.063  12.536  20.532  0.00  0.00    +0.000 C 
BRANCH  22  26
ATOM     26  N   UNL     1      -1.710  11.410  19.284  0.00  0.00    +0.000 NA
ATOM     27  H   UNL     1      -1.423  11.775  18.375  0.00  0.00    +0.000 HD
ATOM     28  H   UNL     1      -2.346  12.113  19.657  0.00  0.00    +0.000 HD
ENDBRANCH  22  26
ENDBRANCH  19  22
ENDBRANCH   6  16
BRANCH   1  29
ATOM     29  O   UNL     1       7.510   5.121  15.064  0.00  0.00    +0.000 OA
BRANCH  29  30
ATOM     30  C   UNL     1       7.396   5.201  13.628  0.00  0.00    +0.000 C 
BRANCH  30  31
ATOM     31  C   UNL     1       7.054   3.826  13.049  0.00  0.00    +0.000 C 
BRANCH  31  33
ATOM     32  C   UNL     1       5.456   2.602  11.857  0.00  0.00    +0.000 C 
ATOM     33  O   UNL     1       5.696   3.776  12.625  0.00  0.00    +0.000 OA
ENDBRANCH  31  33
ENDBRANCH  30  31
ENDBRANCH  29  30
ENDBRANCH   1  29
TORSDOF 8
ENDMDL
MODEL 4
REMARK VINA RESULT:      -7.9      4.040      9.050
REMARK  Name = 
REMARK  9 active torsions:
REMARK  status: ('A' for Active; 'I' for Inactive)
REMARK    1  A    between atoms: C_1  and  O_2
REMARK    2  A    between atoms: O_2  and  C_3
REMARK    3  A    between atoms: C_3  and  C_4
REMARK    4  A    between atoms: C_4  and  O_5
REMARK    5  A    between atoms: O_5  and  C_6
REMARK    6  A    between atoms: C_10  and  C_11
REMARK    7  A    between atoms: C_17  and  C_18
REMARK    8  A    between atoms: C_21  and  C_22
REMARK    9  A    between atoms: C_22  and  N_23
REMARK                            x       y       z     vdW  Elec       q    Type
REMARK                         _______ _______ _______ _____ _____    ______ ____
ROOT
ATOM      1  C   UNL     1       0.168  10.105  21.067  0.00  0.00    +0.000 A 
ATOM      2  C   UNL     1      -0.232   8.981  21.938  0.00  0.00    +0.000 A 
ATOM      3  C   UNL     1       0.307   7.802  21.594  0.00  0.00    +0.000 A 
ATOM      4  N   UNL     1       1.167   7.720  20.497  0.00  0.00    +0.000 N 
ATOM      5  C   UNL     1       1.808   6.632  19.909  0.00  0.00    +0.000 A 
ATOM      6  C   UNL     1       2.528   7.203  18.858  0.00  0.00    +0.000 A 
ATOM      7  N   UNL     1       2.359   8.566  18.811  0.00  0.00    +0.000 NA
ATOM      8  C   UNL     1       1.523   8.863  19.776  0.00  0.00    +0.000 A 
ATOM      9  N   UNL     1       0.995  10.083  20.076  0.00  0.00    +0.000 NA
ENDROOT
BRANCH   5  10
ATOM     10  C   UNL     1       1.717   5.240  20.387  0.00  0.00    +0.000 A 
ATOM     11  C   UNL     1       2.519   4.773  21.439  0.00  0.00    +0.000 A 
ATOM     12  C   UNL     1       2.419   3.453  21.889  0.00  0.00    +0.000 A 
ATOM     13  C   UNL     1       1.469   2.597  21.337  0.00  0.00    +0.000 A 
ATOM     14  C   UNL     1       0.635   3.055  20.322  0.00  0.00    +0.000 A 
ATOM     15  C   UNL     1       0.780   4.356  19.832  0.00  0.00    +0.000 A 
ENDBRANCH   5  10
BRANCH   6  16
ATOM     16  C   UNL     1       3.411   6.529  17.923  0.00  0.00    +0.000 A 
ATOM     17  C   UNL     1       3.358   5.152  17.722  0.00  0.00    +0.000 A 
ATOM     18  C   UNL     1       4.331   4.512  16.951  0.00  0.00    +0.000 A 
ATOM     19  C   UNL     1       5.364   5.217  16.306  0.00  0.00    +0.000 A 
ATOM     20  C   UNL     1       5.318   6.617  16.424  0.00  0.00    +0.000 A 
ATOM     21  C   UNL     1       4.373   7.265  17.223  0.00  0.00    +0.000 A 
BRANCH  19  22
ATOM     22  C   UNL     1       6.481   4.466  15.485  0.00  0.00    +0.000 C 
ATOM     23  C   UNL     1       6.147   3.252  14.573  0.00  0.00    +0.000 C 
ATOM     24  C   UNL     1       6.201   4.219  13.373  0.00  0.00    +0.000 C 
ATOM     25  C   UNL     1       7.107   5.129  14.223  0.00  0.00    +0.000 C 
BRANCH  22  26
ATOM     26  N   UNL     1       7.574   4.074  16.377  0.00  0.00    +0.000 NA
ATOM     27  H   UNL     1       8.077   4.881  16.750  0.00  0.00    +0.000 HD
ATOM     28  H   UNL     1       8.287   3.522  15.902  0.00  0.00    +0.000 HD
ENDBRANCH  22  26
ENDBRANCH  19  22
ENDBRANCH   6  16
BRANCH   1  29
ATOM     29  O   UNL     1      -0.536  11.208  21.421  0.00  0.00    +0.000 OA
BRANCH  29  30
ATOM     30  C   UNL     1      -1.203  11.136  22.698  0.00  0.00    +0.000 C 
BRANCH  30  31
ATOM     31  C   UNL     1      -2.421  12.062  22.709  0.00  0.00    +0.000 C 
BRANCH  31  33
ATOM     32  C   UNL     1      -3.859  12.929  24.338  0.00  0.00    +0.000 C 
ATOM     33  O   UNL     1      -3.292  11.744  23.789  0.00  0.00    +0.000 OA
ENDBRANCH  31  33
ENDBRANCH  30  31
ENDBRANCH  29  30
ENDBRANCH   1  29
TORSDOF 8
ENDMDL
MODEL 5
REMARK VINA RESULT:      -7.8      0.892      1.465
REMARK  Name = 
REMARK  9 active torsions:
REMARK  status: ('A' for Active; 'I' for Inactive)
REMARK    1  A    between atoms: C_1  and  O_2
REMARK    2  A    between atoms: O_2  and  C_3
REMARK    3  A    between atoms: C_3  and  C_4
REMARK    4  A    between atoms: C_4  and  O_5
REMARK    5  A    between atoms: O_5  and  C_6
REMARK    6  A    between atoms: C_10  and  C_11
REMARK    7  A    between atoms: C_17  and  C_18
REMARK    8  A    between atoms: C_21  and  C_22
REMARK    9  A    between atoms: C_22  and  N_23
REMARK                            x       y       z     vdW  Elec       q    Type
REMARK                         _______ _______ _______ _____ _____    ______ ____
ROOT
ATOM      1  C   UNL     1       6.183   4.971  15.626  0.00  0.00    +0.000 A 
ATOM      2  C   UNL     1       5.732   3.697  16.222  0.00  0.00    +0.000 A 
ATOM      3  C   UNL     1       4.739   3.830  17.114  0.00  0.00    +0.000 A 
ATOM      4  N   UNL     1       4.221   5.096  17.399  0.00  0.00    +0.000 N 
ATOM      5  C   UNL     1       3.244   5.508  18.302  0.00  0.00    +0.000 A 
ATOM      6  C   UNL     1       3.177   6.888  18.107  0.00  0.00    +0.000 A 
ATOM      7  N   UNL     1       4.048   7.304  17.128  0.00  0.00    +0.000 NA
ATOM      8  C   UNL     1       4.687   6.230  16.730  0.00  0.00    +0.000 A 
ATOM      9  N   UNL     1       5.702   6.152  15.824  0.00  0.00    +0.000 NA
ENDROOT
BRANCH   5  10
ATOM     10  C   UNL     1       2.480   4.609  19.187  0.00  0.00    +0.000 A 
ATOM     11  C   UNL     1       2.790   4.486  20.550  0.00  0.00    +0.000 A 
ATOM     12  C   UNL     1       2.054   3.636  21.381  0.00  0.00    +0.000 A 
ATOM     13  C   UNL     1       0.955   2.946  20.877  0.00  0.00    +0.000 A 
ATOM     14  C   UNL     1       0.606   3.089  19.539  0.00  0.00    +0.000 A 
ATOM     15  C   UNL     1       1.381   3.890  18.695  0.00  0.00    +0.000 A 
ENDBRANCH   5  10
BRANCH   6  16
ATOM     16  C   UNL     1       2.294   7.833  18.767  0.00  0.00    +0.000 A 
ATOM     17  C   UNL     1       1.740   8.918  18.092  0.00  0.00    +0.000 A 
ATOM     18  C   UNL     1       1.039   9.903  18.790  0.00  0.00    +0.000 A 
ATOM     19  C   UNL     1       0.812   9.825  20.178  0.00  0.00    +0.000 A 
ATOM     20  C   UNL     1       1.274   8.658  20.810  0.00  0.00    +0.000 A 
ATOM     21  C   UNL     1       2.009   7.684  20.128  0.00  0.00    +0.000 A 
BRANCH  19  22
ATOM     22  C   UNL     1       0.064  10.976  20.952  0.00  0.00    +0.000 C 
ATOM     23  C   UNL     1       0.489  12.466  20.811  0.00  0.00    +0.000 C 
ATOM     24  C   UNL     1      -0.685  12.641  19.826  0.00  0.00    +0.000 C 
ATOM     25  C   UNL     1      -1.356  11.430  20.502  0.00  0.00    +0.000 C 
BRANCH  22  26
ATOM     26  N   UNL     1       0.002  10.657  22.379  0.00  0.00    +0.000 NA
ATOM     27  H   UNL     1       0.905  10.353  22.747  0.00  0.00    +0.000 HD
ATOM     28  H   UNL     1      -0.632   9.884  22.580  0.00  0.00    +0.000 HD
ENDBRANCH  22  26
ENDBRANCH  19  22
ENDBRANCH   6  16
BRANCH   1  29
ATOM     29  O   UNL     1       7.270   4.734  14.852  0.00  0.00    +0.000 OA
BRANCH  29  30
ATOM     30  C   UNL     1       7.037   3.916  13.686  0.00  0.00    +0.000 C 
BRANCH  30  31
ATOM     31  C   UNL     1       7.200   4.751  12.415  0.00  0.00    +0.000 C 
BRANCH  31  33
ATOM     32  C   UNL     1       8.302   6.562  11.424  0.00  0.00    +0.000 C 
ATOM     33  O   UNL     1       8.090   5.841  12.633  0.00  0.00    +0.000 OA
ENDBRANCH  31  33
ENDBRANCH  30  31
ENDBRANCH  29  30
ENDBRANCH   1  29
TORSDOF 8
ENDMDL
MODEL 6
REMARK VINA RESULT:      -7.6      3.995      8.993
REMARK  Name = 
REMARK  9 active torsions:
REMARK  status: ('A' for Active; 'I' for Inactive)
REMARK    1  A    between atoms: C_1  and  O_2
REMARK    2  A    between atoms: O_2  and  C_3
REMARK    3  A    between atoms: C_3  and  C_4
REMARK    4  A    between atoms: C_4  and  O_5
REMARK    5  A    between atoms: O_5  and  C_6
REMARK    6  A    between atoms: C_10  and  C_11
REMARK    7  A    between atoms: C_17  and  C_18
REMARK    8  A    between atoms: C_21  and  C_22
REMARK    9  A    between atoms: C_22  and  N_23
REMARK                            x       y       z     vdW  Elec       q    Type
REMARK                         _______ _______ _______ _____ _____    ______ ____
ROOT
ATOM      1  C   UNL     1       0.022  10.093  21.157  0.00  0.00    +0.000 A 
ATOM      2  C   UNL     1      -0.376   8.945  21.998  0.00  0.00    +0.000 A 
ATOM      3  C   UNL     1       0.184   7.780  21.638  0.00  0.00    +0.000 A 
ATOM      4  N   UNL     1       1.064   7.734  20.553  0.00  0.00    +0.000 N 
ATOM      5  C   UNL     1       1.729   6.668  19.954  0.00  0.00    +0.000 A 
ATOM      6  C   UNL     1       2.458   7.270  18.927  0.00  0.00    +0.000 A 
ATOM      7  N   UNL     1       2.271   8.632  18.906  0.00  0.00    +0.000 NA
ATOM      8  C   UNL     1       1.415   8.896  19.863  0.00  0.00    +0.000 A 
ATOM      9  N   UNL     1       0.866  10.103  20.180  0.00  0.00    +0.000 NA
ENDROOT
BRANCH   5  10
ATOM     10  C   UNL     1       1.649   5.265  20.400  0.00  0.00    +0.000 A 
ATOM     11  C   UNL     1       0.809   4.339  19.764  0.00  0.00    +0.000 A 
ATOM     12  C   UNL     1       0.748   3.009  20.192  0.00  0.00    +0.000 A 
ATOM     13  C   UNL     1       1.575   2.569  21.222  0.00  0.00    +0.000 A 
ATOM     14  C   UNL     1       2.446   3.461  21.836  0.00  0.00    +0.000 A 
ATOM     15  C   UNL     1       2.460   4.804  21.449  0.00  0.00    +0.000 A 
ENDBRANCH   5  10
BRANCH   6  16
ATOM     16  C   UNL     1       3.365   6.629  17.993  0.00  0.00    +0.000 A 
ATOM     17  C   UNL     1       3.253   5.280  17.665  0.00  0.00    +0.000 A 
ATOM     18  C   UNL     1       4.240   4.652  16.903  0.00  0.00    +0.000 A 
ATOM     19  C   UNL     1       5.352   5.348  16.390  0.00  0.00    +0.000 A 
ATOM     20  C   UNL     1       5.373   6.732  16.631  0.00  0.00    +0.000 A 
ATOM     21  C   UNL     1       4.411   7.364  17.424  0.00  0.00    +0.000 A 
BRANCH  19  22
ATOM     22  C   UNL     1       6.480   4.605  15.578  0.00  0.00    +0.000 C 
ATOM     23  C   UNL     1       6.239   3.211  14.933  0.00  0.00    +0.000 C 
ATOM     24  C   UNL     1       6.031   3.938  13.589  0.00  0.00    +0.000 C 
ATOM     25  C   UNL     1       6.874   5.098  14.153  0.00  0.00    +0.000 C 
BRANCH  22  26
ATOM     26  N   UNL     1       7.702   4.528  16.381  0.00  0.00    +0.000 NA
ATOM     27  H   UNL     1       7.816   3.615  16.824  0.00  0.00    +0.000 HD
ATOM     28  H   UNL     1       7.704   5.193  17.153  0.00  0.00    +0.000 HD
ENDBRANCH  22  26
ENDBRANCH  19  22
ENDBRANCH   6  16
BRANCH   1  29
ATOM     29  O   UNL     1      -0.702  11.178  21.523  0.00  0.00    +0.000 OA
BRANCH  29  30
ATOM     30  C   UNL     1      -1.093  11.226  22.911  0.00  0.00    +0.000 C 
BRANCH  30  31
ATOM     31  C   UNL     1      -2.321  12.123  23.082  0.00  0.00    +0.000 C 
BRANCH  31  33
ATOM     32  C   UNL     1      -2.254  14.263  24.027  0.00  0.00    +0.000 C 
ATOM     33  O   UNL     1      -1.988  13.489  22.861  0.00  0.00    +0.000 OA
ENDBRANCH  31  33
ENDBRANCH  30  31
ENDBRANCH  29  30
ENDBRANCH   1  29
TORSDOF 8
ENDMDL
MODEL 7
REMARK VINA RESULT:      -7.5      3.808      8.689
REMARK  Name = 
REMARK  9 active torsions:
REMARK  status: ('A' for Active; 'I' for Inactive)
REMARK    1  A    between atoms: C_1  and  O_2
REMARK    2  A    between atoms: O_2  and  C_3
REMARK    3  A    between atoms: C_3  and  C_4
REMARK    4  A    between atoms: C_4  and  O_5
REMARK    5  A    between atoms: O_5  and  C_6
REMARK    6  A    between atoms: C_10  and  C_11
REMARK    7  A    between atoms: C_17  and  C_18
REMARK    8  A    between atoms: C_21  and  C_22
REMARK    9  A    between atoms: C_22  and  N_23
REMARK                            x       y       z     vdW  Elec       q    Type
REMARK                         _______ _______ _______ _____ _____    ______ ____
ROOT
ATOM      1  C   UNL     1       0.022  10.067  21.055  0.00  0.00    +0.000 A 
ATOM      2  C   UNL     1      -0.357   8.933  21.922  0.00  0.00    +0.000 A 
ATOM      3  C   UNL     1       0.214   7.768  21.581  0.00  0.00    +0.000 A 
ATOM      4  N   UNL     1       1.085   7.709  20.491  0.00  0.00    +0.000 N 
ATOM      5  C   UNL     1       1.758   6.638  19.908  0.00  0.00    +0.000 A 
ATOM      6  C   UNL     1       2.472   7.228  18.864  0.00  0.00    +0.000 A 
ATOM      7  N   UNL     1       2.269   8.586  18.815  0.00  0.00    +0.000 NA
ATOM      8  C   UNL     1       1.418   8.861  19.774  0.00  0.00    +0.000 A 
ATOM      9  N   UNL     1       0.857  10.067  20.071  0.00  0.00    +0.000 NA
ENDROOT
BRANCH   5  10
ATOM     10  C   UNL     1       1.699   5.244  20.384  0.00  0.00    +0.000 A 
ATOM     11  C   UNL     1       2.527   4.787  21.419  0.00  0.00    +0.000 A 
ATOM     12  C   UNL     1       2.457   3.464  21.868  0.00  0.00    +0.000 A 
ATOM     13  C   UNL     1       1.510   2.595  21.332  0.00  0.00    +0.000 A 
ATOM     14  C   UNL     1       0.650   3.042  20.335  0.00  0.00    +0.000 A 
ATOM     15  C   UNL     1       0.765   4.346  19.845  0.00  0.00    +0.000 A 
ENDBRANCH   5  10
BRANCH   6  16
ATOM     16  C   UNL     1       3.380   6.578  17.935  0.00  0.00    +0.000 A 
ATOM     17  C   UNL     1       3.347   5.203  17.715  0.00  0.00    +0.000 A 
ATOM     18  C   UNL     1       4.341   4.585  16.953  0.00  0.00    +0.000 A 
ATOM     19  C   UNL     1       5.377   5.311  16.335  0.00  0.00    +0.000 A 
ATOM     20  C   UNL     1       5.312   6.708  16.472  0.00  0.00    +0.000 A 
ATOM     21  C   UNL     1       4.345   7.334  17.262  0.00  0.00    +0.000 A 
BRANCH  19  22
ATOM     22  C   UNL     1       6.517   4.584  15.525  0.00  0.00    +0.000 C 
ATOM     23  C   UNL     1       6.270   3.229  14.803  0.00  0.00    +0.000 C 
ATOM     24  C   UNL     1       6.124   4.026  13.492  0.00  0.00    +0.000 C 
ATOM     25  C   UNL     1       6.971   5.137  14.141  0.00  0.00    +0.000 C 
BRANCH  22  26
ATOM     26  N   UNL     1       7.708   4.440  16.364  0.00  0.00    +0.000 NA
ATOM     27  H   UNL     1       7.763   3.520  16.803  0.00  0.00    +0.000 HD
ATOM     28  H   UNL     1       7.721   5.099  17.141  0.00  0.00    +0.000 HD
ENDBRANCH  22  26
ENDBRANCH  19  22
ENDBRANCH   6  16
BRANCH   1  29
ATOM     29  O   UNL     1      -0.713  11.151  21.404  0.00  0.00    +0.000 OA
BRANCH  29  30
ATOM     30  C   UNL     1      -0.785  12.199  20.414  0.00  0.00    +0.000 C 
BRANCH  30  31
ATOM     31  C   UNL     1      -2.223  12.353  19.914  0.00  0.00    +0.000 C 
BRANCH  31  33
ATOM     32  C   UNL     1      -4.424  12.884  20.504  0.00  0.00    +0.000 C 
ATOM     33  O   UNL     1      -3.106  12.651  20.990  0.00  0.00    +0.000 OA
ENDBRANCH  31  33
ENDBRANCH  30  31
ENDBRANCH  29  30
ENDBRANCH   1  29
TORSDOF 8
ENDMDL
MODEL 8
REMARK VINA RESULT:      -7.4      1.154      1.559
REMARK  Name = 
REMARK  9 active torsions:
REMARK  status: ('A' for Active; 'I' for Inactive)
REMARK    1  A    between atoms: C_1  and  O_2
REMARK    2  A    between atoms: O_2  and  C_3
REMARK    3  A    between atoms: C_3  and  C_4
REMARK    4  A    between atoms: C_4  and  O_5
REMARK    5  A    between atoms: O_5  and  C_6
REMARK    6  A    between atoms: C_10  and  C_11
REMARK    7  A    between atoms: C_17  and  C_18
REMARK    8  A    between atoms: C_21  and  C_22
REMARK    9  A    between atoms: C_22  and  N_23
REMARK                            x       y       z     vdW  Elec       q    Type
REMARK                         _______ _______ _______ _____ _____    ______ ____
ROOT
ATOM      1  C   UNL     1       6.171   5.230  15.604  0.00  0.00    +0.000 A 
ATOM      2  C   UNL     1       5.776   3.971  16.270  0.00  0.00    +0.000 A 
ATOM      3  C   UNL     1       4.757   4.103  17.132  0.00  0.00    +0.000 A 
ATOM      4  N   UNL     1       4.164   5.353  17.328  0.00  0.00    +0.000 N 
ATOM      5  C   UNL     1       3.145   5.763  18.183  0.00  0.00    +0.000 A 
ATOM      6  C   UNL     1       3.007   7.123  17.901  0.00  0.00    +0.000 A 
ATOM      7  N   UNL     1       3.876   7.526  16.915  0.00  0.00    +0.000 NA
ATOM      8  C   UNL     1       4.582   6.468  16.598  0.00  0.00    +0.000 A 
ATOM      9  N   UNL     1       5.621   6.392  15.719  0.00  0.00    +0.000 NA
ENDROOT
BRANCH   5  10
ATOM     10  C   UNL     1       2.411   4.879  19.108  0.00  0.00    +0.000 A 
ATOM     11  C   UNL     1       1.405   4.015  18.652  0.00  0.00    +0.000 A 
ATOM     12  C   UNL     1       0.721   3.176  19.537  0.00  0.00    +0.000 A 
ATOM     13  C   UNL     1       1.078   3.141  20.882  0.00  0.00    +0.000 A 
ATOM     14  C   UNL     1       2.103   3.959  21.345  0.00  0.00    +0.000 A 
ATOM     15  C   UNL     1       2.743   4.842  20.471  0.00  0.00    +0.000 A 
ENDBRANCH   5  10
BRANCH   6  16
ATOM     16  C   UNL     1       2.058   8.056  18.482  0.00  0.00    +0.000 A 
ATOM     17  C   UNL     1       1.331   8.950  17.700  0.00  0.00    +0.000 A 
ATOM     18  C   UNL     1       0.560   9.949  18.299  0.00  0.00    +0.000 A 
ATOM     19  C   UNL     1       0.435  10.068  19.697  0.00  0.00    +0.000 A 
ATOM     20  C   UNL     1       1.079   9.075  20.456  0.00  0.00    +0.000 A 
ATOM     21  C   UNL     1       1.883   8.095  19.870  0.00  0.00    +0.000 A 
BRANCH  19  22
ATOM     22  C   UNL     1      -0.398  11.236  20.349  0.00  0.00    +0.000 C 
ATOM     23  C   UNL     1      -0.329  11.536  21.873  0.00  0.00    +0.000 C 
ATOM     24  C   UNL     1       0.640  12.687  21.538  0.00  0.00    +0.000 C 
ATOM     25  C   UNL     1       0.023  12.719  20.127  0.00  0.00    +0.000 C 
BRANCH  22  26
ATOM     26  N   UNL     1      -1.808  11.108  19.976  0.00  0.00    +0.000 NA
ATOM     27  H   UNL     1      -2.399  10.869  20.773  0.00  0.00    +0.000 HD
ATOM     28  H   UNL     1      -1.968  10.360  19.302  0.00  0.00    +0.000 HD
ENDBRANCH  22  26
ENDBRANCH  19  22
ENDBRANCH   6  16
BRANCH   1  29
ATOM     29  O   UNL     1       7.287   5.007  14.869  0.00  0.00    +0.000 OA
BRANCH  29  30
ATOM     30  C   UNL     1       7.122   4.119  13.743  0.00  0.00    +0.000 C 
BRANCH  30  31
ATOM     31  C   UNL     1       7.660   4.776  12.471  0.00  0.00    +0.000 C 
BRANCH  31  33
ATOM     32  C   UNL     1       9.554   6.114  12.782  0.00  0.00    +0.000 C 
ATOM     33  O   UNL     1       8.131   6.092  12.738  0.00  0.00    +0.000 OA
ENDBRANCH  31  33
ENDBRANCH  30  31
ENDBRANCH  29  30
ENDBRANCH   1  29
TORSDOF 8
ENDMDL
MODEL 9
REMARK VINA RESULT:      -7.4      3.606      8.476
REMARK  Name = 
REMARK  9 active torsions:
REMARK  status: ('A' for Active; 'I' for Inactive)
REMARK    1  A    between atoms: C_1  and  O_2
REMARK    2  A    between atoms: O_2  and  C_3
REMARK    3  A    between atoms: C_3  and  C_4
REMARK    4  A    between atoms: C_4  and  O_5
REMARK    5  A    between atoms: O_5  and  C_6
REMARK    6  A    between atoms: C_10  and  C_11
REMARK    7  A    between atoms: C_17  and  C_18
REMARK    8  A    between atoms: C_21  and  C_22
REMARK    9  A    between atoms: C_22  and  N_23
REMARK                            x       y       z     vdW  Elec       q    Type
REMARK                         _______ _______ _______ _____ _____    ______ ____
ROOT
ATOM      1  C   UNL     1       0.099  10.033  21.022  0.00  0.00    +0.000 A 
ATOM      2  C   UNL     1      -0.292   8.899  21.885  0.00  0.00    +0.000 A 
ATOM      3  C   UNL     1       0.269   7.730  21.541  0.00  0.00    +0.000 A 
ATOM      4  N   UNL     1       1.142   7.667  20.452  0.00  0.00    +0.000 N 
ATOM      5  C   UNL     1       1.805   6.592  19.866  0.00  0.00    +0.000 A 
ATOM      6  C   UNL     1       2.527   7.179  18.826  0.00  0.00    +0.000 A 
ATOM      7  N   UNL     1       2.337   8.539  18.782  0.00  0.00    +0.000 NA
ATOM      8  C   UNL     1       1.486   8.818  19.740  0.00  0.00    +0.000 A 
ATOM      9  N   UNL     1       0.936  10.029  20.040  0.00  0.00    +0.000 NA
ENDROOT
BRANCH   5  10
ATOM     10  C   UNL     1       1.732   5.197  20.337  0.00  0.00    +0.000 A 
ATOM     11  C   UNL     1       2.524   4.740  21.401  0.00  0.00    +0.000 A 
ATOM     12  C   UNL     1       2.441   3.416  21.844  0.00  0.00    +0.000 A 
ATOM     13  C   UNL     1       1.517   2.546  21.272  0.00  0.00    +0.000 A 
ATOM     14  C   UNL     1       0.692   2.992  20.245  0.00  0.00    +0.000 A 
ATOM     15  C   UNL     1       0.821   4.298  19.762  0.00  0.00    +0.000 A 
ENDBRANCH   5  10
BRANCH   6  16
ATOM     16  C   UNL     1       3.430   6.524  17.896  0.00  0.00    +0.000 A 
ATOM     17  C   UNL     1       3.521   5.137  17.812  0.00  0.00    +0.000 A 
ATOM     18  C   UNL     1       4.518   4.539  17.038  0.00  0.00    +0.000 A 
ATOM     19  C   UNL     1       5.432   5.291  16.276  0.00  0.00    +0.000 A 
ATOM     20  C   UNL     1       5.237   6.682  16.282  0.00  0.00    +0.000 A 
ATOM     21  C   UNL     1       4.267   7.294  17.081  0.00  0.00    +0.000 A 
BRANCH  19  22
ATOM     22  C   UNL     1       6.582   4.594  15.453  0.00  0.00    +0.000 C 
ATOM     23  C   UNL     1       6.328   3.298  14.631  0.00  0.00    +0.000 C 
ATOM     24  C   UNL     1       6.245   4.188  13.374  0.00  0.00    +0.000 C 
ATOM     25  C   UNL     1       7.094   5.230  14.127  0.00  0.00    +0.000 C 
BRANCH  22  26
ATOM     26  N   UNL     1       7.740   4.361  16.317  0.00  0.00    +0.000 NA
ATOM     27  H   UNL     1       7.811   5.053  17.064  0.00  0.00    +0.000 HD
ATOM     28  H   UNL     1       8.624   4.432  15.814  0.00  0.00    +0.000 HD
ENDBRANCH  22  26
ENDBRANCH  19  22
ENDBRANCH   6  16
BRANCH   1  29
ATOM     29  O   UNL     1      -0.626  11.123  21.374  0.00  0.00    +0.000 OA
BRANCH  29  30
ATOM     30  C   UNL     1      -1.474  11.665  20.341  0.00  0.00    +0.000 C 
BRANCH  30  31
ATOM     31  C   UNL     1      -1.030  13.086  19.987  0.00  0.00    +0.000 C 
BRANCH  31  33
ATOM     32  C   UNL     1       1.192  13.787  19.772  0.00  0.00    +0.000 C 
ATOM     33  O   UNL     1       0.159  13.437  20.687  0.00  0.00    +0.000 OA
ENDBRANCH  31  33
ENDBRANCH  30  31
ENDBRANCH  29  30
ENDBRANCH   1  29
TORSDOF 8
ENDMDL
