MODEL 1
REMARK VINA RESULT:      -7.9      0.000      0.000
REMARK  Name = 
REMARK  6 active torsions:
REMARK  status: ('A' for Active; 'I' for Inactive)
REMARK    1  A    between atoms: C_1  and  N_2
REMARK    2  A    between atoms: N_2  and  C_3
REMARK    3  A    between atoms: N_2  and  C_4
REMARK    4  A    between atoms: C_4  and  C_5
REMARK    5  A    between atoms: C_5  and  S_6
REMARK    6  A    between atoms: S_6  and  C_7
REMARK                            x       y       z     vdW  Elec       q    Type
REMARK                         _______ _______ _______ _____ _____    ______ ____
ROOT
ATOM      1  C   UNL     1       3.050   5.384  19.966  0.00  0.00    +0.000 C 
ATOM      2  C   UNL     1       4.283   4.904  19.716  0.00  0.00    +0.000 C 
ATOM      3  C   UNL     1       5.314   5.578  18.917  0.00  0.00    +0.000 A 
ATOM      4  C   UNL     1       6.657   5.439  19.293  0.00  0.00    +0.000 A 
ATOM      5  C   UNL     1       7.670   6.041  18.541  0.00  0.00    +0.000 A 
ATOM      6  C   UNL     1       7.354   6.766  17.393  0.00  0.00    +0.000 A 
ATOM      7  C   UNL     1       6.023   6.895  16.998  0.00  0.00    +0.000 A 
ATOM      8  C   UNL     1       5.011   6.317  17.768  0.00  0.00    +0.000 A 
ATOM      9  O   UNL     1       3.715   6.470  17.325  0.00  0.00    +0.000 OA
ATOM     10  C   UNL     1       2.913   7.181  18.195  0.00  0.00    +0.000 A 
ATOM     11  C   UNL     1       2.428   8.403  17.713  0.00  0.00    +0.000 A 
ATOM     12  C   UNL     1       1.631   9.203  18.526  0.00  0.00    +0.000 A 
ATOM     13  C   UNL     1       1.319   8.772  19.812  0.00  0.00    +0.000 A 
ATOM     14 CL   UNL     1       0.347   9.764  20.829  0.00  0.00    +0.000 Cl
ATOM     15  C   UNL     1       1.785   7.542  20.286  0.00  0.00    +0.000 A 
ATOM     16  C   UNL     1       2.578   6.707  19.478  0.00  0.00    +0.000 A 
ENDROOT
BRANCH   1  17
ATOM     17  S   UNL     1       2.011   4.452  21.016  0.00  0.00    +0.000 S 
BRANCH  17  18
ATOM     18  C   UNL     1       2.379   2.749  20.474  0.00  0.00    +0.000 C 
BRANCH  18  19
ATOM     19  C   UNL     1       1.513   2.402  19.249  0.00  0.00    +0.000 C 
BRANCH  19  21
ATOM     20  C   UNL     1       2.422   3.216  17.173  0.00  0.00    +0.000 C 
ATOM     21  N   UNL     1       2.280   2.038  18.036  0.00  0.00    +0.000 NA
ATOM     22  C   UNL     1       3.607   1.507  18.357  0.00  0.00    +0.000 C 
ENDBRANCH  19  21
ENDBRANCH  18  19
ENDBRANCH  17  18
ENDBRANCH   1  17
TORSDOF 4
ENDMDL
MODEL 2
REMARK VINA RESULT:      -7.6      2.423      5.004
REMARK  Name = 
REMARK  6 active torsions:
REMARK  status: ('A' for Active; 'I' for Inactive)
REMARK    1  A    between atoms: C_1  and  N_2
REMARK    2  A    between atoms: N_2  and  C_3
REMARK    3  A    between atoms: N_2  and  C_4
REMARK    4  A    between atoms: C_4  and  C_5
REMARK    5  A    between atoms: C_5  and  S_6
REMARK    6  A    between atoms: S_6  and  C_7
REMARK                            x       y       z     vdW  Elec       q    Type
REMARK                         _______ _______ _______ _____ _____    ______ ____
ROOT
ATOM      1  C   UNL     1       3.460   6.413  17.779  0.00  0.00    +0.000 C 
ATOM      2  C   UNL     1       3.331   5.073  17.738  0.00  0.00    +0.000 C 
ATOM      3  C   UNL     1       2.385   4.284  18.535  0.00  0.00    +0.000 A 
ATOM      4  C   UNL     1       1.810   3.140  17.964  0.00  0.00    +0.000 A 
ATOM      5  C   UNL     1       0.927   2.346  18.701  0.00  0.00    +0.000 A 
ATOM      6  C   UNL     1       0.630   2.670  20.024  0.00  0.00    +0.000 A 
ATOM      7  C   UNL     1       1.212   3.794  20.610  0.00  0.00    +0.000 A 
ATOM      8  C   UNL     1       2.070   4.603  19.861  0.00  0.00    +0.000 A 
ATOM      9  O   UNL     1       2.621   5.695  20.494  0.00  0.00    +0.000 OA
ATOM     10  C   UNL     1       2.247   6.903  19.941  0.00  0.00    +0.000 A 
ATOM     11  C   UNL     1       1.494   7.744  20.769  0.00  0.00    +0.000 A 
ATOM     12  C   UNL     1       1.050   8.973  20.291  0.00  0.00    +0.000 A 
ATOM     13  C   UNL     1       1.367   9.355  18.991  0.00  0.00    +0.000 A 
ATOM     14 CL   UNL     1       0.807  10.867  18.387  0.00  0.00    +0.000 Cl
ATOM     15  C   UNL     1       2.138   8.525  18.171  0.00  0.00    +0.000 A 
ATOM     16  C   UNL     1       2.613   7.285  18.636  0.00  0.00    +0.000 A 
ENDROOT
BRANCH   1  17
ATOM     17  S   UNL     1       4.593   7.157  16.677  0.00  0.00    +0.000 S 
BRANCH  17  18
ATOM     18  C   UNL     1       5.605   5.723  16.175  0.00  0.00    +0.000 C 
BRANCH  18  19
ATOM     19  C   UNL     1       7.038   5.895  16.712  0.00  0.00    +0.000 C 
BRANCH  19  21
ATOM     20  C   UNL     1       7.754   5.921  19.011  0.00  0.00    +0.000 C 
ATOM     21  N   UNL     1       7.140   6.715  17.942  0.00  0.00    +0.000 NA
ATOM     22  C   UNL     1       7.923   7.936  17.731  0.00  0.00    +0.000 C 
ENDBRANCH  19  21
ENDBRANCH  18  19
ENDBRANCH  17  18
ENDBRANCH   1  17
TORSDOF 4
ENDMDL
MODEL 3
REMARK VINA RESULT:      -7.5      2.374      4.778
REMARK  Name = 
REMARK  6 active torsions:
REMARK  status: ('A' for Active; 'I' for Inactive)
REMARK    1  A    between atoms: C_1  and  N_2
REMARK    2  A    between atoms: N_2  and  C_3
REMARK    3  A    between atoms: N_2  and  C_4
REMARK    4  A    between atoms: C_4  and  C_5
REMARK    5  A    between atoms: C_5  and  S_6
REMARK    6  A    between atoms: S_6  and  C_7
REMARK                            x       y       z     vdW  Elec       q    Type
REMARK                         _______ _______ _______ _____ _____    ______ ____
ROOT
ATOM      1  C   UNL     1       3.440   6.495  17.780  0.00  0.00    +0.000 C 
ATOM      2  C   UNL     1       3.323   5.154  17.733  0.00  0.00    +0.000 C 
ATOM      3  C   UNL     1       2.384   4.352  18.526  0.00  0.00    +0.000 A 
ATOM      4  C   UNL     1       1.818   3.207  17.949  0.00  0.00    +0.000 A 
ATOM      5  C   UNL     1       0.942   2.402  18.681  0.00  0.00    +0.000 A 
ATOM      6  C   UNL     1       0.642   2.717  20.006  0.00  0.00    +0.000 A 
ATOM      7  C   UNL     1       1.213   3.843  20.597  0.00  0.00    +0.000 A 
ATOM      8  C   UNL     1       2.065   4.663  19.853  0.00  0.00    +0.000 A 
ATOM      9  O   UNL     1       2.606   5.757  20.492  0.00  0.00    +0.000 OA
ATOM     10  C   UNL     1       2.222   6.963  19.943  0.00  0.00    +0.000 A 
ATOM     11  C   UNL     1       1.462   7.795  20.775  0.00  0.00    +0.000 A 
ATOM     12  C   UNL     1       1.008   9.022  20.302  0.00  0.00    +0.000 A 
ATOM     13  C   UNL     1       1.323   9.413  19.004  0.00  0.00    +0.000 A 
ATOM     14 CL   UNL     1       0.750  10.922  18.408  0.00  0.00    +0.000 Cl
ATOM     15  C   UNL     1       2.100   8.593  18.182  0.00  0.00    +0.000 A 
ATOM     16  C   UNL     1       2.586   7.355  18.641  0.00  0.00    +0.000 A 
ENDROOT
BRANCH   1  17
ATOM     17  S   UNL     1       4.568   7.253  16.683  0.00  0.00    +0.000 S 
BRANCH  17  18
ATOM     18  C   UNL     1       6.168   6.816  17.446  0.00  0.00    +0.000 C 
BRANCH  18  19
ATOM     19  C   UNL     1       7.144   6.345  16.354  0.00  0.00    +0.000 C 
BRANCH  19  21
ATOM     20  C   UNL     1       7.650   4.510  17.830  0.00  0.00    +0.000 C 
ATOM     21  N   UNL     1       7.503   4.909  16.426  0.00  0.00    +0.000 NA
ATOM     22  C   UNL     1       6.504   4.055  15.778  0.00  0.00    +0.000 C 
ENDBRANCH  19  21
ENDBRANCH  18  19
ENDBRANCH  17  18
ENDBRANCH   1  17
TORSDOF 4
ENDMDL
MODEL 4
REMARK VINA RESULT:      -7.1      2.837      4.910
REMARK  Name = 
REMARK  6 active torsions:
REMARK  status: ('A' for Active; 'I' for Inactive)
REMARK    1  A    between atoms: C_1  and  N_2
REMARK    2  A    between atoms: N_2  and  C_3
REMARK    3  A    between atoms: N_2  and  C_4
REMARK    4  A    between atoms: C_4  and  C_5
REMARK    5  A    between atoms: C_5  and  S_6
REMARK    6  A    between atoms: S_6  and  C_7
REMARK                            x       y       z     vdW  Elec       q    Type
REMARK                         _______ _______ _______ _____ _____    ______ ____
ROOT
ATOM      1  C   UNL     1       3.813   5.996  17.644  0.00  0.00    +0.000 C 
ATOM      2  C   UNL     1       3.592   4.668  17.694  0.00  0.00    +0.000 C 
ATOM      3  C   UNL     1       2.545   4.009  18.484  0.00  0.00    +0.000 A 
ATOM      4  C   UNL     1       1.925   2.865  17.962  0.00  0.00    +0.000 A 
ATOM      5  C   UNL     1       0.945   2.191  18.695  0.00  0.00    +0.000 A 
ATOM      6  C   UNL     1       0.592   2.638  19.968  0.00  0.00    +0.000 A 
ATOM      7  C   UNL     1       1.215   3.763  20.507  0.00  0.00    +0.000 A 
ATOM      8  C   UNL     1       2.173   4.451  19.758  0.00  0.00    +0.000 A 
ATOM      9  O   UNL     1       2.762   5.551  20.344  0.00  0.00    +0.000 OA
ATOM     10  C   UNL     1       2.510   6.733  19.679  0.00  0.00    +0.000 A 
ATOM     11  C   UNL     1       1.770   7.685  20.391  0.00  0.00    +0.000 A 
ATOM     12  C   UNL     1       1.445   8.900  19.794  0.00  0.00    +0.000 A 
ATOM     13  C   UNL     1       1.867   9.157  18.494  0.00  0.00    +0.000 A 
ATOM     14 CL   UNL     1       1.455  10.650  17.744  0.00  0.00    +0.000 Cl
ATOM     15  C   UNL     1       2.625   8.215  17.791  0.00  0.00    +0.000 A 
ATOM     16  C   UNL     1       2.981   6.987  18.376  0.00  0.00    +0.000 A 
ENDROOT
BRANCH   1  17
ATOM     17  S   UNL     1       5.062   6.573  16.568  0.00  0.00    +0.000 S 
BRANCH  17  18
ATOM     18  C   UNL     1       5.857   5.009  16.062  0.00  0.00    +0.000 C 
BRANCH  18  19
ATOM     19  C   UNL     1       5.516   4.715  14.590  0.00  0.00    +0.000 C 
BRANCH  19  21
ATOM     20  C   UNL     1       6.083   3.465  12.611  0.00  0.00    +0.000 C 
ATOM     21  N   UNL     1       6.623   4.115  13.810  0.00  0.00    +0.000 NA
ATOM     22  C   UNL     1       7.626   5.108  13.415  0.00  0.00    +0.000 C 
ENDBRANCH  19  21
ENDBRANCH  18  19
ENDBRANCH  17  18
ENDBRANCH   1  17
TORSDOF 4
ENDMDL
MODEL 5
REMARK VINA RESULT:      -7.1      2.552      4.688
REMARK  Name = 
REMARK  6 active torsions:
REMARK  status: ('A' for Active; 'I' for Inactive)
REMARK    1  A    between atoms: C_1  and  N_2
REMARK    2  A    between atoms: N_2  and  C_3
REMARK    3  A    between atoms: N_2  and  C_4
REMARK    4  A    between atoms: C_4  and  C_5
REMARK    5  A    between atoms: C_5  and  S_6
REMARK    6  A    between atoms: S_6  and  C_7
REMARK                            x       y       z     vdW  Elec       q    Type
REMARK                         _______ _______ _______ _____ _____    ______ ____
ROOT
ATOM      1  C   UNL     1       3.406   6.580  17.875  0.00  0.00    +0.000 C 
ATOM      2  C   UNL     1       3.304   5.239  17.801  0.00  0.00    +0.000 C 
ATOM      3  C   UNL     1       2.360   4.414  18.565  0.00  0.00    +0.000 A 
ATOM      4  C   UNL     1       1.816   3.273  17.958  0.00  0.00    +0.000 A 
ATOM      5  C   UNL     1       0.938   2.445  18.661  0.00  0.00    +0.000 A 
ATOM      6  C   UNL     1       0.614   2.733  19.987  0.00  0.00    +0.000 A 
ATOM      7  C   UNL     1       1.164   3.854  20.608  0.00  0.00    +0.000 A 
ATOM      8  C   UNL     1       2.018   4.696  19.892  0.00  0.00    +0.000 A 
ATOM      9  O   UNL     1       2.539   5.783  20.559  0.00  0.00    +0.000 OA
ATOM     10  C   UNL     1       2.150   6.996  20.027  0.00  0.00    +0.000 A 
ATOM     11  C   UNL     1       1.369   7.803  20.862  0.00  0.00    +0.000 A 
ATOM     12  C   UNL     1       0.909   9.035  20.406  0.00  0.00    +0.000 A 
ATOM     13  C   UNL     1       1.239   9.453  19.121  0.00  0.00    +0.000 A 
ATOM     14 CL   UNL     1       0.660  10.967  18.543  0.00  0.00    +0.000 Cl
ATOM     15  C   UNL     1       2.038   8.657  18.295  0.00  0.00    +0.000 A 
ATOM     16  C   UNL     1       2.530   7.416  18.738  0.00  0.00    +0.000 A 
ENDROOT
BRANCH   1  17
ATOM     17  S   UNL     1       4.542   7.370  16.809  0.00  0.00    +0.000 S 
BRANCH  17  18
ATOM     18  C   UNL     1       5.807   6.072  16.599  0.00  0.00    +0.000 C 
BRANCH  18  19
ATOM     19  C   UNL     1       5.879   5.661  15.118  0.00  0.00    +0.000 C 
BRANCH  19  21
ATOM     20  C   UNL     1       5.814   3.361  15.829  0.00  0.00    +0.000 C 
ATOM     21  N   UNL     1       6.419   4.302  14.881  0.00  0.00    +0.000 NA
ATOM     22  C   UNL     1       6.175   3.839  13.512  0.00  0.00    +0.000 C 
ENDBRANCH  19  21
ENDBRANCH  18  19
ENDBRANCH  17  18
ENDBRANCH   1  17
TORSDOF 4
ENDMDL
MODEL 6
REMARK VINA RESULT:      -6.9      3.318      6.224
REMARK  Name = 
REMARK  6 active torsions:
REMARK  status: ('A' for Active; 'I' for Inactive)
REMARK    1  A    between atoms: C_1  and  N_2
REMARK    2  A    between atoms: N_2  and  C_3
REMARK    3  A    between atoms: N_2  and  C_4
REMARK    4  A    between atoms: C_4  and  C_5
REMARK    5  A    between atoms: C_5  and  S_6
REMARK    6  A    between atoms: S_6  and  C_7
REMARK                            x       y       z     vdW  Elec       q    Type
REMARK                         _______ _______ _______ _____ _____    ______ ____
ROOT
ATOM      1  C   UNL     1       2.653   6.753  18.156  0.00  0.00    +0.000 C 
ATOM      2  C   UNL     1       1.732   6.114  18.903  0.00  0.00    +0.000 C 
ATOM      3  C   UNL     1       1.814   4.715  19.342  0.00  0.00    +0.000 A 
ATOM      4  C   UNL     1       1.303   4.373  20.602  0.00  0.00    +0.000 A 
ATOM      5  C   UNL     1       1.335   3.048  21.044  0.00  0.00    +0.000 A 
ATOM      6  C   UNL     1       1.854   2.047  20.223  0.00  0.00    +0.000 A 
ATOM      7  C   UNL     1       2.347   2.373  18.960  0.00  0.00    +0.000 A 
ATOM      8  C   UNL     1       2.341   3.703  18.533  0.00  0.00    +0.000 A 
ATOM      9  O   UNL     1       2.833   3.964  17.273  0.00  0.00    +0.000 OA
ATOM     10  C   UNL     1       3.950   4.774  17.272  0.00  0.00    +0.000 A 
ATOM     11  C   UNL     1       5.127   4.185  16.793  0.00  0.00    +0.000 A 
ATOM     12  C   UNL     1       6.311   4.915  16.776  0.00  0.00    +0.000 A 
ATOM     13  C   UNL     1       6.310   6.230  17.231  0.00  0.00    +0.000 A 
ATOM     14 CL   UNL     1       7.775   7.133  17.228  0.00  0.00    +0.000 Cl
ATOM     15  C   UNL     1       5.131   6.825  17.689  0.00  0.00    +0.000 A 
ATOM     16  C   UNL     1       3.916   6.114  17.701  0.00  0.00    +0.000 A 
ENDROOT
BRANCH   1  17
ATOM     17  S   UNL     1       2.395   8.448  17.821  0.00  0.00    +0.000 S 
BRANCH  17  18
ATOM     18  C   UNL     1       1.456   8.972  19.296  0.00  0.00    +0.000 C 
BRANCH  18  19
ATOM     19  C   UNL     1       0.667  10.253  18.972  0.00  0.00    +0.000 C 
BRANCH  19  21
ATOM     20  C   UNL     1      -0.888  11.230  20.530  0.00  0.00    +0.000 C 
ATOM     21  N   UNL     1      -0.735  10.249  19.450  0.00  0.00    +0.000 NA
ATOM     22  C   UNL     1      -1.687  10.552  18.378  0.00  0.00    +0.000 C 
ENDBRANCH  19  21
ENDBRANCH  18  19
ENDBRANCH  17  18
ENDBRANCH   1  17
TORSDOF 4
ENDMDL
MODEL 7
REMARK VINA RESULT:      -6.8      4.056      6.033
REMARK  Name = 
REMARK  6 active torsions:
REMARK  status: ('A' for Active; 'I' for Inactive)
REMARK    1  A    between atoms: C_1  and  N_2
REMARK    2  A    between atoms: N_2  and  C_3
REMARK    3  A    between atoms: N_2  and  C_4
REMARK    4  A    between atoms: C_4  and  C_5
REMARK    5  A    between atoms: C_5  and  S_6
REMARK    6  A    between atoms: S_6  and  C_7
REMARK                            x       y       z     vdW  Elec       q    Type
REMARK                         _______ _______ _______ _____ _____    ______ ____
ROOT
ATOM      1  C   UNL     1       5.257   4.978  16.154  0.00  0.00    +0.000 C 
ATOM      2  C   UNL     1       4.094   4.346  16.405  0.00  0.00    +0.000 C 
ATOM      3  C   UNL     1       3.548   4.066  17.739  0.00  0.00    +0.000 A 
ATOM      4  C   UNL     1       2.159   4.115  17.923  0.00  0.00    +0.000 A 
ATOM      5  C   UNL     1       1.598   3.827  19.170  0.00  0.00    +0.000 A 
ATOM      6  C   UNL     1       2.415   3.462  20.239  0.00  0.00    +0.000 A 
ATOM      7  C   UNL     1       3.796   3.390  20.063  0.00  0.00    +0.000 A 
ATOM      8  C   UNL     1       4.357   3.709  18.823  0.00  0.00    +0.000 A 
ATOM      9  O   UNL     1       5.726   3.612  18.705  0.00  0.00    +0.000 OA
ATOM     10  C   UNL     1       6.343   4.815  18.429  0.00  0.00    +0.000 A 
ATOM     11  C   UNL     1       7.213   5.293  19.417  0.00  0.00    +0.000 A 
ATOM     12  C   UNL     1       7.864   6.510  19.240  0.00  0.00    +0.000 A 
ATOM     13  C   UNL     1       7.645   7.238  18.074  0.00  0.00    +0.000 A 
ATOM     14 CL   UNL     1       8.434   8.752  17.856  0.00  0.00    +0.000 Cl
ATOM     15  C   UNL     1       6.794   6.751  17.078  0.00  0.00    +0.000 A 
ATOM     16  C   UNL     1       6.138   5.515  17.225  0.00  0.00    +0.000 A 
ENDROOT
BRANCH   1  17
ATOM     17  S   UNL     1       5.674   5.282  14.486  0.00  0.00    +0.000 S 
BRANCH  17  18
ATOM     18  C   UNL     1       6.338   3.660  13.976  0.00  0.00    +0.000 C 
BRANCH  18  19
ATOM     19  C   UNL     1       6.257   3.533  12.444  0.00  0.00    +0.000 C 
BRANCH  19  21
ATOM     20  C   UNL     1       4.260   3.073  11.180  0.00  0.00    +0.000 C 
ATOM     21  N   UNL     1       5.344   2.471  11.961  0.00  0.00    +0.000 NA
ATOM     22  C   UNL     1       6.038   1.473  11.142  0.00  0.00    +0.000 C 
ENDBRANCH  19  21
ENDBRANCH  18  19
ENDBRANCH  17  18
ENDBRANCH   1  17
TORSDOF 4
ENDMDL
MODEL 8
REMARK VINA RESULT:      -6.8      3.016      5.386
REMARK  Name = 
REMARK  6 active torsions:
REMARK  status: ('A' for Active; 'I' for Inactive)
REMARK    1  A    between atoms: C_1  and  N_2
REMARK    2  A    between atoms: N_2  and  C_3
REMARK    3  A    between atoms: N_2  and  C_4
REMARK    4  A    between atoms: C_4  and  C_5
REMARK    5  A    between atoms: C_5  and  S_6
REMARK    6  A    between atoms: S_6  and  C_7
REMARK                            x       y       z     vdW  Elec       q    Type
REMARK                         _______ _______ _______ _____ _____    ______ ____
ROOT
ATOM      1  C   UNL     1       3.363   6.540  18.494  0.00  0.00    +0.000 C 
ATOM      2  C   UNL     1       4.097   6.884  17.418  0.00  0.00    +0.000 C 
ATOM      3  C   UNL     1       5.050   6.010  16.724  0.00  0.00    +0.000 A 
ATOM      4  C   UNL     1       5.179   6.122  15.332  0.00  0.00    +0.000 A 
ATOM      5  C   UNL     1       6.096   5.329  14.638  0.00  0.00    +0.000 A 
ATOM      6  C   UNL     1       6.913   4.435  15.329  0.00  0.00    +0.000 A 
ATOM      7  C   UNL     1       6.809   4.329  16.715  0.00  0.00    +0.000 A 
ATOM      8  C   UNL     1       5.869   5.101  17.403  0.00  0.00    +0.000 A 
ATOM      9  O   UNL     1       5.817   4.961  18.772  0.00  0.00    +0.000 OA
ATOM     10  C   UNL     1       4.611   4.471  19.232  0.00  0.00    +0.000 A 
ATOM     11  C   UNL     1       4.662   3.219  19.856  0.00  0.00    +0.000 A 
ATOM     12  C   UNL     1       3.493   2.632  20.332  0.00  0.00    +0.000 A 
ATOM     13  C   UNL     1       2.284   3.304  20.185  0.00  0.00    +0.000 A 
ATOM     14 CL   UNL     1       0.831   2.576  20.755  0.00  0.00    +0.000 Cl
ATOM     15  C   UNL     1       2.235   4.564  19.582  0.00  0.00    +0.000 A 
ATOM     16  C   UNL     1       3.404   5.187  19.108  0.00  0.00    +0.000 A 
ENDROOT
BRANCH   1  17
ATOM     17  S   UNL     1       2.223   7.712  19.110  0.00  0.00    +0.000 S 
BRANCH  17  18
ATOM     18  C   UNL     1       2.201   8.941  17.761  0.00  0.00    +0.000 C 
BRANCH  18  19
ATOM     19  C   UNL     1       1.573  10.251  18.272  0.00  0.00    +0.000 C 
BRANCH  19  21
ATOM     20  C   UNL     1       0.849  11.036  20.430  0.00  0.00    +0.000 C 
ATOM     21  N   UNL     1       0.579  10.075  19.355  0.00  0.00    +0.000 NA
ATOM     22  C   UNL     1      -0.796  10.251  18.879  0.00  0.00    +0.000 C 
ENDBRANCH  19  21
ENDBRANCH  18  19
ENDBRANCH  17  18
ENDBRANCH   1  17
TORSDOF 4
ENDMDL
MODEL 9
REMARK VINA RESULT:      -6.5      3.438      6.249
REMARK  Name = 
REMARK  6 active torsions:
REMARK  status: ('A' for Active; 'I' for Inactive)
REMARK    1  A    between atoms: C_1  and  N_2
REMARK    2  A    between atoms: N_2  and  C_3
REMARK    3  A    between atoms: N_2  and  C_4
REMARK    4  A    between atoms: C_4  and  C_5
REMARK    5  A    between atoms: C_5  and  S_6
REMARK    6  A    between atoms: S_6  and  C_7
REMARK                            x       y       z     vdW  Elec       q    Type
REMARK                         _______ _______ _______ _____ _____    ______ ____
ROOT
ATOM      1  C   UNL     1       2.904   6.561  18.230  0.00  0.00    +0.000 C 
ATOM      2  C   UNL     1       2.175   6.177  19.296  0.00  0.00    +0.000 C 
ATOM      3  C   UNL     1       2.126   4.818  19.848  0.00  0.00    +0.000 A 
ATOM      4  C   UNL     1       2.003   4.656  21.235  0.00  0.00    +0.000 A 
ATOM      5  C   UNL     1       1.923   3.379  21.797  0.00  0.00    +0.000 A 
ATOM      6  C   UNL     1       1.940   2.251  20.978  0.00  0.00    +0.000 A 
ATOM      7  C   UNL     1       2.042   2.399  19.595  0.00  0.00    +0.000 A 
ATOM      8  C   UNL     1       2.152   3.676  19.039  0.00  0.00    +0.000 A 
ATOM      9  O   UNL     1       2.242   3.762  17.667  0.00  0.00    +0.000 OA
ATOM     10  C   UNL     1       3.430   4.305  17.223  0.00  0.00    +0.000 A 
ATOM     11  C   UNL     1       4.247   3.449  16.474  0.00  0.00    +0.000 A 
ATOM     12  C   UNL     1       5.477   3.899  16.003  0.00  0.00    +0.000 A 
ATOM     13  C   UNL     1       5.878   5.202  16.279  0.00  0.00    +0.000 A 
ATOM     14 CL   UNL     1       7.406   5.760  15.715  0.00  0.00    +0.000 Cl
ATOM     15  C   UNL     1       5.054   6.064  17.009  0.00  0.00    +0.000 A 
ATOM     16  C   UNL     1       3.798   5.639  17.481  0.00  0.00    +0.000 A 
ENDROOT
BRANCH   1  17
ATOM     17  S   UNL     1       2.881   8.253  17.796  0.00  0.00    +0.000 S 
BRANCH  17  18
ATOM     18  C   UNL     1       1.609   8.903  18.933  0.00  0.00    +0.000 C 
BRANCH  18  19
ATOM     19  C   UNL     1       0.580   9.722  18.135  0.00  0.00    +0.000 C 
BRANCH  19  21
ATOM     20  C   UNL     1      -1.587  10.752  18.345  0.00  0.00    +0.000 C 
ATOM     21  N   UNL     1      -0.260  10.624  18.956  0.00  0.00    +0.000 NA
ATOM     22  C   UNL     1      -0.403  10.147  20.335  0.00  0.00    +0.000 C 
ENDBRANCH  19  21
ENDBRANCH  18  19
ENDBRANCH  17  18
ENDBRANCH   1  17
TORSDOF 4
ENDMDL
