MODEL 1
REMARK VINA RESULT:      -7.9      0.000      0.000
REMARK  Name = 
REMARK  8 active torsions:
REMARK  status: ('A' for Active; 'I' for Inactive)
REMARK    1  A    between atoms: C_1  and  C_2
REMARK    2  A    between atoms: C_2  and  C_24
REMARK    3  A    between atoms: N_3  and  N_4
REMARK    4  A    between atoms: C_5  and  C_7
REMARK    5  A    between atoms: N_9  and  C_10
REMARK    6  A    between atoms: C_11  and  C_12
REMARK    7  A    between atoms: N_13  and  C_14
REMARK    8  A    between atoms: N_15  and  C_16
REMARK                            x       y       z     vdW  Elec       q    Type
REMARK                         _______ _______ _______ _____ _____    ______ ____
ROOT
ATOM      1  C   UNL     1       1.261   9.253  18.684  0.00  0.00    +0.000 C 
ATOM      2  O   UNL     1       0.912   9.060  17.524  0.00  0.00    +0.000 OA
ATOM      3  N   UNL     1       1.937   8.376  19.506  0.00  0.00    +0.000 N 
ATOM      4  H   UNL     1       1.906   8.590  20.505  0.00  0.00    +0.000 HD
ENDROOT
BRANCH   3   5
ATOM      5  C   UNL     1       2.453   7.148  19.166  0.00  0.00    +0.000 A 
ATOM      6  C   UNL     1       2.301   5.900  19.653  0.00  0.00    +0.000 A 
ATOM      7  C   UNL     1       1.409   5.421  20.752  0.00  0.00    +0.000 C 
ATOM      8  N   UNL     1       3.020   4.968  18.901  0.00  0.00    +0.000 N 
ATOM      9  C   UNL     1       3.394   3.617  19.281  0.00  0.00    +0.000 C 
ATOM     10  N   UNL     1       3.668   5.646  17.843  0.00  0.00    +0.000 N 
ATOM     11  C   UNL     1       3.444   7.013  18.037  0.00  0.00    +0.000 A 
ATOM     12  O   UNL     1       3.933   7.975  17.461  0.00  0.00    +0.000 OA
BRANCH  10  13
ATOM     13  C   UNL     1       4.829   5.095  17.264  0.00  0.00    +0.000 A 
ATOM     14  C   UNL     1       4.793   4.375  16.066  0.00  0.00    +0.000 A 
ATOM     15  C   UNL     1       5.983   3.913  15.493  0.00  0.00    +0.000 A 
ATOM     16  C   UNL     1       7.205   4.141  16.127  0.00  0.00    +0.000 A 
ATOM     17  C   UNL     1       7.244   4.842  17.331  0.00  0.00    +0.000 A 
ATOM     18  C   UNL     1       6.061   5.328  17.891  0.00  0.00    +0.000 A 
ENDBRANCH  10  13
ENDBRANCH   3   5
BRANCH   1  20
ATOM     19  N   UNL     1      -0.270  10.386  20.158  0.00  0.00    +0.000 N 
ATOM     20  C   UNL     1       0.835  10.586  19.343  0.00  0.00    +0.000 C 
ATOM     21  O   UNL     1       1.450  11.614  19.112  0.00  0.00    +0.000 OA
ATOM     22  H   UNL     1      -0.599   9.428  20.207  0.00  0.00    +0.000 HD
BRANCH  19  25
ATOM     23  C   UNL     1      -0.693   9.971  22.956  0.00  0.00    +0.000 C 
ATOM     24  C   UNL     1      -1.056  11.217  22.160  0.00  0.00    +0.000 C 
ATOM     25  N   UNL     1      -0.861  11.380  20.882  0.00  0.00    +0.000 NA
BRANCH  24  26
ATOM     26  C   UNL     1      -1.696  12.338  22.950  0.00  0.00    +0.000 A 
ATOM     27  C   UNL     1      -1.007  13.521  23.242  0.00  0.00    +0.000 A 
ATOM     28  C   UNL     1      -1.649  14.499  23.987  0.00  0.00    +0.000 A 
ATOM     29  N   UNL     1      -2.912  14.377  24.445  0.00  0.00    +0.000 NA
ATOM     30  C   UNL     1      -3.563  13.233  24.144  0.00  0.00    +0.000 A 
ATOM     31  C   UNL     1      -3.006  12.199  23.407  0.00  0.00    +0.000 A 
ENDBRANCH  24  26
ENDBRANCH  19  25
ENDBRANCH   1  20
TORSDOF 5
ENDMDL
MODEL 2
REMARK VINA RESULT:      -7.9      0.192      1.265
REMARK  Name = 
REMARK  8 active torsions:
REMARK  status: ('A' for Active; 'I' for Inactive)
REMARK    1  A    between atoms: C_1  and  C_2
REMARK    2  A    between atoms: C_2  and  C_24
REMARK    3  A    between atoms: N_3  and  N_4
REMARK    4  A    between atoms: C_5  and  C_7
REMARK    5  A    between atoms: N_9  and  C_10
REMARK    6  A    between atoms: C_11  and  C_12
REMARK    7  A    between atoms: N_13  and  C_14
REMARK    8  A    between atoms: N_15  and  C_16
REMARK                            x       y       z     vdW  Elec       q    Type
REMARK                         _______ _______ _______ _____ _____    ______ ____
ROOT
ATOM      1  C   UNL     1       1.219   9.214  18.807  0.00  0.00    +0.000 C 
ATOM      2  O   UNL     1       0.812   9.053  17.661  0.00  0.00    +0.000 OA
ATOM      3  N   UNL     1       1.964   8.328  19.556  0.00  0.00    +0.000 N 
ATOM      4  H   UNL     1       1.982   8.503  20.563  0.00  0.00    +0.000 HD
ENDROOT
BRANCH   3   5
ATOM      5  C   UNL     1       2.495   7.129  19.141  0.00  0.00    +0.000 A 
ATOM      6  C   UNL     1       2.364   5.853  19.553  0.00  0.00    +0.000 A 
ATOM      7  C   UNL     1       1.484   5.296  20.626  0.00  0.00    +0.000 C 
ATOM      8  N   UNL     1       3.092   4.978  18.744  0.00  0.00    +0.000 N 
ATOM      9  C   UNL     1       3.487   3.612  19.041  0.00  0.00    +0.000 C 
ATOM     10  N   UNL     1       3.724   5.727  17.725  0.00  0.00    +0.000 N 
ATOM     11  C   UNL     1       3.482   7.077  18.002  0.00  0.00    +0.000 A 
ATOM     12  O   UNL     1       3.955   8.078  17.481  0.00  0.00    +0.000 OA
BRANCH  10  13
ATOM     13  C   UNL     1       4.890   5.228  17.109  0.00  0.00    +0.000 A 
ATOM     14  C   UNL     1       6.148   5.318  17.713  0.00  0.00    +0.000 A 
ATOM     15  C   UNL     1       7.263   4.741  17.095  0.00  0.00    +0.000 A 
ATOM     16  C   UNL     1       7.131   4.103  15.861  0.00  0.00    +0.000 A 
ATOM     17  C   UNL     1       5.883   4.028  15.245  0.00  0.00    +0.000 A 
ATOM     18  C   UNL     1       4.764   4.578  15.874  0.00  0.00    +0.000 A 
ENDBRANCH  10  13
ENDBRANCH   3   5
BRANCH   1  20
ATOM     19  N   UNL     1      -0.436  10.324  20.158  0.00  0.00    +0.000 N 
ATOM     20  C   UNL     1       0.791  10.507  19.539  0.00  0.00    +0.000 C 
ATOM     21  O   UNL     1       1.506  11.496  19.515  0.00  0.00    +0.000 OA
ATOM     22  H   UNL     1      -0.836   9.399  20.053  0.00  0.00    +0.000 HD
BRANCH  19  25
ATOM     23  C   UNL     1      -0.458  10.071  23.006  0.00  0.00    +0.000 C 
ATOM     24  C   UNL     1      -1.076  11.200  22.193  0.00  0.00    +0.000 C 
ATOM     25  N   UNL     1      -1.060  11.290  20.892  0.00  0.00    +0.000 NA
BRANCH  24  26
ATOM     26  C   UNL     1      -1.755  12.290  22.992  0.00  0.00    +0.000 A 
ATOM     27  C   UNL     1      -3.051  12.136  23.497  0.00  0.00    +0.000 A 
ATOM     28  C   UNL     1      -3.620  13.185  24.205  0.00  0.00    +0.000 A 
ATOM     29  N   UNL     1      -2.987  14.353  24.441  0.00  0.00    +0.000 NA
ATOM     30  C   UNL     1      -1.734  14.478  23.955  0.00  0.00    +0.000 A 
ATOM     31  C   UNL     1      -1.082  13.488  23.236  0.00  0.00    +0.000 A 
ENDBRANCH  24  26
ENDBRANCH  19  25
ENDBRANCH   1  20
TORSDOF 5
ENDMDL
MODEL 3
REMARK VINA RESULT:      -7.7      1.711      1.957
REMARK  Name = 
REMARK  8 active torsions:
REMARK  status: ('A' for Active; 'I' for Inactive)
REMARK    1  A    between atoms: C_1  and  C_2
REMARK    2  A    between atoms: C_2  and  C_24
REMARK    3  A    between atoms: N_3  and  N_4
REMARK    4  A    between atoms: C_5  and  C_7
REMARK    5  A    between atoms: N_9  and  C_10
REMARK    6  A    between atoms: C_11  and  C_12
REMARK    7  A    between atoms: N_13  and  C_14
REMARK    8  A    between atoms: N_15  and  C_16
REMARK                            x       y       z     vdW  Elec       q    Type
REMARK                         _______ _______ _______ _____ _____    ______ ____
ROOT
ATOM      1  C   UNL     1       1.356   7.665  20.998  0.00  0.00    +0.000 C 
ATOM      2  O   UNL     1       2.361   8.319  20.739  0.00  0.00    +0.000 OA
ATOM      3  N   UNL     1       1.135   6.333  20.719  0.00  0.00    +0.000 N 
ATOM      4  H   UNL     1       0.161   6.027  20.756  0.00  0.00    +0.000 HD
ENDROOT
BRANCH   3   5
ATOM      5  C   UNL     1       2.032   5.435  20.190  0.00  0.00    +0.000 A 
ATOM      6  C   UNL     1       2.500   4.235  20.586  0.00  0.00    +0.000 A 
ATOM      7  C   UNL     1       2.113   3.420  21.777  0.00  0.00    +0.000 C 
ATOM      8  N   UNL     1       3.377   3.693  19.644  0.00  0.00    +0.000 N 
ATOM      9  C   UNL     1       4.336   2.619  19.835  0.00  0.00    +0.000 C 
ATOM     10  N   UNL     1       3.473   4.586  18.552  0.00  0.00    +0.000 N 
ATOM     11  C   UNL     1       2.752   5.734  18.899  0.00  0.00    +0.000 A 
ATOM     12  O   UNL     1       2.684   6.815  18.332  0.00  0.00    +0.000 OA
BRANCH  10  13
ATOM     13  C   UNL     1       4.622   4.574  17.735  0.00  0.00    +0.000 A 
ATOM     14  C   UNL     1       4.607   4.055  16.437  0.00  0.00    +0.000 A 
ATOM     15  C   UNL     1       5.753   4.135  15.639  0.00  0.00    +0.000 A 
ATOM     16  C   UNL     1       6.924   4.704  16.144  0.00  0.00    +0.000 A 
ATOM     17  C   UNL     1       6.949   5.205  17.444  0.00  0.00    +0.000 A 
ATOM     18  C   UNL     1       5.798   5.152  18.233  0.00  0.00    +0.000 A 
ENDBRANCH  10  13
ENDBRANCH   3   5
BRANCH   1  20
ATOM     19  N   UNL     1       0.606   9.554  22.290  0.00  0.00    +0.000 N 
ATOM     20  C   UNL     1       0.161   8.417  21.632  0.00  0.00    +0.000 C 
ATOM     21  O   UNL     1      -0.974   7.987  21.512  0.00  0.00    +0.000 OA
ATOM     22  H   UNL     1       1.605   9.718  22.237  0.00  0.00    +0.000 HD
BRANCH  19  25
ATOM     23  C   UNL     1      -0.178  11.947  20.933  0.00  0.00    +0.000 C 
ATOM     24  C   UNL     1      -0.603  11.518  22.332  0.00  0.00    +0.000 C 
ATOM     25  N   UNL     1      -0.225  10.425  22.933  0.00  0.00    +0.000 NA
BRANCH  24  26
ATOM     26  C   UNL     1      -1.540  12.462  23.053  0.00  0.00    +0.000 A 
ATOM     27  C   UNL     1      -1.154  13.761  23.401  0.00  0.00    +0.000 A 
ATOM     28  C   UNL     1      -2.058  14.565  24.079  0.00  0.00    +0.000 A 
ATOM     29  N   UNL     1      -3.301  14.166  24.418  0.00  0.00    +0.000 NA
ATOM     30  C   UNL     1      -3.658  12.914  24.064  0.00  0.00    +0.000 A 
ATOM     31  C   UNL     1      -2.825  12.035  23.387  0.00  0.00    +0.000 A 
ENDBRANCH  24  26
ENDBRANCH  19  25
ENDBRANCH   1  20
TORSDOF 5
ENDMDL
MODEL 4
REMARK VINA RESULT:      -7.5      1.355      1.705
REMARK  Name = 
REMARK  8 active torsions:
REMARK  status: ('A' for Active; 'I' for Inactive)
REMARK    1  A    between atoms: C_1  and  C_2
REMARK    2  A    between atoms: C_2  and  C_24
REMARK    3  A    between atoms: N_3  and  N_4
REMARK    4  A    between atoms: C_5  and  C_7
REMARK    5  A    between atoms: N_9  and  C_10
REMARK    6  A    between atoms: C_11  and  C_12
REMARK    7  A    between atoms: N_13  and  C_14
REMARK    8  A    between atoms: N_15  and  C_16
REMARK                            x       y       z     vdW  Elec       q    Type
REMARK                         _______ _______ _______ _____ _____    ______ ____
ROOT
ATOM      1  C   UNL     1       1.491   8.291  20.278  0.00  0.00    +0.000 C 
ATOM      2  O   UNL     1       1.153   8.695  19.170  0.00  0.00    +0.000 OA
ATOM      3  N   UNL     1       2.084   7.083  20.578  0.00  0.00    +0.000 N 
ATOM      4  H   UNL     1       2.048   6.802  21.559  0.00  0.00    +0.000 HD
ENDROOT
BRANCH   3   5
ATOM      5  C   UNL     1       2.517   6.126  19.690  0.00  0.00    +0.000 A 
ATOM      6  C   UNL     1       2.268   4.811  19.534  0.00  0.00    +0.000 A 
ATOM      7  C   UNL     1       1.323   3.936  20.293  0.00  0.00    +0.000 C 
ATOM      8  N   UNL     1       2.932   4.295  18.420  0.00  0.00    +0.000 N 
ATOM      9  C   UNL     1       3.202   2.901  18.112  0.00  0.00    +0.000 C 
ATOM     10  N   UNL     1       3.646   5.342  17.795  0.00  0.00    +0.000 N 
ATOM     11  C   UNL     1       3.517   6.469  18.614  0.00  0.00    +0.000 A 
ATOM     12  O   UNL     1       4.084   7.551  18.551  0.00  0.00    +0.000 OA
BRANCH  10  13
ATOM     13  C   UNL     1       4.776   5.048  17.004  0.00  0.00    +0.000 A 
ATOM     14  C   UNL     1       6.047   4.871  17.559  0.00  0.00    +0.000 A 
ATOM     15  C   UNL     1       7.122   4.506  16.741  0.00  0.00    +0.000 A 
ATOM     16  C   UNL     1       6.938   4.348  15.367  0.00  0.00    +0.000 A 
ATOM     17  C   UNL     1       5.678   4.542  14.806  0.00  0.00    +0.000 A 
ATOM     18  C   UNL     1       4.597   4.879  15.624  0.00  0.00    +0.000 A 
ENDBRANCH  10  13
ENDBRANCH   3   5
BRANCH   1  20
ATOM     19  N   UNL     1      -0.056   9.839  21.284  0.00  0.00    +0.000 N 
ATOM     20  C   UNL     1       1.147   9.182  21.495  0.00  0.00    +0.000 C 
ATOM     21  O   UNL     1       1.898   9.232  22.456  0.00  0.00    +0.000 OA
ATOM     22  H   UNL     1      -0.514   9.623  20.405  0.00  0.00    +0.000 HD
BRANCH  19  25
ATOM     23  C   UNL     1      -1.422  12.161  20.323  0.00  0.00    +0.000 C 
ATOM     24  C   UNL     1      -1.257  11.745  21.779  0.00  0.00    +0.000 C 
ATOM     25  N   UNL     1      -0.621  10.684  22.193  0.00  0.00    +0.000 NA
BRANCH  24  26
ATOM     26  C   UNL     1      -1.894  12.660  22.801  0.00  0.00    +0.000 A 
ATOM     27  C   UNL     1      -1.248  13.812  23.264  0.00  0.00    +0.000 A 
ATOM     28  C   UNL     1      -1.884  14.595  24.216  0.00  0.00    +0.000 A 
ATOM     29  N   UNL     1      -3.102  14.310  24.721  0.00  0.00    +0.000 NA
ATOM     30  C   UNL     1      -3.713  13.201  24.254  0.00  0.00    +0.000 A 
ATOM     31  C   UNL     1      -3.159  12.356  23.305  0.00  0.00    +0.000 A 
ENDBRANCH  24  26
ENDBRANCH  19  25
ENDBRANCH   1  20
TORSDOF 5
ENDMDL
MODEL 5
REMARK VINA RESULT:      -7.4      1.875     10.513
REMARK  Name = 
REMARK  8 active torsions:
REMARK  status: ('A' for Active; 'I' for Inactive)
REMARK    1  A    between atoms: C_1  and  C_2
REMARK    2  A    between atoms: C_2  and  C_24
REMARK    3  A    between atoms: N_3  and  N_4
REMARK    4  A    between atoms: C_5  and  C_7
REMARK    5  A    between atoms: N_9  and  C_10
REMARK    6  A    between atoms: C_11  and  C_12
REMARK    7  A    between atoms: N_13  and  C_14
REMARK    8  A    between atoms: N_15  and  C_16
REMARK                            x       y       z     vdW  Elec       q    Type
REMARK                         _______ _______ _______ _____ _____    ______ ____
ROOT
ATOM      1  C   UNL     1       0.629   9.950  18.363  0.00  0.00    +0.000 C 
ATOM      2  O   UNL     1      -0.274   9.257  17.906  0.00  0.00    +0.000 OA
ATOM      3  N   UNL     1       0.500  11.040  19.197  0.00  0.00    +0.000 N 
ATOM      4  H   UNL     1       1.316  11.652  19.258  0.00  0.00    +0.000 HD
ENDROOT
BRANCH   3   5
ATOM      5  C   UNL     1      -0.654  11.512  19.777  0.00  0.00    +0.000 A 
ATOM      6  C   UNL     1      -1.863  11.870  19.302  0.00  0.00    +0.000 A 
ATOM      7  C   UNL     1      -2.382  11.799  17.902  0.00  0.00    +0.000 C 
ATOM      8  N   UNL     1      -2.728  12.238  20.333  0.00  0.00    +0.000 N 
ATOM      9  C   UNL     1      -3.964  12.996  20.231  0.00  0.00    +0.000 C 
ATOM     10  N   UNL     1      -2.050  12.092  21.565  0.00  0.00    +0.000 N 
ATOM     11  C   UNL     1      -0.725  11.760  21.263  0.00  0.00    +0.000 A 
ATOM     12  O   UNL     1       0.250  11.686  21.999  0.00  0.00    +0.000 OA
BRANCH  10  13
ATOM     13  C   UNL     1      -2.455  12.849  22.683  0.00  0.00    +0.000 A 
ATOM     14  C   UNL     1      -1.984  14.145  22.915  0.00  0.00    +0.000 A 
ATOM     15  C   UNL     1      -2.474  14.883  23.999  0.00  0.00    +0.000 A 
ATOM     16  C   UNL     1      -3.408  14.319  24.869  0.00  0.00    +0.000 A 
ATOM     17  C   UNL     1      -3.865  13.021  24.653  0.00  0.00    +0.000 A 
ATOM     18  C   UNL     1      -3.399  12.292  23.557  0.00  0.00    +0.000 A 
ENDBRANCH  10  13
ENDBRANCH   3   5
BRANCH   1  20
ATOM     19  N   UNL     1       2.337   8.283  18.041  0.00  0.00    +0.000 N 
ATOM     20  C   UNL     1       2.071   9.636  17.898  0.00  0.00    +0.000 C 
ATOM     21  O   UNL     1       2.793  10.527  17.480  0.00  0.00    +0.000 OA
ATOM     22  H   UNL     1       1.565   7.729  18.396  0.00  0.00    +0.000 HD
BRANCH  19  25
ATOM     23  C   UNL     1       2.543   5.431  18.097  0.00  0.00    +0.000 C 
ATOM     24  C   UNL     1       3.642   6.411  17.707  0.00  0.00    +0.000 C 
ATOM     25  N   UNL     1       3.526   7.709  17.698  0.00  0.00    +0.000 NA
BRANCH  24  26
ATOM     26  C   UNL     1       4.962   5.792  17.305  0.00  0.00    +0.000 A 
ATOM     27  C   UNL     1       5.161   5.239  16.035  0.00  0.00    +0.000 A 
ATOM     28  C   UNL     1       6.392   4.671  15.741  0.00  0.00    +0.000 A 
ATOM     29  N   UNL     1       7.419   4.627  16.614  0.00  0.00    +0.000 NA
ATOM     30  C   UNL     1       7.211   5.175  17.830  0.00  0.00    +0.000 A 
ATOM     31  C   UNL     1       6.017   5.764  18.217  0.00  0.00    +0.000 A 
ENDBRANCH  24  26
ENDBRANCH  19  25
ENDBRANCH   1  20
TORSDOF 5
ENDMDL
MODEL 6
REMARK VINA RESULT:      -7.3      3.197     10.471
REMARK  Name = 
REMARK  8 active torsions:
REMARK  status: ('A' for Active; 'I' for Inactive)
REMARK    1  A    between atoms: C_1  and  C_2
REMARK    2  A    between atoms: C_2  and  C_24
REMARK    3  A    between atoms: N_3  and  N_4
REMARK    4  A    between atoms: C_5  and  C_7
REMARK    5  A    between atoms: N_9  and  C_10
REMARK    6  A    between atoms: C_11  and  C_12
REMARK    7  A    between atoms: N_13  and  C_14
REMARK    8  A    between atoms: N_15  and  C_16
REMARK                            x       y       z     vdW  Elec       q    Type
REMARK                         _______ _______ _______ _____ _____    ______ ____
ROOT
ATOM      1  C   UNL     1       0.755   9.859  18.928  0.00  0.00    +0.000 C 
ATOM      2  O   UNL     1       0.488   9.101  19.855  0.00  0.00    +0.000 OA
ATOM      3  N   UNL     1       0.008  10.931  18.488  0.00  0.00    +0.000 N 
ATOM      4  H   UNL     1       0.234  11.277  17.554  0.00  0.00    +0.000 HD
ENDROOT
BRANCH   3   5
ATOM      5  C   UNL     1      -1.134  11.440  19.061  0.00  0.00    +0.000 A 
ATOM      6  C   UNL     1      -1.443  11.894  20.291  0.00  0.00    +0.000 A 
ATOM      7  C   UNL     1      -0.557  12.057  21.484  0.00  0.00    +0.000 C 
ATOM      8  N   UNL     1      -2.757  12.364  20.347  0.00  0.00    +0.000 N 
ATOM      9  C   UNL     1      -3.566  12.604  21.529  0.00  0.00    +0.000 C 
ATOM     10  N   UNL     1      -3.339  12.228  19.066  0.00  0.00    +0.000 N 
ATOM     11  C   UNL     1      -2.412  11.550  18.267  0.00  0.00    +0.000 A 
ATOM     12  O   UNL     1      -2.541  11.085  17.143  0.00  0.00    +0.000 OA
BRANCH  10  13
ATOM     13  C   UNL     1      -4.739  12.124  18.939  0.00  0.00    +0.000 A 
ATOM     14  C   UNL     1      -5.372  10.908  18.664  0.00  0.00    +0.000 A 
ATOM     15  C   UNL     1      -6.769  10.843  18.621  0.00  0.00    +0.000 A 
ATOM     16  C   UNL     1      -7.535  11.992  18.822  0.00  0.00    +0.000 A 
ATOM     17  C   UNL     1      -6.907  13.210  19.077  0.00  0.00    +0.000 A 
ATOM     18  C   UNL     1      -5.514  13.273  19.148  0.00  0.00    +0.000 A 
ENDBRANCH  10  13
ENDBRANCH   3   5
BRANCH   1  20
ATOM     19  N   UNL     1       2.397   8.222  18.276  0.00  0.00    +0.000 N 
ATOM     20  C   UNL     1       2.020   9.545  18.095  0.00  0.00    +0.000 C 
ATOM     21  O   UNL     1       2.538  10.410  17.408  0.00  0.00    +0.000 OA
ATOM     22  H   UNL     1       1.794   7.684  18.888  0.00  0.00    +0.000 HD
BRANCH  19  25
ATOM     23  C   UNL     1       3.382   5.726  19.265  0.00  0.00    +0.000 C 
ATOM     24  C   UNL     1       3.932   6.512  18.083  0.00  0.00    +0.000 C 
ATOM     25  N   UNL     1       3.471   7.654  17.656  0.00  0.00    +0.000 NA
BRANCH  24  26
ATOM     26  C   UNL     1       5.112   5.889  17.370  0.00  0.00    +0.000 A 
ATOM     27  C   UNL     1       5.174   5.813  15.974  0.00  0.00    +0.000 A 
ATOM     28  C   UNL     1       6.278   5.209  15.388  0.00  0.00    +0.000 A 
ATOM     29  N   UNL     1       7.305   4.693  16.093  0.00  0.00    +0.000 NA
ATOM     30  C   UNL     1       7.231   4.785  17.437  0.00  0.00    +0.000 A 
ATOM     31  C   UNL     1       6.171   5.368  18.114  0.00  0.00    +0.000 A 
ENDBRANCH  24  26
ENDBRANCH  19  25
ENDBRANCH   1  20
TORSDOF 5
ENDMDL
MODEL 7
REMARK VINA RESULT:      -7.3      2.817      3.272
REMARK  Name = 
REMARK  8 active torsions:
REMARK  status: ('A' for Active; 'I' for Inactive)
REMARK    1  A    between atoms: C_1  and  C_2
REMARK    2  A    between atoms: C_2  and  C_24
REMARK    3  A    between atoms: N_3  and  N_4
REMARK    4  A    between atoms: C_5  and  C_7
REMARK    5  A    between atoms: N_9  and  C_10
REMARK    6  A    between atoms: C_11  and  C_12
REMARK    7  A    between atoms: N_13  and  C_14
REMARK    8  A    between atoms: N_15  and  C_16
REMARK                            x       y       z     vdW  Elec       q    Type
REMARK                         _______ _______ _______ _____ _____    ______ ____
ROOT
ATOM      1  C   UNL     1       1.275   9.120  18.695  0.00  0.00    +0.000 C 
ATOM      2  O   UNL     1       0.900   8.936  17.542  0.00  0.00    +0.000 OA
ATOM      3  N   UNL     1       1.982   8.242  19.490  0.00  0.00    +0.000 N 
ATOM      4  H   UNL     1       1.972   8.443  20.492  0.00  0.00    +0.000 HD
ENDROOT
BRANCH   3   5
ATOM      5  C   UNL     1       2.505   7.024  19.122  0.00  0.00    +0.000 A 
ATOM      6  C   UNL     1       2.378   5.769  19.595  0.00  0.00    +0.000 A 
ATOM      7  C   UNL     1       1.515   5.264  20.706  0.00  0.00    +0.000 C 
ATOM      8  N   UNL     1       3.092   4.856  18.815  0.00  0.00    +0.000 N 
ATOM      9  C   UNL     1       3.490   3.504  19.169  0.00  0.00    +0.000 C 
ATOM     10  N   UNL     1       3.709   5.555  17.754  0.00  0.00    +0.000 N 
ATOM     11  C   UNL     1       3.473   6.917  17.971  0.00  0.00    +0.000 A 
ATOM     12  O   UNL     1       3.939   7.892  17.397  0.00  0.00    +0.000 OA
BRANCH  10  13
ATOM     13  C   UNL     1       4.864   5.027  17.142  0.00  0.00    +0.000 A 
ATOM     14  C   UNL     1       4.822   4.388  15.900  0.00  0.00    +0.000 A 
ATOM     15  C   UNL     1       6.007   3.946  15.300  0.00  0.00    +0.000 A 
ATOM     16  C   UNL     1       7.230   4.114  15.952  0.00  0.00    +0.000 A 
ATOM     17  C   UNL     1       7.274   4.733  17.200  0.00  0.00    +0.000 A 
ATOM     18  C   UNL     1       6.097   5.199  17.787  0.00  0.00    +0.000 A 
ENDBRANCH  10  13
ENDBRANCH   3   5
BRANCH   1  20
ATOM     19  N   UNL     1       0.819  11.472  18.456  0.00  0.00    +0.000 N 
ATOM     20  C   UNL     1       0.848  10.439  19.381  0.00  0.00    +0.000 C 
ATOM     21  O   UNL     1       0.594  10.461  20.575  0.00  0.00    +0.000 OA
ATOM     22  H   UNL     1       1.054  11.205  17.507  0.00  0.00    +0.000 HD
BRANCH  19  25
ATOM     23  C   UNL     1       2.784  13.535  18.206  0.00  0.00    +0.000 C 
ATOM     24  C   UNL     1       1.339  13.711  18.654  0.00  0.00    +0.000 C 
ATOM     25  N   UNL     1       0.463  12.752  18.768  0.00  0.00    +0.000 NA
BRANCH  24  26
ATOM     26  C   UNL     1       0.921  15.126  18.986  0.00  0.00    +0.000 A 
ATOM     27  C   UNL     1       1.851  16.166  19.084  0.00  0.00    +0.000 A 
ATOM     28  C   UNL     1       1.398  17.436  19.411  0.00  0.00    +0.000 A 
ATOM     29  N   UNL     1       0.101  17.729  19.636  0.00  0.00    +0.000 NA
ATOM     30  C   UNL     1      -0.782  16.714  19.527  0.00  0.00    +0.000 A 
ATOM     31  C   UNL     1      -0.427  15.413  19.206  0.00  0.00    +0.000 A 
ENDBRANCH  24  26
ENDBRANCH  19  25
ENDBRANCH   1  20
TORSDOF 5
ENDMDL
MODEL 8
REMARK VINA RESULT:      -7.3      2.608     10.632
REMARK  Name = 
REMARK  8 active torsions:
REMARK  status: ('A' for Active; 'I' for Inactive)
REMARK    1  A    between atoms: C_1  and  C_2
REMARK    2  A    between atoms: C_2  and  C_24
REMARK    3  A    between atoms: N_3  and  N_4
REMARK    4  A    between atoms: C_5  and  C_7
REMARK    5  A    between atoms: N_9  and  C_10
REMARK    6  A    between atoms: C_11  and  C_12
REMARK    7  A    between atoms: N_13  and  C_14
REMARK    8  A    between atoms: N_15  and  C_16
REMARK                            x       y       z     vdW  Elec       q    Type
REMARK                         _______ _______ _______ _____ _____    ______ ____
ROOT
ATOM      1  C   UNL     1       0.503   9.938  18.823  0.00  0.00    +0.000 C 
ATOM      2  O   UNL     1       0.232   9.260  19.809  0.00  0.00    +0.000 OA
ATOM      3  N   UNL     1      -0.301  10.877  18.213  0.00  0.00    +0.000 N 
ATOM      4  H   UNL     1      -0.032  11.143  17.264  0.00  0.00    +0.000 HD
ENDROOT
BRANCH   3   5
ATOM      5  C   UNL     1      -1.528  11.325  18.642  0.00  0.00    +0.000 A 
ATOM      6  C   UNL     1      -2.771  11.294  18.123  0.00  0.00    +0.000 A 
ATOM      7  C   UNL     1      -3.247  10.658  16.857  0.00  0.00    +0.000 C 
ATOM      8  N   UNL     1      -3.705  11.851  19.000  0.00  0.00    +0.000 N 
ATOM      9  C   UNL     1      -5.048  12.313  18.693  0.00  0.00    +0.000 C 
ATOM     10  N   UNL     1      -3.033  12.255  20.176  0.00  0.00    +0.000 N 
ATOM     11  C   UNL     1      -1.666  12.060  19.952  0.00  0.00    +0.000 A 
ATOM     12  O   UNL     1      -0.706  12.406  20.627  0.00  0.00    +0.000 OA
BRANCH  10  13
ATOM     13  C   UNL     1      -3.579  13.276  20.980  0.00  0.00    +0.000 A 
ATOM     14  C   UNL     1      -3.332  14.630  20.734  0.00  0.00    +0.000 A 
ATOM     15  C   UNL     1      -3.957  15.608  21.515  0.00  0.00    +0.000 A 
ATOM     16  C   UNL     1      -4.804  15.238  22.561  0.00  0.00    +0.000 A 
ATOM     17  C   UNL     1      -5.038  13.889  22.823  0.00  0.00    +0.000 A 
ATOM     18  C   UNL     1      -4.437  12.911  22.028  0.00  0.00    +0.000 A 
ENDBRANCH  10  13
ENDBRANCH   3   5
BRANCH   1  20
ATOM     19  N   UNL     1       2.236   8.346  18.310  0.00  0.00    +0.000 N 
ATOM     20  C   UNL     1       1.856   9.667  18.123  0.00  0.00    +0.000 C 
ATOM     21  O   UNL     1       2.428  10.559  17.519  0.00  0.00    +0.000 OA
ATOM     22  H   UNL     1       1.581   7.782  18.839  0.00  0.00    +0.000 HD
BRANCH  19  25
ATOM     23  C   UNL     1       2.564   5.506  18.367  0.00  0.00    +0.000 C 
ATOM     24  C   UNL     1       3.549   6.520  17.801  0.00  0.00    +0.000 C 
ATOM     25  N   UNL     1       3.380   7.813  17.794  0.00  0.00    +0.000 NA
BRANCH  24  26
ATOM     26  C   UNL     1       4.816   5.945  17.207  0.00  0.00    +0.000 A 
ATOM     27  C   UNL     1       6.050   6.592  17.335  0.00  0.00    +0.000 A 
ATOM     28  C   UNL     1       7.168   6.017  16.748  0.00  0.00    +0.000 A 
ATOM     29  N   UNL     1       7.134   4.857  16.060  0.00  0.00    +0.000 NA
ATOM     30  C   UNL     1       5.936   4.244  15.957  0.00  0.00    +0.000 A 
ATOM     31  C   UNL     1       4.764   4.739  16.507  0.00  0.00    +0.000 A 
ENDBRANCH  24  26
ENDBRANCH  19  25
ENDBRANCH   1  20
TORSDOF 5
ENDMDL
MODEL 9
REMARK VINA RESULT:      -7.3      2.850     10.429
REMARK  Name = 
REMARK  8 active torsions:
REMARK  status: ('A' for Active; 'I' for Inactive)
REMARK    1  A    between atoms: C_1  and  C_2
REMARK    2  A    between atoms: C_2  and  C_24
REMARK    3  A    between atoms: N_3  and  N_4
REMARK    4  A    between atoms: C_5  and  C_7
REMARK    5  A    between atoms: N_9  and  C_10
REMARK    6  A    between atoms: C_11  and  C_12
REMARK    7  A    between atoms: N_13  and  C_14
REMARK    8  A    between atoms: N_15  and  C_16
REMARK                            x       y       z     vdW  Elec       q    Type
REMARK                         _______ _______ _______ _____ _____    ______ ____
ROOT
ATOM      1  C   UNL     1       0.617  11.894  19.257  0.00  0.00    +0.000 C 
ATOM      2  O   UNL     1       0.956  13.043  19.520  0.00  0.00    +0.000 OA
ATOM      3  N   UNL     1      -0.552  11.266  19.630  0.00  0.00    +0.000 N 
ATOM      4  H   UNL     1      -0.551  10.246  19.561  0.00  0.00    +0.000 HD
ENDROOT
BRANCH   3   5
ATOM      5  C   UNL     1      -1.626  11.826  20.282  0.00  0.00    +0.000 A 
ATOM      6  C   UNL     1      -1.894  12.113  21.571  0.00  0.00    +0.000 A 
ATOM      7  C   UNL     1      -1.016  11.961  22.771  0.00  0.00    +0.000 C 
ATOM      8  N   UNL     1      -3.134  12.741  21.707  0.00  0.00    +0.000 N 
ATOM      9  C   UNL     1      -3.925  12.896  22.915  0.00  0.00    +0.000 C 
ATOM     10  N   UNL     1      -3.705  12.893  20.423  0.00  0.00    +0.000 N 
ATOM     11  C   UNL     1      -2.864  12.233  19.521  0.00  0.00    +0.000 A 
ATOM     12  O   UNL     1      -3.033  11.976  18.337  0.00  0.00    +0.000 OA
BRANCH  10  13
ATOM     13  C   UNL     1      -5.104  13.000  20.286  0.00  0.00    +0.000 A 
ATOM     14  C   UNL     1      -5.944  11.883  20.328  0.00  0.00    +0.000 A 
ATOM     15  C   UNL     1      -7.332  12.050  20.262  0.00  0.00    +0.000 A 
ATOM     16  C   UNL     1      -7.882  13.325  20.123  0.00  0.00    +0.000 A 
ATOM     17  C   UNL     1      -7.048  14.439  20.061  0.00  0.00    +0.000 A 
ATOM     18  C   UNL     1      -5.664  14.279  20.154  0.00  0.00    +0.000 A 
ENDBRANCH  10  13
ENDBRANCH   3   5
BRANCH   1  20
ATOM     19  N   UNL     1       1.253   9.677  18.564  0.00  0.00    +0.000 N 
ATOM     20  C   UNL     1       1.632  11.010  18.495  0.00  0.00    +0.000 C 
ATOM     21  O   UNL     1       2.599  11.512  17.945  0.00  0.00    +0.000 OA
ATOM     22  H   UNL     1       0.391   9.502  19.067  0.00  0.00    +0.000 HD
BRANCH  19  25
ATOM     23  C   UNL     1       2.028   7.435  20.162  0.00  0.00    +0.000 C 
ATOM     24  C   UNL     1       2.307   7.629  18.677  0.00  0.00    +0.000 C 
ATOM     25  N   UNL     1       1.950   8.665  17.971  0.00  0.00    +0.000 NA
BRANCH  24  26
ATOM     26  C   UNL     1       3.062   6.508  17.998  0.00  0.00    +0.000 A 
ATOM     27  C   UNL     1       2.597   5.189  18.015  0.00  0.00    +0.000 A 
ATOM     28  C   UNL     1       3.351   4.207  17.388  0.00  0.00    +0.000 A 
ATOM     29  N   UNL     1       4.514   4.456  16.752  0.00  0.00    +0.000 NA
ATOM     30  C   UNL     1       4.941   5.736  16.738  0.00  0.00    +0.000 A 
ATOM     31  C   UNL     1       4.259   6.784  17.336  0.00  0.00    +0.000 A 
ENDBRANCH  24  26
ENDBRANCH  19  25
ENDBRANCH   1  20
TORSDOF 5
ENDMDL
