MODEL 1
REMARK VINA RESULT:      -8.6      0.000      0.000
REMARK  Name = 
REMARK  1 active torsions:
REMARK  status: ('A' for Active; 'I' for Inactive)
REMARK    1  A    between atoms: C_1  and  C_2
REMARK                            x       y       z     vdW  Elec       q    Type
REMARK                         _______ _______ _______ _____ _____    ______ ____
ROOT
ATOM      1  C   UNL     1      -1.770  12.750  22.534  0.00  0.00    +0.000 C 
ATOM      2  C   UNL     1      -1.030  11.490  22.220  0.00  0.00    +0.000 A 
ATOM      3  C   UNL     1      -0.948  10.433  23.153  0.00  0.00    +0.000 A 
ATOM      4  C   UNL     1      -0.259   9.241  22.875  0.00  0.00    +0.000 A 
ATOM      5  C   UNL     1       0.374   9.073  21.635  0.00  0.00    +0.000 A 
ATOM      6  C   UNL     1       1.090   7.942  21.231  0.00  0.00    +0.000 A 
ATOM      7  C   UNL     1       1.706   7.852  19.950  0.00  0.00    +0.000 A 
ATOM      8  C   UNL     1       1.582   8.958  19.053  0.00  0.00    +0.000 A 
ATOM      9  C   UNL     1       2.160   8.936  17.785  0.00  0.00    +0.000 A 
ATOM     10  C   UNL     1       2.878   7.812  17.378  0.00  0.00    +0.000 A 
ATOM     11  C   UNL     1       3.031   6.702  18.220  0.00  0.00    +0.000 A 
ATOM     12  C   UNL     1       3.765   5.584  17.779  0.00  0.00    +0.000 A 
ATOM     13  C   UNL     1       3.937   4.464  18.590  0.00  0.00    +0.000 A 
ATOM     14  C   UNL     1       3.376   4.443  19.856  0.00  0.00    +0.000 A 
ATOM     15  C   UNL     1       2.644   5.543  20.308  0.00  0.00    +0.000 A 
ATOM     16  C   UNL     1       2.448   6.703  19.514  0.00  0.00    +0.000 A 
ATOM     17  C   UNL     1       0.859  10.076  19.484  0.00  0.00    +0.000 A 
ATOM     18  C   UNL     1       0.286  10.104  20.740  0.00  0.00    +0.000 A 
ATOM     19  C   UNL     1      -0.385  11.284  20.998  0.00  0.00    +0.000 A 
ATOM     20  C   UNL     1      -0.277  12.187  19.818  0.00  0.00    +0.000 C 
ATOM     21  C   UNL     1       0.562  11.364  18.783  0.00  0.00    +0.000 C 
ENDROOT
TORSDOF 0
ENDMDL
MODEL 2
REMARK VINA RESULT:      -8.6      1.225      6.470
REMARK  Name = 
REMARK  1 active torsions:
REMARK  status: ('A' for Active; 'I' for Inactive)
REMARK    1  A    between atoms: C_1  and  C_2
REMARK                            x       y       z     vdW  Elec       q    Type
REMARK                         _______ _______ _______ _____ _____    ______ ____
ROOT
ATOM      1  C   UNL     1       4.045   1.552  19.048  0.00  0.00    +0.000 C 
ATOM      2  C   UNL     1       3.387   2.806  19.524  0.00  0.00    +0.000 A 
ATOM      3  C   UNL     1       2.699   2.854  20.756  0.00  0.00    +0.000 A 
ATOM      4  C   UNL     1       2.076   4.023  21.221  0.00  0.00    +0.000 A 
ATOM      5  C   UNL     1       2.129   5.195  20.454  0.00  0.00    +0.000 A 
ATOM      6  C   UNL     1       1.555   6.423  20.798  0.00  0.00    +0.000 A 
ATOM      7  C   UNL     1       1.654   7.569  19.958  0.00  0.00    +0.000 A 
ATOM      8  C   UNL     1       2.367   7.453  18.725  0.00  0.00    +0.000 A 
ATOM      9  C   UNL     1       2.502   8.534  17.856  0.00  0.00    +0.000 A 
ATOM     10  C   UNL     1       1.929   9.759  18.193  0.00  0.00    +0.000 A 
ATOM     11  C   UNL     1       1.218   9.926  19.389  0.00  0.00    +0.000 A 
ATOM     12  C   UNL     1       0.648  11.177  19.697  0.00  0.00    +0.000 A 
ATOM     13  C   UNL     1      -0.065  11.377  20.877  0.00  0.00    +0.000 A 
ATOM     14  C   UNL     1      -0.220  10.330  21.770  0.00  0.00    +0.000 A 
ATOM     15  C   UNL     1       0.340   9.084  21.480  0.00  0.00    +0.000 A 
ATOM     16  C   UNL     1       1.071   8.838  20.289  0.00  0.00    +0.000 A 
ATOM     17  C   UNL     1       2.932   6.212  18.406  0.00  0.00    +0.000 A 
ATOM     18  C   UNL     1       2.799   5.136  19.264  0.00  0.00    +0.000 A 
ATOM     19  C   UNL     1       3.414   3.994  18.789  0.00  0.00    +0.000 A 
ATOM     20  C   UNL     1       4.041   4.277  17.467  0.00  0.00    +0.000 C 
ATOM     21  C   UNL     1       3.722   5.788  17.209  0.00  0.00    +0.000 C 
ENDROOT
TORSDOF 0
ENDMDL
MODEL 3
REMARK VINA RESULT:      -8.6      1.733      4.365
REMARK  Name = 
REMARK  1 active torsions:
REMARK  status: ('A' for Active; 'I' for Inactive)
REMARK    1  A    between atoms: C_1  and  C_2
REMARK                            x       y       z     vdW  Elec       q    Type
REMARK                         _______ _______ _______ _____ _____    ______ ____
ROOT
ATOM      1  C   UNL     1      -0.122  10.368  20.965  0.00  0.00    +0.000 C 
ATOM      2  C   UNL     1       0.792   9.699  19.989  0.00  0.00    +0.000 A 
ATOM      3  C   UNL     1       1.257  10.371  18.838  0.00  0.00    +0.000 A 
ATOM      4  C   UNL     1       2.117   9.761  17.910  0.00  0.00    +0.000 A 
ATOM      5  C   UNL     1       2.542   8.442  18.116  0.00  0.00    +0.000 A 
ATOM      6  C   UNL     1       3.394   7.718  17.275  0.00  0.00    +0.000 A 
ATOM      7  C   UNL     1       3.777   6.375  17.557  0.00  0.00    +0.000 A 
ATOM      8  C   UNL     1       3.271   5.754  18.741  0.00  0.00    +0.000 A 
ATOM      9  C   UNL     1       3.606   4.444  19.077  0.00  0.00    +0.000 A 
ATOM     10  C   UNL     1       4.452   3.717  18.241  0.00  0.00    +0.000 A 
ATOM     11  C   UNL     1       4.974   4.278  17.067  0.00  0.00    +0.000 A 
ATOM     12  C   UNL     1       5.823   3.515  16.243  0.00  0.00    +0.000 A 
ATOM     13  C   UNL     1       6.359   4.041  15.069  0.00  0.00    +0.000 A 
ATOM     14  C   UNL     1       6.055   5.342  14.700  0.00  0.00    +0.000 A 
ATOM     15  C   UNL     1       5.215   6.112  15.507  0.00  0.00    +0.000 A 
ATOM     16  C   UNL     1       4.647   5.613  16.708  0.00  0.00    +0.000 A 
ATOM     17  C   UNL     1       2.421   6.503  19.564  0.00  0.00    +0.000 A 
ATOM     18  C   UNL     1       2.085   7.802  19.235  0.00  0.00    +0.000 A 
ATOM     19  C   UNL     1       1.237   8.386  20.155  0.00  0.00    +0.000 A 
ATOM     20  C   UNL     1       0.933   7.412  21.242  0.00  0.00    +0.000 C 
ATOM     21  C   UNL     1       1.746   6.133  20.846  0.00  0.00    +0.000 C 
ENDROOT
TORSDOF 0
ENDMDL
MODEL 4
REMARK VINA RESULT:      -8.6      1.020      1.819
REMARK  Name = 
REMARK  1 active torsions:
REMARK  status: ('A' for Active; 'I' for Inactive)
REMARK    1  A    between atoms: C_1  and  C_2
REMARK                            x       y       z     vdW  Elec       q    Type
REMARK                         _______ _______ _______ _____ _____    ______ ____
ROOT
ATOM      1  C   UNL     1      -0.473  12.621  20.764  0.00  0.00    +0.000 C 
ATOM      2  C   UNL     1      -0.053  11.193  20.898  0.00  0.00    +0.000 A 
ATOM      3  C   UNL     1      -0.401  10.427  22.033  0.00  0.00    +0.000 A 
ATOM      4  C   UNL     1      -0.017   9.084  22.176  0.00  0.00    +0.000 A 
ATOM      5  C   UNL     1       0.735   8.462  21.170  0.00  0.00    +0.000 A 
ATOM      6  C   UNL     1       1.180   7.136  21.186  0.00  0.00    +0.000 A 
ATOM      7  C   UNL     1       1.944   6.580  20.120  0.00  0.00    +0.000 A 
ATOM      8  C   UNL     1       2.260   7.410  19.000  0.00  0.00    +0.000 A 
ATOM      9  C   UNL     1       3.003   6.929  17.923  0.00  0.00    +0.000 A 
ATOM     10  C   UNL     1       3.453   5.610  17.935  0.00  0.00    +0.000 A 
ATOM     11  C   UNL     1       3.172   4.755  19.010  0.00  0.00    +0.000 A 
ATOM     12  C   UNL     1       3.644   3.428  18.991  0.00  0.00    +0.000 A 
ATOM     13  C   UNL     1       3.384   2.552  20.043  0.00  0.00    +0.000 A 
ATOM     14  C   UNL     1       2.645   2.988  21.131  0.00  0.00    +0.000 A 
ATOM     15  C   UNL     1       2.169   4.300  21.164  0.00  0.00    +0.000 A 
ATOM     16  C   UNL     1       2.414   5.224  20.115  0.00  0.00    +0.000 A 
ATOM     17  C   UNL     1       1.800   8.732  19.011  0.00  0.00    +0.000 A 
ATOM     18  C   UNL     1       1.064   9.213  20.076  0.00  0.00    +0.000 A 
ATOM     19  C   UNL     1       0.698  10.536  19.921  0.00  0.00    +0.000 A 
ATOM     20  C   UNL     1       1.226  11.051  18.625  0.00  0.00    +0.000 C 
ATOM     21  C   UNL     1       1.968   9.822  18.001  0.00  0.00    +0.000 C 
ENDROOT
TORSDOF 0
ENDMDL
MODEL 5
REMARK VINA RESULT:      -8.3      0.838      6.274
REMARK  Name = 
REMARK  1 active torsions:
REMARK  status: ('A' for Active; 'I' for Inactive)
REMARK    1  A    between atoms: C_1  and  C_2
REMARK                            x       y       z     vdW  Elec       q    Type
REMARK                         _______ _______ _______ _____ _____    ______ ____
ROOT
ATOM      1  C   UNL     1       4.091   2.843  18.364  0.00  0.00    +0.000 C 
ATOM      2  C   UNL     1       3.337   3.890  19.118  0.00  0.00    +0.000 A 
ATOM      3  C   UNL     1       2.726   3.606  20.359  0.00  0.00    +0.000 A 
ATOM      4  C   UNL     1       2.014   4.576  21.083  0.00  0.00    +0.000 A 
ATOM      5  C   UNL     1       1.896   5.877  20.577  0.00  0.00    +0.000 A 
ATOM      6  C   UNL     1       1.219   6.935  21.193  0.00  0.00    +0.000 A 
ATOM      7  C   UNL     1       1.145   8.232  20.608  0.00  0.00    +0.000 A 
ATOM      8  C   UNL     1       1.787   8.452  19.351  0.00  0.00    +0.000 A 
ATOM      9  C   UNL     1       1.754   9.696  18.723  0.00  0.00    +0.000 A 
ATOM     10  C   UNL     1       1.077  10.752  19.331  0.00  0.00    +0.000 A 
ATOM     11  C   UNL     1       0.429  10.589  20.563  0.00  0.00    +0.000 A 
ATOM     12  C   UNL     1      -0.248  11.676  21.148  0.00  0.00    +0.000 A 
ATOM     13  C   UNL     1      -0.903  11.548  22.372  0.00  0.00    +0.000 A 
ATOM     14  C   UNL     1      -0.891  10.330  23.031  0.00  0.00    +0.000 A 
ATOM     15  C   UNL     1      -0.223   9.243  22.464  0.00  0.00    +0.000 A 
ATOM     16  C   UNL     1       0.454   9.330  21.220  0.00  0.00    +0.000 A 
ATOM     17  C   UNL     1       2.458   7.376  18.757  0.00  0.00    +0.000 A 
ATOM     18  C   UNL     1       2.493   6.141  19.375  0.00  0.00    +0.000 A 
ATOM     19  C   UNL     1       3.193   5.198  18.648  0.00  0.00    +0.000 A 
ATOM     20  C   UNL     1       3.703   5.815  17.390  0.00  0.00    +0.000 C 
ATOM     21  C   UNL     1       3.211   7.299  17.467  0.00  0.00    +0.000 C 
ENDROOT
TORSDOF 0
ENDMDL
MODEL 6
REMARK VINA RESULT:      -8.3      1.303      3.655
REMARK  Name = 
REMARK  1 active torsions:
REMARK  status: ('A' for Active; 'I' for Inactive)
REMARK    1  A    between atoms: C_1  and  C_2
REMARK                            x       y       z     vdW  Elec       q    Type
REMARK                         _______ _______ _______ _____ _____    ______ ____
ROOT
ATOM      1  C   UNL     1      -0.492  11.595  20.807  0.00  0.00    +0.000 C 
ATOM      2  C   UNL     1       0.418  10.770  19.957  0.00  0.00    +0.000 A 
ATOM      3  C   UNL     1       0.973  11.280  18.763  0.00  0.00    +0.000 A 
ATOM      4  C   UNL     1       1.832  10.521  17.951  0.00  0.00    +0.000 A 
ATOM      5  C   UNL     1       2.164   9.210  18.321  0.00  0.00    +0.000 A 
ATOM      6  C   UNL     1       3.004   8.349  17.608  0.00  0.00    +0.000 A 
ATOM      7  C   UNL     1       3.290   7.026  18.055  0.00  0.00    +0.000 A 
ATOM      8  C   UNL     1       2.696   6.573  19.273  0.00  0.00    +0.000 A 
ATOM      9  C   UNL     1       2.933   5.292  19.767  0.00  0.00    +0.000 A 
ATOM     10  C   UNL     1       3.766   4.428  19.058  0.00  0.00    +0.000 A 
ATOM     11  C   UNL     1       4.372   4.822  17.857  0.00  0.00    +0.000 A 
ATOM     12  C   UNL     1       5.206   3.923  17.165  0.00  0.00    +0.000 A 
ATOM     13  C   UNL     1       5.823   4.282  15.968  0.00  0.00    +0.000 A 
ATOM     14  C   UNL     1       5.617   5.548  15.444  0.00  0.00    +0.000 A 
ATOM     15  C   UNL     1       4.794   6.451  16.120  0.00  0.00    +0.000 A 
ATOM     16  C   UNL     1       4.145   6.124  17.339  0.00  0.00    +0.000 A 
ATOM     17  C   UNL     1       1.860   7.457  19.966  0.00  0.00    +0.000 A 
ATOM     18  C   UNL     1       1.621   8.728  19.480  0.00  0.00    +0.000 A 
ATOM     19  C   UNL     1       0.772   9.460  20.288  0.00  0.00    +0.000 A 
ATOM     20  C   UNL     1       0.363   8.634  21.459  0.00  0.00    +0.000 C 
ATOM     21  C   UNL     1       1.109   7.274  21.246  0.00  0.00    +0.000 C 
ENDROOT
TORSDOF 0
ENDMDL
MODEL 7
REMARK VINA RESULT:      -8.2      1.630      7.117
REMARK  Name = 
REMARK  1 active torsions:
REMARK  status: ('A' for Active; 'I' for Inactive)
REMARK    1  A    between atoms: C_1  and  C_2
REMARK                            x       y       z     vdW  Elec       q    Type
REMARK                         _______ _______ _______ _____ _____    ______ ____
ROOT
ATOM      1  C   UNL     1       4.061   1.141  18.567  0.00  0.00    +0.000 C 
ATOM      2  C   UNL     1       3.769   2.597  18.398  0.00  0.00    +0.000 A 
ATOM      3  C   UNL     1       4.167   3.297  17.238  0.00  0.00    +0.000 A 
ATOM      4  C   UNL     1       3.900   4.664  17.060  0.00  0.00    +0.000 A 
ATOM      5  C   UNL     1       3.215   5.377  18.054  0.00  0.00    +0.000 A 
ATOM      6  C   UNL     1       2.886   6.735  18.004  0.00  0.00    +0.000 A 
ATOM      7  C   UNL     1       2.187   7.386  19.061  0.00  0.00    +0.000 A 
ATOM      8  C   UNL     1       1.812   6.618  20.206  0.00  0.00    +0.000 A 
ATOM      9  C   UNL     1       1.127   7.191  21.276  0.00  0.00    +0.000 A 
ATOM     10  C   UNL     1       0.799   8.546  21.233  0.00  0.00    +0.000 A 
ATOM     11  C   UNL     1       1.145   9.344  20.134  0.00  0.00    +0.000 A 
ATOM     12  C   UNL     1       0.802  10.709  20.125  0.00  0.00    +0.000 A 
ATOM     13  C   UNL     1       1.131  11.532  19.049  0.00  0.00    +0.000 A 
ATOM     14  C   UNL     1       1.808  11.001  17.963  0.00  0.00    +0.000 A 
ATOM     15  C   UNL     1       2.155   9.649  17.957  0.00  0.00    +0.000 A 
ATOM     16  C   UNL     1       1.841   8.778  19.033  0.00  0.00    +0.000 A 
ATOM     17  C   UNL     1       2.154   5.261  20.229  0.00  0.00    +0.000 A 
ATOM     18  C   UNL     1       2.834   4.688  19.172  0.00  0.00    +0.000 A 
ATOM     19  C   UNL     1       3.091   3.344  19.364  0.00  0.00    +0.000 A 
ATOM     20  C   UNL     1       2.548   2.917  20.685  0.00  0.00    +0.000 C 
ATOM     21  C   UNL     1       1.902   4.218  21.271  0.00  0.00    +0.000 C 
ENDROOT
TORSDOF 0
ENDMDL
MODEL 8
REMARK VINA RESULT:      -8.0      1.308      3.535
REMARK  Name = 
REMARK  1 active torsions:
REMARK  status: ('A' for Active; 'I' for Inactive)
REMARK    1  A    between atoms: C_1  and  C_2
REMARK                            x       y       z     vdW  Elec       q    Type
REMARK                         _______ _______ _______ _____ _____    ______ ____
ROOT
ATOM      1  C   UNL     1       0.276  12.344  20.148  0.00  0.00    +0.000 C 
ATOM      2  C   UNL     1       0.878  11.093  19.595  0.00  0.00    +0.000 A 
ATOM      3  C   UNL     1       1.490  11.071  18.323  0.00  0.00    +0.000 A 
ATOM      4  C   UNL     1       2.063   9.907  17.787  0.00  0.00    +0.000 A 
ATOM      5  C   UNL     1       2.039   8.714  18.523  0.00  0.00    +0.000 A 
ATOM      6  C   UNL     1       2.571   7.489  18.110  0.00  0.00    +0.000 A 
ATOM      7  C   UNL     1       2.503   6.320  18.922  0.00  0.00    +0.000 A 
ATOM      8  C   UNL     1       1.870   6.411  20.200  0.00  0.00    +0.000 A 
ATOM      9  C   UNL     1       1.769   5.308  21.044  0.00  0.00    +0.000 A 
ATOM     10  C   UNL     1       2.294   4.082  20.636  0.00  0.00    +0.000 A 
ATOM     11  C   UNL     1       2.923   3.938  19.391  0.00  0.00    +0.000 A 
ATOM     12  C   UNL     1       3.440   2.685  19.008  0.00  0.00    +0.000 A 
ATOM     13  C   UNL     1       4.070   2.507  17.778  0.00  0.00    +0.000 A 
ATOM     14  C   UNL     1       4.195   3.579  16.911  0.00  0.00    +0.000 A 
ATOM     15  C   UNL     1       3.689   4.828  17.276  0.00  0.00    +0.000 A 
ATOM     16  C   UNL     1       3.038   5.051  18.518  0.00  0.00    +0.000 A 
ATOM     17  C   UNL     1       1.348   7.651  20.588  0.00  0.00    +0.000 A 
ATOM     18  C   UNL     1       1.444   8.748  19.754  0.00  0.00    +0.000 A 
ATOM     19  C   UNL     1       0.873   9.884  20.295  0.00  0.00    +0.000 A 
ATOM     20  C   UNL     1       0.311   9.569  21.639  0.00  0.00    +0.000 C 
ATOM     21  C   UNL     1       0.642   8.052  21.844  0.00  0.00    +0.000 C 
ENDROOT
TORSDOF 0
ENDMDL
MODEL 9
REMARK VINA RESULT:      -7.9      1.408      7.237
REMARK  Name = 
REMARK  1 active torsions:
REMARK  status: ('A' for Active; 'I' for Inactive)
REMARK    1  A    between atoms: C_1  and  C_2
REMARK                            x       y       z     vdW  Elec       q    Type
REMARK                         _______ _______ _______ _____ _____    ______ ____
ROOT
ATOM      1  C   UNL     1       6.113   3.583  15.999  0.00  0.00    +0.000 C 
ATOM      2  C   UNL     1       5.317   4.781  16.404  0.00  0.00    +0.000 A 
ATOM      3  C   UNL     1       5.300   5.954  15.617  0.00  0.00    +0.000 A 
ATOM      4  C   UNL     1       4.557   7.089  15.980  0.00  0.00    +0.000 A 
ATOM      5  C   UNL     1       3.798   7.079  17.159  0.00  0.00    +0.000 A 
ATOM      6  C   UNL     1       3.017   8.136  17.635  0.00  0.00    +0.000 A 
ATOM      7  C   UNL     1       2.275   8.044  18.848  0.00  0.00    +0.000 A 
ATOM      8  C   UNL     1       2.335   6.828  19.596  0.00  0.00    +0.000 A 
ATOM      9  C   UNL     1       1.634   6.670  20.790  0.00  0.00    +0.000 A 
ATOM     10  C   UNL     1       0.856   7.722  21.272  0.00  0.00    +0.000 A 
ATOM     11  C   UNL     1       0.764   8.937  20.578  0.00  0.00    +0.000 A 
ATOM     12  C   UNL     1      -0.028   9.980  21.094  0.00  0.00    +0.000 A 
ATOM     13  C   UNL     1      -0.141  11.201  20.431  0.00  0.00    +0.000 A 
ATOM     14  C   UNL     1       0.535  11.397  19.238  0.00  0.00    +0.000 A 
ATOM     15  C   UNL     1       1.325  10.372  18.713  0.00  0.00    +0.000 A 
ATOM     16  C   UNL     1       1.468   9.116  19.358  0.00  0.00    +0.000 A 
ATOM     17  C   UNL     1       3.125   5.786  19.095  0.00  0.00    +0.000 A 
ATOM     18  C   UNL     1       3.823   5.937  17.912  0.00  0.00    +0.000 A 
ATOM     19  C   UNL     1       4.550   4.814  17.571  0.00  0.00    +0.000 A 
ATOM     20  C   UNL     1       4.359   3.762  18.610  0.00  0.00    +0.000 C 
ATOM     21  C   UNL     1       3.382   4.419  19.642  0.00  0.00    +0.000 C 
ENDROOT
TORSDOF 0
ENDMDL
