MODEL 1
REMARK VINA RESULT:      -7.8      0.000      0.000
REMARK  Name = 
REMARK  4 active torsions:
REMARK  status: ('A' for Active; 'I' for Inactive)
REMARK    1  A    between atoms: C_1  and  C_2
REMARK    2  A    between atoms: C_5  and  C_6
REMARK    3  A    between atoms: C_8  and  C_9
REMARK    4  A    between atoms: C_16  and  C_18
REMARK                            x       y       z     vdW  Elec       q    Type
REMARK                         _______ _______ _______ _____ _____    ______ ____
ROOT
ATOM      1  C   UNL     1       6.600   4.740  17.754  0.00  0.00    +0.000 C 
ATOM      2  C   UNL     1       5.439   4.444  18.700  0.00  0.00    +0.000 C 
ATOM      3  C   UNL     1       4.427   3.903  17.733  0.00  0.00    +0.000 C 
ATOM      4  N   UNL     1       4.800   3.887  16.491  0.00  0.00    +0.000 NA
ATOM      5  N   UNL     1       6.066   4.407  16.432  0.00  0.00    +0.000 N 
ATOM      6  C   UNL     1       6.847   4.374  15.268  0.00  0.00    +0.000 C 
ATOM      7  O   UNL     1       8.051   4.636  15.309  0.00  0.00    +0.000 OA
ENDROOT
BRANCH   1  12
ATOM      8  C   UNL     1       8.675  10.175  18.199  0.00  0.00    +0.000 C 
ATOM      9  C   UNL     1       8.103   8.791  18.138  0.00  0.00    +0.000 A 
ATOM     10  C   UNL     1       8.613   7.759  18.933  0.00  0.00    +0.000 A 
ATOM     11  C   UNL     1       8.108   6.461  18.817  0.00  0.00    +0.000 A 
ATOM     12  C   UNL     1       7.084   6.169  17.902  0.00  0.00    +0.000 A 
ATOM     13  C   UNL     1       6.540   7.221  17.150  0.00  0.00    +0.000 A 
ATOM     14  C   UNL     1       7.053   8.514  17.258  0.00  0.00    +0.000 A 
ENDBRANCH   1  12
BRANCH   6  15
ATOM     15  C   UNL     1       6.171   4.006  14.028  0.00  0.00    +0.000 A 
ATOM     16  C   UNL     1       5.007   4.433  13.404  0.00  0.00    +0.000 A 
ATOM     17  C   UNL     1       4.834   3.639  12.246  0.00  0.00    +0.000 A 
ATOM     18  C   UNL     1       5.924   2.805  12.195  0.00  0.00    +0.000 A 
ATOM     19 BR   UNL     1       6.228   1.526  10.873  0.00  0.00    +0.000 Br
ATOM     20  O   UNL     1       6.748   3.031  13.250  0.00  0.00    +0.000 OA
ENDBRANCH   6  15
BRANCH   3  21
ATOM     21  C   UNL     1       3.116   3.428  18.106  0.00  0.00    +0.000 A 
ATOM     22  C   UNL     1       1.905   4.072  17.909  0.00  0.00    +0.000 A 
ATOM     23  C   UNL     1       0.803   3.336  18.424  0.00  0.00    +0.000 A 
ATOM     24  C   UNL     1       1.201   2.151  18.996  0.00  0.00    +0.000 A 
ATOM     25  S   UNL     1       2.895   1.930  18.897  0.00  0.00    +0.000 S 
ENDBRANCH   3  21
TORSDOF 3
ENDMDL
MODEL 2
REMARK VINA RESULT:      -7.3      0.432      1.056
REMARK  Name = 
REMARK  4 active torsions:
REMARK  status: ('A' for Active; 'I' for Inactive)
REMARK    1  A    between atoms: C_1  and  C_2
REMARK    2  A    between atoms: C_5  and  C_6
REMARK    3  A    between atoms: C_8  and  C_9
REMARK    4  A    between atoms: C_16  and  C_18
REMARK                            x       y       z     vdW  Elec       q    Type
REMARK                         _______ _______ _______ _____ _____    ______ ____
ROOT
ATOM      1  C   UNL     1       6.668   4.846  17.849  0.00  0.00    +0.000 C 
ATOM      2  C   UNL     1       5.513   4.627  18.824  0.00  0.00    +0.000 C 
ATOM      3  C   UNL     1       4.461   4.102  17.891  0.00  0.00    +0.000 C 
ATOM      4  N   UNL     1       4.811   4.034  16.644  0.00  0.00    +0.000 NA
ATOM      5  N   UNL     1       6.095   4.498  16.547  0.00  0.00    +0.000 N 
ATOM      6  C   UNL     1       6.853   4.397  15.371  0.00  0.00    +0.000 C 
ATOM      7  O   UNL     1       8.068   4.609  15.384  0.00  0.00    +0.000 OA
ENDROOT
BRANCH   1  12
ATOM      8  C   UNL     1       8.555  10.345  18.344  0.00  0.00    +0.000 C 
ATOM      9  C   UNL     1       8.111   8.924  18.164  0.00  0.00    +0.000 A 
ATOM     10  C   UNL     1       7.124   8.584  17.235  0.00  0.00    +0.000 A 
ATOM     11  C   UNL     1       6.679   7.263  17.126  0.00  0.00    +0.000 A 
ATOM     12  C   UNL     1       7.214   6.257  17.946  0.00  0.00    +0.000 A 
ATOM     13  C   UNL     1       8.244   6.597  18.835  0.00  0.00    +0.000 A 
ATOM     14  C   UNL     1       8.679   7.918  18.952  0.00  0.00    +0.000 A 
ENDBRANCH   1  12
BRANCH   6  15
ATOM     15  C   UNL     1       6.139   4.023  14.155  0.00  0.00    +0.000 A 
ATOM     16  C   UNL     1       4.941   4.423  13.581  0.00  0.00    +0.000 A 
ATOM     17  C   UNL     1       4.745   3.636  12.423  0.00  0.00    +0.000 A 
ATOM     18  C   UNL     1       5.853   2.831  12.321  0.00  0.00    +0.000 A 
ATOM     19 BR   UNL     1       6.139   1.572  10.976  0.00  0.00    +0.000 Br
ATOM     20  O   UNL     1       6.712   3.070  13.346  0.00  0.00    +0.000 OA
ENDBRANCH   6  15
BRANCH   3  21
ATOM     21  C   UNL     1       3.139   3.694  18.301  0.00  0.00    +0.000 A 
ATOM     22  C   UNL     1       2.236   4.423  19.059  0.00  0.00    +0.000 A 
ATOM     23  C   UNL     1       1.031   3.713  19.307  0.00  0.00    +0.000 A 
ATOM     24  C   UNL     1       1.043   2.464  18.730  0.00  0.00    +0.000 A 
ATOM     25  S   UNL     1       2.500   2.165  17.885  0.00  0.00    +0.000 S 
ENDBRANCH   3  21
TORSDOF 3
ENDMDL
MODEL 3
REMARK VINA RESULT:      -7.0      9.050     10.888
REMARK  Name = 
REMARK  4 active torsions:
REMARK  status: ('A' for Active; 'I' for Inactive)
REMARK    1  A    between atoms: C_1  and  C_2
REMARK    2  A    between atoms: C_5  and  C_6
REMARK    3  A    between atoms: C_8  and  C_9
REMARK    4  A    between atoms: C_16  and  C_18
REMARK                            x       y       z     vdW  Elec       q    Type
REMARK                         _______ _______ _______ _____ _____    ______ ____
ROOT
ATOM      1  C   UNL     1       0.238  11.013  19.012  0.00  0.00    +0.000 C 
ATOM      2  C   UNL     1      -1.095  10.825  19.733  0.00  0.00    +0.000 C 
ATOM      3  C   UNL     1      -1.037  11.956  20.719  0.00  0.00    +0.000 C 
ATOM      4  N   UNL     1       0.048  12.665  20.685  0.00  0.00    +0.000 NA
ATOM      5  N   UNL     1       0.862  12.133  19.721  0.00  0.00    +0.000 N 
ATOM      6  C   UNL     1       2.041  12.759  19.292  0.00  0.00    +0.000 C 
ATOM      7  O   UNL     1       2.622  12.378  18.273  0.00  0.00    +0.000 OA
ENDROOT
BRANCH   1  12
ATOM      8  C   UNL     1       3.143   5.954  18.999  0.00  0.00    +0.000 C 
ATOM      9  C   UNL     1       2.452   7.283  19.027  0.00  0.00    +0.000 A 
ATOM     10  C   UNL     1       1.849   7.763  20.194  0.00  0.00    +0.000 A 
ATOM     11  C   UNL     1       1.156   8.976  20.185  0.00  0.00    +0.000 A 
ATOM     12  C   UNL     1       1.050   9.733  19.007  0.00  0.00    +0.000 A 
ATOM     13  C   UNL     1       1.705   9.272  17.856  0.00  0.00    +0.000 A 
ATOM     14  C   UNL     1       2.387   8.054  17.863  0.00  0.00    +0.000 A 
ENDBRANCH   1  12
BRANCH   6  15
ATOM     15  C   UNL     1       2.529  13.874  20.097  0.00  0.00    +0.000 A 
ATOM     16  C   UNL     1       2.381  15.251  20.022  0.00  0.00    +0.000 A 
ATOM     17  C   UNL     1       3.162  15.816  21.057  0.00  0.00    +0.000 A 
ATOM     18  C   UNL     1       3.705  14.756  21.741  0.00  0.00    +0.000 A 
ATOM     19 BR   UNL     1       4.837  14.903  23.215  0.00  0.00    +0.000 Br
ATOM     20  O   UNL     1       3.314  13.580  21.187  0.00  0.00    +0.000 OA
ENDBRANCH   6  15
BRANCH   3  21
ATOM     21  C   UNL     1      -2.085  12.270  21.660  0.00  0.00    +0.000 A 
ATOM     22  C   UNL     1      -2.133  11.932  23.003  0.00  0.00    +0.000 A 
ATOM     23  C   UNL     1      -3.325  12.373  23.637  0.00  0.00    +0.000 A 
ATOM     24  C   UNL     1      -4.153  13.040  22.765  0.00  0.00    +0.000 A 
ATOM     25  S   UNL     1      -3.481  13.137  21.194  0.00  0.00    +0.000 S 
ENDBRANCH   3  21
TORSDOF 3
ENDMDL
MODEL 4
REMARK VINA RESULT:      -7.0      9.111     10.920
REMARK  Name = 
REMARK  4 active torsions:
REMARK  status: ('A' for Active; 'I' for Inactive)
REMARK    1  A    between atoms: C_1  and  C_2
REMARK    2  A    between atoms: C_5  and  C_6
REMARK    3  A    between atoms: C_8  and  C_9
REMARK    4  A    between atoms: C_16  and  C_18
REMARK                            x       y       z     vdW  Elec       q    Type
REMARK                         _______ _______ _______ _____ _____    ______ ____
ROOT
ATOM      1  C   UNL     1       0.258  10.916  18.943  0.00  0.00    +0.000 C 
ATOM      2  C   UNL     1      -1.070  10.732  19.673  0.00  0.00    +0.000 C 
ATOM      3  C   UNL     1      -1.020  11.884  20.633  0.00  0.00    +0.000 C 
ATOM      4  N   UNL     1       0.059  12.602  20.580  0.00  0.00    +0.000 NA
ATOM      5  N   UNL     1       0.874  12.057  19.625  0.00  0.00    +0.000 N 
ATOM      6  C   UNL     1       2.046  12.684  19.177  0.00  0.00    +0.000 C 
ATOM      7  O   UNL     1       2.626  12.287  18.164  0.00  0.00    +0.000 OA
ENDROOT
BRANCH   1  12
ATOM      8  C   UNL     1       3.210   5.885  19.027  0.00  0.00    +0.000 C 
ATOM      9  C   UNL     1       2.506   7.208  19.030  0.00  0.00    +0.000 A 
ATOM     10  C   UNL     1       1.898   7.704  20.187  0.00  0.00    +0.000 A 
ATOM     11  C   UNL     1       1.194   8.911  20.155  0.00  0.00    +0.000 A 
ATOM     12  C   UNL     1       1.082   9.644  18.962  0.00  0.00    +0.000 A 
ATOM     13  C   UNL     1       1.743   9.167  17.821  0.00  0.00    +0.000 A 
ATOM     14  C   UNL     1       2.436   7.956  17.851  0.00  0.00    +0.000 A 
ENDBRANCH   1  12
BRANCH   6  15
ATOM     15  C   UNL     1       2.526  13.821  19.956  0.00  0.00    +0.000 A 
ATOM     16  C   UNL     1       3.311  13.945  21.093  0.00  0.00    +0.000 A 
ATOM     17  C   UNL     1       3.368  15.320  21.419  0.00  0.00    +0.000 A 
ATOM     18  C   UNL     1       2.658  15.969  20.438  0.00  0.00    +0.000 A 
ATOM     19 BR   UNL     1       2.392  17.812  20.356  0.00  0.00    +0.000 Br
ATOM     20  O   UNL     1       2.165  15.080  19.538  0.00  0.00    +0.000 OA
ENDBRANCH   6  15
BRANCH   3  21
ATOM     21  C   UNL     1      -2.067  12.209  21.572  0.00  0.00    +0.000 A 
ATOM     22  C   UNL     1      -2.072  11.968  22.936  0.00  0.00    +0.000 A 
ATOM     23  C   UNL     1      -3.276  12.389  23.562  0.00  0.00    +0.000 A 
ATOM     24  C   UNL     1      -4.155  12.944  22.662  0.00  0.00    +0.000 A 
ATOM     25  S   UNL     1      -3.517  12.962  21.074  0.00  0.00    +0.000 S 
ENDBRANCH   3  21
TORSDOF 3
ENDMDL
MODEL 5
REMARK VINA RESULT:      -7.0      8.835     10.692
REMARK  Name = 
REMARK  4 active torsions:
REMARK  status: ('A' for Active; 'I' for Inactive)
REMARK    1  A    between atoms: C_1  and  C_2
REMARK    2  A    between atoms: C_5  and  C_6
REMARK    3  A    between atoms: C_8  and  C_9
REMARK    4  A    between atoms: C_16  and  C_18
REMARK                            x       y       z     vdW  Elec       q    Type
REMARK                         _______ _______ _______ _____ _____    ______ ____
ROOT
ATOM      1  C   UNL     1       1.063   9.778  19.011  0.00  0.00    +0.000 C 
ATOM      2  C   UNL     1       0.201   9.721  17.752  0.00  0.00    +0.000 C 
ATOM      3  C   UNL     1      -1.052  10.383  18.245  0.00  0.00    +0.000 C 
ATOM      4  N   UNL     1      -1.037  10.739  19.492  0.00  0.00    +0.000 NA
ATOM      5  N   UNL     1       0.175  10.372  20.013  0.00  0.00    +0.000 N 
ATOM      6  C   UNL     1       0.603  10.764  21.290  0.00  0.00    +0.000 C 
ATOM      7  O   UNL     1       1.777  10.615  21.634  0.00  0.00    +0.000 OA
ENDROOT
BRANCH   1  12
ATOM      8  C   UNL     1       2.918   4.410  20.344  0.00  0.00    +0.000 C 
ATOM      9  C   UNL     1       2.489   5.814  20.042  0.00  0.00    +0.000 A 
ATOM     10  C   UNL     1       1.624   6.508  20.893  0.00  0.00    +0.000 A 
ATOM     11  C   UNL     1       1.186   7.793  20.564  0.00  0.00    +0.000 A 
ATOM     12  C   UNL     1       1.604   8.409  19.373  0.00  0.00    +0.000 A 
ATOM     13  C   UNL     1       2.516   7.729  18.554  0.00  0.00    +0.000 A 
ATOM     14  C   UNL     1       2.944   6.440  18.878  0.00  0.00    +0.000 A 
ENDBRANCH   1  12
BRANCH   6  15
ATOM     15  C   UNL     1      -0.399  11.357  22.170  0.00  0.00    +0.000 A 
ATOM     16  C   UNL     1      -1.352  10.835  23.032  0.00  0.00    +0.000 A 
ATOM     17  C   UNL     1      -2.086  11.923  23.558  0.00  0.00    +0.000 A 
ATOM     18  C   UNL     1      -1.514  13.054  23.031  0.00  0.00    +0.000 A 
ATOM     19 BR   UNL     1      -2.079  14.797  23.375  0.00  0.00    +0.000 Br
ATOM     20  O   UNL     1      -0.482  12.729  22.210  0.00  0.00    +0.000 OA
ENDBRANCH   6  15
BRANCH   3  21
ATOM     21  C   UNL     1      -2.220  10.625  17.432  0.00  0.00    +0.000 A 
ATOM     22  C   UNL     1      -2.412  10.251  16.111  0.00  0.00    +0.000 A 
ATOM     23  C   UNL     1      -3.669  10.672  15.600  0.00  0.00    +0.000 A 
ATOM     24  C   UNL     1      -4.405  11.351  16.543  0.00  0.00    +0.000 A 
ATOM     25  S   UNL     1      -3.579  11.464  18.038  0.00  0.00    +0.000 S 
ENDBRANCH   3  21
TORSDOF 3
ENDMDL
MODEL 6
REMARK VINA RESULT:      -6.9      4.117      6.125
REMARK  Name = 
REMARK  4 active torsions:
REMARK  status: ('A' for Active; 'I' for Inactive)
REMARK    1  A    between atoms: C_1  and  C_2
REMARK    2  A    between atoms: C_5  and  C_6
REMARK    3  A    between atoms: C_8  and  C_9
REMARK    4  A    between atoms: C_16  and  C_18
REMARK                            x       y       z     vdW  Elec       q    Type
REMARK                         _______ _______ _______ _____ _____    ______ ____
ROOT
ATOM      1  C   UNL     1       5.280   5.676  17.343  0.00  0.00    +0.000 C 
ATOM      2  C   UNL     1       4.763   7.114  17.336  0.00  0.00    +0.000 C 
ATOM      3  C   UNL     1       3.444   6.936  18.028  0.00  0.00    +0.000 C 
ATOM      4  N   UNL     1       3.152   5.716  18.360  0.00  0.00    +0.000 NA
ATOM      5  N   UNL     1       4.183   4.916  17.946  0.00  0.00    +0.000 N 
ATOM      6  C   UNL     1       4.284   3.563  18.300  0.00  0.00    +0.000 C 
ATOM      7  O   UNL     1       5.329   2.937  18.109  0.00  0.00    +0.000 OA
ENDROOT
BRANCH   1  12
ATOM      8  C   UNL     1       6.936   3.745  12.092  0.00  0.00    +0.000 C 
ATOM      9  C   UNL     1       6.501   4.302  13.414  0.00  0.00    +0.000 A 
ATOM     10  C   UNL     1       7.398   4.978  14.248  0.00  0.00    +0.000 A 
ATOM     11  C   UNL     1       6.990   5.436  15.503  0.00  0.00    +0.000 A 
ATOM     12  C   UNL     1       5.676   5.225  15.951  0.00  0.00    +0.000 A 
ATOM     13  C   UNL     1       4.768   4.597  15.085  0.00  0.00    +0.000 A 
ATOM     14  C   UNL     1       5.180   4.129  13.837  0.00  0.00    +0.000 A 
ENDBRANCH   1  12
BRANCH   6  15
ATOM     15  C   UNL     1       3.108   2.949  18.909  0.00  0.00    +0.000 A 
ATOM     16  C   UNL     1       2.011   2.266  18.405  0.00  0.00    +0.000 A 
ATOM     17  C   UNL     1       1.157   1.977  19.496  0.00  0.00    +0.000 A 
ATOM     18  C   UNL     1       1.798   2.453  20.613  0.00  0.00    +0.000 A 
ATOM     19 BR   UNL     1       1.132   2.353  22.351  0.00  0.00    +0.000 Br
ATOM     20  O   UNL     1       2.985   3.021  20.276  0.00  0.00    +0.000 OA
ENDBRANCH   6  15
BRANCH   3  21
ATOM     21  C   UNL     1       2.527   8.011  18.322  0.00  0.00    +0.000 A 
ATOM     22  C   UNL     1       2.158   9.049  17.481  0.00  0.00    +0.000 A 
ATOM     23  C   UNL     1       1.254   9.957  18.096  0.00  0.00    +0.000 A 
ATOM     24  C   UNL     1       0.952   9.585  19.386  0.00  0.00    +0.000 A 
ATOM     25  S   UNL     1       1.752   8.142  19.839  0.00  0.00    +0.000 S 
ENDBRANCH   3  21
TORSDOF 3
ENDMDL
MODEL 7
REMARK VINA RESULT:      -6.7     10.050     11.750
REMARK  Name = 
REMARK  4 active torsions:
REMARK  status: ('A' for Active; 'I' for Inactive)
REMARK    1  A    between atoms: C_1  and  C_2
REMARK    2  A    between atoms: C_5  and  C_6
REMARK    3  A    between atoms: C_8  and  C_9
REMARK    4  A    between atoms: C_16  and  C_18
REMARK                            x       y       z     vdW  Elec       q    Type
REMARK                         _______ _______ _______ _____ _____    ______ ____
ROOT
ATOM      1  C   UNL     1       0.051  11.195  18.839  0.00  0.00    +0.000 C 
ATOM      2  C   UNL     1      -1.209  10.925  18.020  0.00  0.00    +0.000 C 
ATOM      3  C   UNL     1      -2.236  11.632  18.854  0.00  0.00    +0.000 C 
ATOM      4  N   UNL     1      -1.787  12.179  19.941  0.00  0.00    +0.000 NA
ATOM      5  N   UNL     1      -0.444  11.922  20.010  0.00  0.00    +0.000 N 
ATOM      6  C   UNL     1       0.396  12.517  20.963  0.00  0.00    +0.000 C 
ATOM      7  O   UNL     1       1.622  12.446  20.854  0.00  0.00    +0.000 OA
ENDROOT
BRANCH   1  12
ATOM      8  C   UNL     1       2.678   6.123  20.030  0.00  0.00    +0.000 C 
ATOM      9  C   UNL     1       2.053   7.457  19.757  0.00  0.00    +0.000 A 
ATOM     10  C   UNL     1       1.238   8.085  20.704  0.00  0.00    +0.000 A 
ATOM     11  C   UNL     1       0.613   9.299  20.407  0.00  0.00    +0.000 A 
ATOM     12  C   UNL     1       0.791   9.910  19.155  0.00  0.00    +0.000 A 
ATOM     13  C   UNL     1       1.656   9.302  18.233  0.00  0.00    +0.000 A 
ATOM     14  C   UNL     1       2.270   8.083  18.526  0.00  0.00    +0.000 A 
ENDBRANCH   1  12
BRANCH   6  15
ATOM     15  C   UNL     1      -0.250  13.222  22.065  0.00  0.00    +0.000 A 
ATOM     16  C   UNL     1      -1.151  12.846  23.050  0.00  0.00    +0.000 A 
ATOM     17  C   UNL     1      -1.469  14.006  23.795  0.00  0.00    +0.000 A 
ATOM     18  C   UNL     1      -0.711  15.018  23.260  0.00  0.00    +0.000 A 
ATOM     19 BR   UNL     1      -0.723  16.788  23.846  0.00  0.00    +0.000 Br
ATOM     20  O   UNL     1       0.045  14.554  22.231  0.00  0.00    +0.000 OA
ENDBRANCH   6  15
BRANCH   3  21
ATOM     21  C   UNL     1      -3.637  11.722  18.518  0.00  0.00    +0.000 A 
ATOM     22  C   UNL     1      -4.242  11.316  17.339  0.00  0.00    +0.000 A 
ATOM     23  C   UNL     1      -5.639  11.575  17.324  0.00  0.00    +0.000 A 
ATOM     24  C   UNL     1      -6.065  12.165  18.491  0.00  0.00    +0.000 A 
ATOM     25  S   UNL     1      -4.779  12.391  19.598  0.00  0.00    +0.000 S 
ENDBRANCH   3  21
TORSDOF 3
ENDMDL
MODEL 8
REMARK VINA RESULT:      -6.7      9.200     10.895
REMARK  Name = 
REMARK  4 active torsions:
REMARK  status: ('A' for Active; 'I' for Inactive)
REMARK    1  A    between atoms: C_1  and  C_2
REMARK    2  A    between atoms: C_5  and  C_6
REMARK    3  A    between atoms: C_8  and  C_9
REMARK    4  A    between atoms: C_16  and  C_18
REMARK                            x       y       z     vdW  Elec       q    Type
REMARK                         _______ _______ _______ _____ _____    ______ ____
ROOT
ATOM      1  C   UNL     1       0.304  10.781  19.749  0.00  0.00    +0.000 C 
ATOM      2  C   UNL     1       1.118  12.066  19.881  0.00  0.00    +0.000 C 
ATOM      3  C   UNL     1       0.306  12.996  19.028  0.00  0.00    +0.000 C 
ATOM      4  N   UNL     1      -0.730  12.463  18.458  0.00  0.00    +0.000 NA
ATOM      5  N   UNL     1      -0.765  11.141  18.814  0.00  0.00    +0.000 N 
ATOM      6  C   UNL     1      -1.852  10.305  18.523  0.00  0.00    +0.000 C 
ATOM      7  O   UNL     1      -1.954   9.196  19.053  0.00  0.00    +0.000 OA
ENDROOT
BRANCH   1  12
ATOM      8  C   UNL     1       3.431   6.170  18.017  0.00  0.00    +0.000 C 
ATOM      9  C   UNL     1       2.683   7.379  18.492  0.00  0.00    +0.000 A 
ATOM     10  C   UNL     1       2.149   7.442  19.783  0.00  0.00    +0.000 A 
ATOM     11  C   UNL     1       1.401   8.551  20.186  0.00  0.00    +0.000 A 
ATOM     12  C   UNL     1       1.172   9.620  19.305  0.00  0.00    +0.000 A 
ATOM     13  C   UNL     1       1.759   9.574  18.032  0.00  0.00    +0.000 A 
ATOM     14  C   UNL     1       2.495   8.460  17.626  0.00  0.00    +0.000 A 
ENDBRANCH   1  12
BRANCH   6  15
ATOM     15  C   UNL     1      -2.845  10.814  17.583  0.00  0.00    +0.000 A 
ATOM     16  C   UNL     1      -2.918  10.873  16.199  0.00  0.00    +0.000 A 
ATOM     17  C   UNL     1      -4.110  11.558  15.868  0.00  0.00    +0.000 A 
ATOM     18  C   UNL     1      -4.728  11.838  17.062  0.00  0.00    +0.000 A 
ATOM     19 BR   UNL     1      -6.349  12.741  17.240  0.00  0.00    +0.000 Br
ATOM     20  O   UNL     1      -3.987  11.375  18.102  0.00  0.00    +0.000 OA
ENDBRANCH   6  15
BRANCH   3  21
ATOM     21  C   UNL     1       0.617  14.391  18.821  0.00  0.00    +0.000 A 
ATOM     22  C   UNL     1      -0.279  15.446  18.750  0.00  0.00    +0.000 A 
ATOM     23  C   UNL     1       0.360  16.691  18.507  0.00  0.00    +0.000 A 
ATOM     24  C   UNL     1       1.725  16.556  18.404  0.00  0.00    +0.000 A 
ATOM     25  S   UNL     1       2.224  14.932  18.613  0.00  0.00    +0.000 S 
ENDBRANCH   3  21
TORSDOF 3
ENDMDL
MODEL 9
REMARK VINA RESULT:      -6.6      8.858     10.961
REMARK  Name = 
REMARK  4 active torsions:
REMARK  status: ('A' for Active; 'I' for Inactive)
REMARK    1  A    between atoms: C_1  and  C_2
REMARK    2  A    between atoms: C_5  and  C_6
REMARK    3  A    between atoms: C_8  and  C_9
REMARK    4  A    between atoms: C_16  and  C_18
REMARK                            x       y       z     vdW  Elec       q    Type
REMARK                         _______ _______ _______ _____ _____    ______ ____
ROOT
ATOM      1  C   UNL     1      -0.483  12.883  19.472  0.00  0.00    +0.000 C 
ATOM      2  C   UNL     1       0.439  14.090  19.637  0.00  0.00    +0.000 C 
ATOM      3  C   UNL     1       1.773  13.455  19.375  0.00  0.00    +0.000 C 
ATOM      4  N   UNL     1       1.744  12.179  19.143  0.00  0.00    +0.000 NA
ATOM      5  N   UNL     1       0.439  11.772  19.226  0.00  0.00    +0.000 N 
ATOM      6  C   UNL     1       0.019  10.487  18.854  0.00  0.00    +0.000 C 
ATOM      7  O   UNL     1      -1.179  10.229  18.721  0.00  0.00    +0.000 OA
ENDROOT
BRANCH   1  12
ATOM      8  C   UNL     1      -3.860  12.423  24.207  0.00  0.00    +0.000 C 
ATOM      9  C   UNL     1      -2.996  12.474  22.984  0.00  0.00    +0.000 A 
ATOM     10  C   UNL     1      -1.620  12.237  23.056  0.00  0.00    +0.000 A 
ATOM     11  C   UNL     1      -0.821  12.350  21.915  0.00  0.00    +0.000 A 
ATOM     12  C   UNL     1      -1.384  12.706  20.678  0.00  0.00    +0.000 A 
ATOM     13  C   UNL     1      -2.773  12.886  20.604  0.00  0.00    +0.000 A 
ATOM     14  C   UNL     1      -3.568  12.784  21.746  0.00  0.00    +0.000 A 
ENDBRANCH   1  12
BRANCH   6  15
ATOM     15  C   UNL     1       1.061   9.491  18.627  0.00  0.00    +0.000 A 
ATOM     16  C   UNL     1       2.005   9.297  17.629  0.00  0.00    +0.000 A 
ATOM     17  C   UNL     1       2.695   8.099  17.928  0.00  0.00    +0.000 A 
ATOM     18  C   UNL     1       2.173   7.649  19.116  0.00  0.00    +0.000 A 
ATOM     19 BR   UNL     1       2.703   6.093  19.995  0.00  0.00    +0.000 Br
ATOM     20  O   UNL     1       1.203   8.490  19.559  0.00  0.00    +0.000 OA
ENDBRANCH   6  15
BRANCH   3  21
ATOM     21  C   UNL     1       3.028  14.168  19.374  0.00  0.00    +0.000 A 
ATOM     22  C   UNL     1       3.768  14.558  18.269  0.00  0.00    +0.000 A 
ATOM     23  C   UNL     1       4.975  15.219  18.624  0.00  0.00    +0.000 A 
ATOM     24  C   UNL     1       5.121  15.323  19.988  0.00  0.00    +0.000 A 
ATOM     25  S   UNL     1       3.799  14.632  20.826  0.00  0.00    +0.000 S 
ENDBRANCH   3  21
TORSDOF 3
ENDMDL
