MODEL 1
REMARK VINA RESULT:      -8.7      0.000      0.000
REMARK  Name = 
REMARK  10 active torsions:
REMARK  status: ('A' for Active; 'I' for Inactive)
REMARK    1  A    between atoms: C_1  and  C_2
REMARK    2  A    between atoms: C_2  and  N_3
REMARK    3  A    between atoms: C_2  and  C_20
REMARK    4  A    between atoms: N_3  and  C_4
REMARK    5  A    between atoms: C_4  and  C_5
REMARK    6  A    between atoms: C_8  and  C_9
REMARK    7  A    between atoms: C_12  and  C_13
REMARK    8  A    between atoms: C_23  and  N_24
REMARK    9  A    between atoms: N_24  and  S_25
REMARK   10  A    between atoms: S_25  and  C_26
REMARK                            x       y       z     vdW  Elec       q    Type
REMARK                         _______ _______ _______ _____ _____    ______ ____
ROOT
ATOM      1  N   UNL     1       1.903   6.354  20.513  0.00  0.00    +0.000 NA
ATOM      2  H   UNL     1       0.886   6.318  20.431  0.00  0.00    +0.000 HD
ENDROOT
BRANCH   1   4
ATOM      3  C   UNL     1       1.272   3.947  20.807  0.00  0.00    +0.000 C 
ATOM      4  C   UNL     1       2.405   4.963  20.605  0.00  0.00    +0.000 C 
BRANCH   4   5
ATOM      5  C   UNL     1       3.235   4.539  19.390  0.00  0.00    +0.000 A 
ATOM      6  C   UNL     1       4.638   4.637  19.453  0.00  0.00    +0.000 A 
ATOM      7  C   UNL     1       5.440   4.271  18.367  0.00  0.00    +0.000 A 
ATOM      8  C   UNL     1       4.855   3.772  17.207  0.00  0.00    +0.000 A 
ATOM      9  C   UNL     1       3.472   3.615  17.141  0.00  0.00    +0.000 A 
ATOM     10  C   UNL     1       2.667   3.999  18.225  0.00  0.00    +0.000 A 
BRANCH   8  11
ATOM     11  N   UNL     1       5.664   3.490  16.077  0.00  0.00    +0.000 N 
ATOM     12  H   UNL     1       5.486   2.637  15.550  0.00  0.00    +0.000 HD
BRANCH  11  13
ATOM     13  S   UNL     1       6.426   4.710  15.226  0.00  0.00    +0.000 S 
ATOM     14  C   UNL     1       6.477   4.087  13.553  0.00  0.00    +0.000 C 
ATOM     15  O   UNL     1       5.603   5.899  15.252  0.00  0.00    +0.000 OA
ATOM     16  O   UNL     1       7.794   4.725  15.714  0.00  0.00    +0.000 OA
ENDBRANCH  11  13
ENDBRANCH   8  11
ENDBRANCH   4   5
ENDBRANCH   1   4
BRANCH   1  17
ATOM     17  C   UNL     1       2.420   7.029  19.309  0.00  0.00    +0.000 C 
BRANCH  17  18
ATOM     18  C   UNL     1       1.917   8.418  19.115  0.00  0.00    +0.000 A 
ATOM     19  C   UNL     1       1.934   9.328  18.080  0.00  0.00    +0.000 A 
ATOM     20  C   UNL     1       1.101  10.405  18.480  0.00  0.00    +0.000 A 
ATOM     21  C   UNL     1       0.618  10.098  19.738  0.00  0.00    +0.000 A 
ATOM     22  O   UNL     1       1.143   8.901  20.135  0.00  0.00    +0.000 OA
BRANCH  21  23
ATOM     23  C   UNL     1      -0.342  10.727  20.648  0.00  0.00    +0.000 A 
ATOM     24  C   UNL     1      -0.303  10.448  22.023  0.00  0.00    +0.000 A 
ATOM     25  C   UNL     1      -1.162  11.096  22.919  0.00  0.00    +0.000 A 
ATOM     26  C   UNL     1      -2.090  12.042  22.463  0.00  0.00    +0.000 A 
ATOM     27  C   UNL     1      -2.154  12.307  21.088  0.00  0.00    +0.000 A 
ATOM     28  C   UNL     1      -1.292  11.656  20.195  0.00  0.00    +0.000 A 
BRANCH  26  29
ATOM     29  C   UNL     1      -2.990  12.778  23.426  0.00  0.00    +0.000 C 
ATOM     30  F   UNL     1      -3.606  11.962  24.327  0.00  0.00    +0.000 F 
ATOM     31  F   UNL     1      -2.315  13.703  24.165  0.00  0.00    +0.000 F 
ATOM     32  F   UNL     1      -3.987  13.459  22.797  0.00  0.00    +0.000 F 
ENDBRANCH  26  29
ENDBRANCH  21  23
ENDBRANCH  17  18
ENDBRANCH   1  17
TORSDOF 8
ENDMDL
MODEL 2
REMARK VINA RESULT:      -8.5      1.323      2.091
REMARK  Name = 
REMARK  10 active torsions:
REMARK  status: ('A' for Active; 'I' for Inactive)
REMARK    1  A    between atoms: C_1  and  C_2
REMARK    2  A    between atoms: C_2  and  N_3
REMARK    3  A    between atoms: C_2  and  C_20
REMARK    4  A    between atoms: N_3  and  C_4
REMARK    5  A    between atoms: C_4  and  C_5
REMARK    6  A    between atoms: C_8  and  C_9
REMARK    7  A    between atoms: C_12  and  C_13
REMARK    8  A    between atoms: C_23  and  N_24
REMARK    9  A    between atoms: N_24  and  S_25
REMARK   10  A    between atoms: S_25  and  C_26
REMARK                            x       y       z     vdW  Elec       q    Type
REMARK                         _______ _______ _______ _____ _____    ______ ____
ROOT
ATOM      1  N   UNL     1       2.593   4.072  21.217  0.00  0.00    +0.000 NA
ATOM      2  H   UNL     1       2.287   3.517  22.018  0.00  0.00    +0.000 HD
ENDROOT
BRANCH   1   4
ATOM      3  C   UNL     1       2.059   2.259  19.571  0.00  0.00    +0.000 C 
ATOM      4  C   UNL     1       3.143   3.145  20.201  0.00  0.00    +0.000 C 
BRANCH   4   5
ATOM      5  C   UNL     1       3.905   3.861  19.081  0.00  0.00    +0.000 A 
ATOM      6  C   UNL     1       3.431   3.760  17.759  0.00  0.00    +0.000 A 
ATOM      7  C   UNL     1       4.096   4.388  16.701  0.00  0.00    +0.000 A 
ATOM      8  C   UNL     1       5.232   5.153  16.948  0.00  0.00    +0.000 A 
ATOM      9  C   UNL     1       5.688   5.312  18.255  0.00  0.00    +0.000 A 
ATOM     10  C   UNL     1       5.030   4.668  19.315  0.00  0.00    +0.000 A 
BRANCH   8  11
ATOM     11  N   UNL     1       5.954   5.710  15.863  0.00  0.00    +0.000 N 
ATOM     12  H   UNL     1       6.034   6.723  15.798  0.00  0.00    +0.000 HD
BRANCH  11  13
ATOM     13  S   UNL     1       7.154   4.848  15.082  0.00  0.00    +0.000 S 
ATOM     14  C   UNL     1       6.251   3.784  13.968  0.00  0.00    +0.000 C 
ATOM     15  O   UNL     1       7.966   5.754  14.301  0.00  0.00    +0.000 OA
ATOM     16  O   UNL     1       7.740   3.993  16.101  0.00  0.00    +0.000 OA
ENDBRANCH  11  13
ENDBRANCH   8  11
ENDBRANCH   4   5
ENDBRANCH   1   4
BRANCH   1  17
ATOM     17  C   UNL     1       1.416   4.792  20.701  0.00  0.00    +0.000 C 
BRANCH  17  18
ATOM     18  C   UNL     1       1.653   6.232  20.403  0.00  0.00    +0.000 A 
ATOM     19  C   UNL     1       2.320   6.930  19.419  0.00  0.00    +0.000 A 
ATOM     20  C   UNL     1       1.994   8.297  19.607  0.00  0.00    +0.000 A 
ATOM     21  C   UNL     1       1.146   8.367  20.696  0.00  0.00    +0.000 A 
ATOM     22  O   UNL     1       0.966   7.108  21.199  0.00  0.00    +0.000 OA
BRANCH  21  23
ATOM     23  C   UNL     1       0.390   9.443  21.340  0.00  0.00    +0.000 A 
ATOM     24  C   UNL     1       0.117  10.631  20.644  0.00  0.00    +0.000 A 
ATOM     25  C   UNL     1      -0.669  11.640  21.214  0.00  0.00    +0.000 A 
ATOM     26  C   UNL     1      -1.202  11.491  22.501  0.00  0.00    +0.000 A 
ATOM     27  C   UNL     1      -0.912  10.319  23.213  0.00  0.00    +0.000 A 
ATOM     28  C   UNL     1      -0.125   9.311  22.638  0.00  0.00    +0.000 A 
BRANCH  26  29
ATOM     29  C   UNL     1      -2.086  12.554  23.106  0.00  0.00    +0.000 C 
ATOM     30  F   UNL     1      -3.045  12.057  23.938  0.00  0.00    +0.000 F 
ATOM     31  F   UNL     1      -1.383  13.454  23.849  0.00  0.00    +0.000 F 
ATOM     32  F   UNL     1      -2.749  13.283  22.167  0.00  0.00    +0.000 F 
ENDBRANCH  26  29
ENDBRANCH  21  23
ENDBRANCH  17  18
ENDBRANCH   1  17
TORSDOF 8
ENDMDL
MODEL 3
REMARK VINA RESULT:      -8.1      1.524      2.492
REMARK  Name = 
REMARK  10 active torsions:
REMARK  status: ('A' for Active; 'I' for Inactive)
REMARK    1  A    between atoms: C_1  and  C_2
REMARK    2  A    between atoms: C_2  and  N_3
REMARK    3  A    between atoms: C_2  and  C_20
REMARK    4  A    between atoms: N_3  and  C_4
REMARK    5  A    between atoms: C_4  and  C_5
REMARK    6  A    between atoms: C_8  and  C_9
REMARK    7  A    between atoms: C_12  and  C_13
REMARK    8  A    between atoms: C_23  and  N_24
REMARK    9  A    between atoms: N_24  and  S_25
REMARK   10  A    between atoms: S_25  and  C_26
REMARK                            x       y       z     vdW  Elec       q    Type
REMARK                         _______ _______ _______ _____ _____    ______ ____
ROOT
ATOM      1  N   UNL     1       2.592   3.534  21.008  0.00  0.00    +0.000 NA
ATOM      2  H   UNL     1       2.364   2.954  21.816  0.00  0.00    +0.000 HD
ENDROOT
BRANCH   1   4
ATOM      3  C   UNL     1       1.675   2.331  19.010  0.00  0.00    +0.000 C 
ATOM      4  C   UNL     1       2.908   2.635  19.873  0.00  0.00    +0.000 C 
BRANCH   4   5
ATOM      5  C   UNL     1       4.021   3.173  18.969  0.00  0.00    +0.000 A 
ATOM      6  C   UNL     1       3.938   2.957  17.581  0.00  0.00    +0.000 A 
ATOM      7  C   UNL     1       4.933   3.420  16.713  0.00  0.00    +0.000 A 
ATOM      8  C   UNL     1       6.017   4.134  17.217  0.00  0.00    +0.000 A 
ATOM      9  C   UNL     1       6.093   4.408  18.581  0.00  0.00    +0.000 A 
ATOM     10  C   UNL     1       5.103   3.927  19.452  0.00  0.00    +0.000 A 
BRANCH   8  11
ATOM     11  N   UNL     1       7.069   4.521  16.347  0.00  0.00    +0.000 N 
ATOM     12  H   UNL     1       8.007   4.170  16.531  0.00  0.00    +0.000 HD
BRANCH  11  13
ATOM     13  S   UNL     1       6.770   4.969  14.766  0.00  0.00    +0.000 S 
ATOM     14  C   UNL     1       5.449   6.163  14.909  0.00  0.00    +0.000 C 
ATOM     15  O   UNL     1       7.936   5.632  14.226  0.00  0.00    +0.000 OA
ATOM     16  O   UNL     1       6.207   3.790  14.130  0.00  0.00    +0.000 OA
ENDBRANCH  11  13
ENDBRANCH   8  11
ENDBRANCH   4   5
ENDBRANCH   1   4
BRANCH   1  17
ATOM     17  C   UNL     1       1.414   4.369  20.715  0.00  0.00    +0.000 C 
BRANCH  17  18
ATOM     18  C   UNL     1       1.726   5.795  20.416  0.00  0.00    +0.000 A 
ATOM     19  C   UNL     1       2.469   6.454  19.461  0.00  0.00    +0.000 A 
ATOM     20  C   UNL     1       2.192   7.836  19.620  0.00  0.00    +0.000 A 
ATOM     21  C   UNL     1       1.294   7.952  20.665  0.00  0.00    +0.000 A 
ATOM     22  O   UNL     1       1.037   6.708  21.169  0.00  0.00    +0.000 OA
BRANCH  21  23
ATOM     23  C   UNL     1       0.553   9.066  21.261  0.00  0.00    +0.000 A 
ATOM     24  C   UNL     1       0.150  10.152  20.469  0.00  0.00    +0.000 A 
ATOM     25  C   UNL     1      -0.625  11.190  21.003  0.00  0.00    +0.000 A 
ATOM     26  C   UNL     1      -1.017  11.170  22.347  0.00  0.00    +0.000 A 
ATOM     27  C   UNL     1      -0.597  10.102  23.151  0.00  0.00    +0.000 A 
ATOM     28  C   UNL     1       0.179   9.066  22.613  0.00  0.00    +0.000 A 
BRANCH  26  29
ATOM     29  C   UNL     1      -1.889  12.261  22.920  0.00  0.00    +0.000 C 
ATOM     30  F   UNL     1      -2.618  12.927  21.980  0.00  0.00    +0.000 F 
ATOM     31  F   UNL     1      -2.794  11.785  23.821  0.00  0.00    +0.000 F 
ATOM     32  F   UNL     1      -1.174  13.213  23.579  0.00  0.00    +0.000 F 
ENDBRANCH  26  29
ENDBRANCH  21  23
ENDBRANCH  17  18
ENDBRANCH   1  17
TORSDOF 8
ENDMDL
MODEL 4
REMARK VINA RESULT:      -8.1      1.306      2.112
REMARK  Name = 
REMARK  10 active torsions:
REMARK  status: ('A' for Active; 'I' for Inactive)
REMARK    1  A    between atoms: C_1  and  C_2
REMARK    2  A    between atoms: C_2  and  N_3
REMARK    3  A    between atoms: C_2  and  C_20
REMARK    4  A    between atoms: N_3  and  C_4
REMARK    5  A    between atoms: C_4  and  C_5
REMARK    6  A    between atoms: C_8  and  C_9
REMARK    7  A    between atoms: C_12  and  C_13
REMARK    8  A    between atoms: C_23  and  N_24
REMARK    9  A    between atoms: N_24  and  S_25
REMARK   10  A    between atoms: S_25  and  C_26
REMARK                            x       y       z     vdW  Elec       q    Type
REMARK                         _______ _______ _______ _____ _____    ______ ____
ROOT
ATOM      1  N   UNL     1       1.233   4.815  20.572  0.00  0.00    +0.000 NA
ATOM      2  H   UNL     1       0.522   5.232  19.969  0.00  0.00    +0.000 HD
ENDROOT
BRANCH   1   4
ATOM      3  C   UNL     1       0.434   2.806  19.305  0.00  0.00    +0.000 C 
ATOM      4  C   UNL     1       1.615   3.506  19.993  0.00  0.00    +0.000 C 
BRANCH   4   5
ATOM      5  C   UNL     1       2.777   3.600  19.000  0.00  0.00    +0.000 A 
ATOM      6  C   UNL     1       2.500   3.878  17.648  0.00  0.00    +0.000 A 
ATOM      7  C   UNL     1       3.525   3.965  16.701  0.00  0.00    +0.000 A 
ATOM      8  C   UNL     1       4.851   3.805  17.094  0.00  0.00    +0.000 A 
ATOM      9  C   UNL     1       5.154   3.584  18.436  0.00  0.00    +0.000 A 
ATOM     10  C   UNL     1       4.123   3.479  19.383  0.00  0.00    +0.000 A 
BRANCH   8  11
ATOM     11  N   UNL     1       5.878   3.803  16.116  0.00  0.00    +0.000 N 
ATOM     12  H   UNL     1       5.669   3.436  15.190  0.00  0.00    +0.000 HD
BRANCH  11  13
ATOM     13  S   UNL     1       7.148   4.886  16.185  0.00  0.00    +0.000 S 
ATOM     14  C   UNL     1       6.393   6.381  16.807  0.00  0.00    +0.000 C 
ATOM     15  O   UNL     1       8.121   4.424  17.150  0.00  0.00    +0.000 OA
ATOM     16  O   UNL     1       7.515   5.141  14.803  0.00  0.00    +0.000 OA
ENDBRANCH  11  13
ENDBRANCH   8  11
ENDBRANCH   4   5
ENDBRANCH   1   4
BRANCH   1  17
ATOM     17  C   UNL     1       2.382   5.738  20.606  0.00  0.00    +0.000 C 
BRANCH  17  18
ATOM     18  C   UNL     1       2.154   7.034  19.907  0.00  0.00    +0.000 A 
ATOM     19  C   UNL     1       2.386   7.513  18.635  0.00  0.00    +0.000 A 
ATOM     20  C   UNL     1       1.751   8.779  18.562  0.00  0.00    +0.000 A 
ATOM     21  C   UNL     1       1.164   9.010  19.792  0.00  0.00    +0.000 A 
ATOM     22  O   UNL     1       1.439   7.958  20.620  0.00  0.00    +0.000 OA
BRANCH  21  23
ATOM     23  C   UNL     1       0.298  10.060  20.333  0.00  0.00    +0.000 A 
ATOM     24  C   UNL     1      -0.556  10.781  19.485  0.00  0.00    +0.000 A 
ATOM     25  C   UNL     1      -1.446  11.736  19.994  0.00  0.00    +0.000 A 
ATOM     26  C   UNL     1      -1.504  11.998  21.369  0.00  0.00    +0.000 A 
ATOM     27  C   UNL     1      -0.636  11.301  22.220  0.00  0.00    +0.000 A 
ATOM     28  C   UNL     1       0.253  10.347  21.706  0.00  0.00    +0.000 A 
BRANCH  26  29
ATOM     29  C   UNL     1      -2.491  12.993  21.931  0.00  0.00    +0.000 C 
ATOM     30  F   UNL     1      -3.457  13.363  21.044  0.00  0.00    +0.000 F 
ATOM     31  F   UNL     1      -3.153  12.510  23.020  0.00  0.00    +0.000 F 
ATOM     32  F   UNL     1      -1.897  14.148  22.338  0.00  0.00    +0.000 F 
ENDBRANCH  26  29
ENDBRANCH  21  23
ENDBRANCH  17  18
ENDBRANCH   1  17
TORSDOF 8
ENDMDL
MODEL 5
REMARK VINA RESULT:      -7.9      1.272      1.633
REMARK  Name = 
REMARK  10 active torsions:
REMARK  status: ('A' for Active; 'I' for Inactive)
REMARK    1  A    between atoms: C_1  and  C_2
REMARK    2  A    between atoms: C_2  and  N_3
REMARK    3  A    between atoms: C_2  and  C_20
REMARK    4  A    between atoms: N_3  and  C_4
REMARK    5  A    between atoms: C_4  and  C_5
REMARK    6  A    between atoms: C_8  and  C_9
REMARK    7  A    between atoms: C_12  and  C_13
REMARK    8  A    between atoms: C_23  and  N_24
REMARK    9  A    between atoms: N_24  and  S_25
REMARK   10  A    between atoms: S_25  and  C_26
REMARK                            x       y       z     vdW  Elec       q    Type
REMARK                         _______ _______ _______ _____ _____    ______ ____
ROOT
ATOM      1  N   UNL     1       1.276   4.085  20.316  0.00  0.00    +0.000 NA
ATOM      2  H   UNL     1       0.875   4.567  19.510  0.00  0.00    +0.000 HD
ENDROOT
BRANCH   1   4
ATOM      3  C   UNL     1       1.702   1.883  19.199  0.00  0.00    +0.000 C 
ATOM      4  C   UNL     1       2.311   3.148  19.821  0.00  0.00    +0.000 C 
BRANCH   4   5
ATOM      5  C   UNL     1       3.266   3.784  18.807  0.00  0.00    +0.000 A 
ATOM      6  C   UNL     1       4.520   4.248  19.246  0.00  0.00    +0.000 A 
ATOM      7  C   UNL     1       5.424   4.845  18.362  0.00  0.00    +0.000 A 
ATOM      8  C   UNL     1       5.102   4.962  17.012  0.00  0.00    +0.000 A 
ATOM      9  C   UNL     1       3.890   4.461  16.544  0.00  0.00    +0.000 A 
ATOM     10  C   UNL     1       2.976   3.878  17.436  0.00  0.00    +0.000 A 
BRANCH   8  11
ATOM     11  N   UNL     1       5.981   5.650  16.137  0.00  0.00    +0.000 N 
ATOM     12  H   UNL     1       6.140   6.644  16.288  0.00  0.00    +0.000 HD
BRANCH  11  13
ATOM     13  S   UNL     1       7.196   4.848  15.317  0.00  0.00    +0.000 S 
ATOM     14  C   UNL     1       6.311   3.767  14.205  0.00  0.00    +0.000 C 
ATOM     15  O   UNL     1       7.954   5.798  14.534  0.00  0.00    +0.000 OA
ATOM     16  O   UNL     1       7.838   4.001  16.309  0.00  0.00    +0.000 OA
ENDBRANCH  11  13
ENDBRANCH   8  11
ENDBRANCH   4   5
ENDBRANCH   1   4
BRANCH   1  17
ATOM     17  C   UNL     1       1.862   5.110  21.198  0.00  0.00    +0.000 C 
BRANCH  17  18
ATOM     18  C   UNL     1       1.817   6.495  20.651  0.00  0.00    +0.000 A 
ATOM     19  C   UNL     1       2.240   7.101  19.488  0.00  0.00    +0.000 A 
ATOM     20  C   UNL     1       1.710   8.417  19.506  0.00  0.00    +0.000 A 
ATOM     21  C   UNL     1       0.991   8.549  20.679  0.00  0.00    +0.000 A 
ATOM     22  O   UNL     1       1.085   7.385  21.390  0.00  0.00    +0.000 OA
BRANCH  21  23
ATOM     23  C   UNL     1       0.140   9.596  21.248  0.00  0.00    +0.000 A 
ATOM     24  C   UNL     1      -0.197   9.575  22.609  0.00  0.00    +0.000 A 
ATOM     25  C   UNL     1      -0.946  10.607  23.188  0.00  0.00    +0.000 A 
ATOM     26  C   UNL     1      -1.382  11.692  22.416  0.00  0.00    +0.000 A 
ATOM     27  C   UNL     1      -1.073  11.708  21.050  0.00  0.00    +0.000 A 
ATOM     28  C   UNL     1      -0.323  10.673  20.475  0.00  0.00    +0.000 A 
BRANCH  26  29
ATOM     29  C   UNL     1      -2.152  12.831  23.040  0.00  0.00    +0.000 C 
ATOM     30  F   UNL     1      -3.232  12.427  23.766  0.00  0.00    +0.000 F 
ATOM     31  F   UNL     1      -1.388  13.570  23.893  0.00  0.00    +0.000 F 
ATOM     32  F   UNL     1      -2.632  13.708  22.116  0.00  0.00    +0.000 F 
ENDBRANCH  26  29
ENDBRANCH  21  23
ENDBRANCH  17  18
ENDBRANCH   1  17
TORSDOF 8
ENDMDL
MODEL 6
REMARK VINA RESULT:      -7.9      0.921      1.749
REMARK  Name = 
REMARK  10 active torsions:
REMARK  status: ('A' for Active; 'I' for Inactive)
REMARK    1  A    between atoms: C_1  and  C_2
REMARK    2  A    between atoms: C_2  and  N_3
REMARK    3  A    between atoms: C_2  and  C_20
REMARK    4  A    between atoms: N_3  and  C_4
REMARK    5  A    between atoms: C_4  and  C_5
REMARK    6  A    between atoms: C_8  and  C_9
REMARK    7  A    between atoms: C_12  and  C_13
REMARK    8  A    between atoms: C_23  and  N_24
REMARK    9  A    between atoms: N_24  and  S_25
REMARK   10  A    between atoms: S_25  and  C_26
REMARK                            x       y       z     vdW  Elec       q    Type
REMARK                         _______ _______ _______ _____ _____    ______ ____
ROOT
ATOM      1  N   UNL     1       1.709   5.161  20.059  0.00  0.00    +0.000 NA
ATOM      2  H   UNL     1       1.829   5.569  19.130  0.00  0.00    +0.000 HD
ENDROOT
BRANCH   1   4
ATOM      3  C   UNL     1       2.196   2.719  20.334  0.00  0.00    +0.000 C 
ATOM      4  C   UNL     1       2.767   4.142  20.252  0.00  0.00    +0.000 C 
BRANCH   4   5
ATOM      5  C   UNL     1       3.845   4.177  19.164  0.00  0.00    +0.000 A 
ATOM      6  C   UNL     1       3.586   3.562  17.925  0.00  0.00    +0.000 A 
ATOM      7  C   UNL     1       4.541   3.559  16.903  0.00  0.00    +0.000 A 
ATOM      8  C   UNL     1       5.763   4.198  17.092  0.00  0.00    +0.000 A 
ATOM      9  C   UNL     1       6.021   4.861  18.290  0.00  0.00    +0.000 A 
ATOM     10  C   UNL     1       5.068   4.848  19.321  0.00  0.00    +0.000 A 
BRANCH   8  11
ATOM     11  N   UNL     1       6.763   4.114  16.089  0.00  0.00    +0.000 N 
ATOM     12  H   UNL     1       7.315   3.261  16.021  0.00  0.00    +0.000 HD
BRANCH  11  13
ATOM     13  S   UNL     1       6.667   5.016  14.686  0.00  0.00    +0.000 S 
ATOM     14  C   UNL     1       6.163   3.825  13.454  0.00  0.00    +0.000 C 
ATOM     15  O   UNL     1       5.624   6.008  14.825  0.00  0.00    +0.000 OA
ATOM     16  O   UNL     1       8.035   5.394  14.375  0.00  0.00    +0.000 OA
ENDBRANCH  11  13
ENDBRANCH   8  11
ENDBRANCH   4   5
ENDBRANCH   1   4
BRANCH   1  17
ATOM     17  C   UNL     1       1.835   6.252  21.042  0.00  0.00    +0.000 C 
BRANCH  17  18
ATOM     18  C   UNL     1       1.571   7.612  20.493  0.00  0.00    +0.000 A 
ATOM     19  C   UNL     1       1.796   8.239  19.286  0.00  0.00    +0.000 A 
ATOM     20  C   UNL     1       1.122   9.486  19.351  0.00  0.00    +0.000 A 
ATOM     21  C   UNL     1       0.521   9.558  20.594  0.00  0.00    +0.000 A 
ATOM     22  O   UNL     1       0.824   8.427  21.299  0.00  0.00    +0.000 OA
BRANCH  21  23
ATOM     23  C   UNL     1      -0.380  10.512  21.244  0.00  0.00    +0.000 A 
ATOM     24  C   UNL     1      -1.064  11.472  20.482  0.00  0.00    +0.000 A 
ATOM     25  C   UNL     1      -1.987  12.344  21.073  0.00  0.00    +0.000 A 
ATOM     26  C   UNL     1      -2.251  12.281  22.447  0.00  0.00    +0.000 A 
ATOM     27  C   UNL     1      -1.554  11.342  23.220  0.00  0.00    +0.000 A 
ATOM     28  C   UNL     1      -0.630  10.472  22.624  0.00  0.00    +0.000 A 
BRANCH  26  29
ATOM     29  C   UNL     1      -3.276  13.186  23.086  0.00  0.00    +0.000 C 
ATOM     30  F   UNL     1      -3.931  13.983  22.194  0.00  0.00    +0.000 F 
ATOM     31  F   UNL     1      -4.247  12.490  23.742  0.00  0.00    +0.000 F 
ATOM     32  F   UNL     1      -2.733  14.027  24.008  0.00  0.00    +0.000 F 
ENDBRANCH  26  29
ENDBRANCH  21  23
ENDBRANCH  17  18
ENDBRANCH   1  17
TORSDOF 8
ENDMDL
MODEL 7
REMARK VINA RESULT:      -7.9      6.429      8.795
REMARK  Name = 
REMARK  10 active torsions:
REMARK  status: ('A' for Active; 'I' for Inactive)
REMARK    1  A    between atoms: C_1  and  C_2
REMARK    2  A    between atoms: C_2  and  N_3
REMARK    3  A    between atoms: C_2  and  C_20
REMARK    4  A    between atoms: N_3  and  C_4
REMARK    5  A    between atoms: C_4  and  C_5
REMARK    6  A    between atoms: C_8  and  C_9
REMARK    7  A    between atoms: C_12  and  C_13
REMARK    8  A    between atoms: C_23  and  N_24
REMARK    9  A    between atoms: N_24  and  S_25
REMARK   10  A    between atoms: S_25  and  C_26
REMARK                            x       y       z     vdW  Elec       q    Type
REMARK                         _______ _______ _______ _____ _____    ______ ____
ROOT
ATOM      1  N   UNL     1       5.643   6.245  15.277  0.00  0.00    +0.000 NA
ATOM      2  H   UNL     1       5.584   6.681  14.356  0.00  0.00    +0.000 HD
ENDROOT
BRANCH   1   4
ATOM      3  C   UNL     1       5.883   3.847  14.591  0.00  0.00    +0.000 C 
ATOM      4  C   UNL     1       4.976   4.924  15.203  0.00  0.00    +0.000 C 
BRANCH   4   5
ATOM      5  C   UNL     1       4.468   4.427  16.559  0.00  0.00    +0.000 A 
ATOM      6  C   UNL     1       4.428   3.042  16.808  0.00  0.00    +0.000 A 
ATOM      7  C   UNL     1       3.964   2.537  18.028  0.00  0.00    +0.000 A 
ATOM      8  C   UNL     1       3.559   3.411  19.033  0.00  0.00    +0.000 A 
ATOM      9  C   UNL     1       3.641   4.787  18.830  0.00  0.00    +0.000 A 
ATOM     10  C   UNL     1       4.090   5.292  17.599  0.00  0.00    +0.000 A 
BRANCH   8  11
ATOM     11  N   UNL     1       3.003   2.894  20.231  0.00  0.00    +0.000 N 
ATOM     12  H   UNL     1       3.621   2.726  21.022  0.00  0.00    +0.000 HD
BRANCH  11  13
ATOM     13  S   UNL     1       1.395   3.131  20.617  0.00  0.00    +0.000 S 
ATOM     14  C   UNL     1       1.250   4.907  20.743  0.00  0.00    +0.000 C 
ATOM     15  O   UNL     1       0.566   2.676  19.523  0.00  0.00    +0.000 OA
ATOM     16  O   UNL     1       1.237   2.598  21.959  0.00  0.00    +0.000 OA
ENDBRANCH  11  13
ENDBRANCH   8  11
ENDBRANCH   4   5
ENDBRANCH   1   4
BRANCH   1  17
ATOM     17  C   UNL     1       7.071   6.103  15.611  0.00  0.00    +0.000 C 
BRANCH  17  18
ATOM     18  C   UNL     1       7.450   6.641  16.947  0.00  0.00    +0.000 A 
ATOM     19  C   UNL     1       7.749   6.089  18.175  0.00  0.00    +0.000 A 
ATOM     20  C   UNL     1       8.223   7.150  18.987  0.00  0.00    +0.000 A 
ATOM     21  C   UNL     1       8.191   8.298  18.216  0.00  0.00    +0.000 A 
ATOM     22  O   UNL     1       7.688   7.988  16.983  0.00  0.00    +0.000 OA
BRANCH  21  23
ATOM     23  C   UNL     1       8.626   9.681  18.418  0.00  0.00    +0.000 A 
ATOM     24  C   UNL     1       9.511  10.001  19.458  0.00  0.00    +0.000 A 
ATOM     25  C   UNL     1       9.999  11.303  19.621  0.00  0.00    +0.000 A 
ATOM     26  C   UNL     1       9.610  12.327  18.746  0.00  0.00    +0.000 A 
ATOM     27  C   UNL     1       8.705  12.022  17.720  0.00  0.00    +0.000 A 
ATOM     28  C   UNL     1       8.220  10.716  17.561  0.00  0.00    +0.000 A 
BRANCH  26  29
ATOM     29  C   UNL     1      10.164  13.724  18.887  0.00  0.00    +0.000 C 
ATOM     30  F   UNL     1      11.226  13.974  18.070  0.00  0.00    +0.000 F 
ATOM     31  F   UNL     1       9.239  14.682  18.595  0.00  0.00    +0.000 F 
ATOM     32  F   UNL     1      10.593  13.994  20.150  0.00  0.00    +0.000 F 
ENDBRANCH  26  29
ENDBRANCH  21  23
ENDBRANCH  17  18
ENDBRANCH   1  17
TORSDOF 8
ENDMDL
MODEL 8
REMARK VINA RESULT:      -7.8      6.937     11.617
REMARK  Name = 
REMARK  10 active torsions:
REMARK  status: ('A' for Active; 'I' for Inactive)
REMARK    1  A    between atoms: C_1  and  C_2
REMARK    2  A    between atoms: C_2  and  N_3
REMARK    3  A    between atoms: C_2  and  C_20
REMARK    4  A    between atoms: N_3  and  C_4
REMARK    5  A    between atoms: C_4  and  C_5
REMARK    6  A    between atoms: C_8  and  C_9
REMARK    7  A    between atoms: C_12  and  C_13
REMARK    8  A    between atoms: C_23  and  N_24
REMARK    9  A    between atoms: N_24  and  S_25
REMARK   10  A    between atoms: S_25  and  C_26
REMARK                            x       y       z     vdW  Elec       q    Type
REMARK                         _______ _______ _______ _____ _____    ______ ____
ROOT
ATOM      1  N   UNL     1      -0.153   9.713  20.838  0.00  0.00    +0.000 NA
ATOM      2  H   UNL     1      -0.097   8.949  21.513  0.00  0.00    +0.000 HD
ENDROOT
BRANCH   1   4
ATOM      3  C   UNL     1       0.962  11.956  20.784  0.00  0.00    +0.000 C 
ATOM      4  C   UNL     1       0.068  10.984  21.566  0.00  0.00    +0.000 C 
BRANCH   4   5
ATOM      5  C   UNL     1      -1.233  11.702  21.937  0.00  0.00    +0.000 A 
ATOM      6  C   UNL     1      -2.070  12.174  20.908  0.00  0.00    +0.000 A 
ATOM      7  C   UNL     1      -3.264  12.843  21.195  0.00  0.00    +0.000 A 
ATOM      8  C   UNL     1      -3.659  13.027  22.517  0.00  0.00    +0.000 A 
ATOM      9  C   UNL     1      -2.874  12.520  23.551  0.00  0.00    +0.000 A 
ATOM     10  C   UNL     1      -1.667  11.864  23.263  0.00  0.00    +0.000 A 
BRANCH   8  11
ATOM     11  N   UNL     1      -4.822  13.787  22.804  0.00  0.00    +0.000 N 
ATOM     12  H   UNL     1      -4.915  14.712  22.389  0.00  0.00    +0.000 HD
BRANCH  11  13
ATOM     13  S   UNL     1      -6.258  13.049  23.236  0.00  0.00    +0.000 S 
ATOM     14  C   UNL     1      -6.886  12.413  21.690  0.00  0.00    +0.000 C 
ATOM     15  O   UNL     1      -5.979  11.936  24.116  0.00  0.00    +0.000 OA
ATOM     16  O   UNL     1      -7.141  14.130  23.640  0.00  0.00    +0.000 OA
ENDBRANCH  11  13
ENDBRANCH   8  11
ENDBRANCH   4   5
ENDBRANCH   1   4
BRANCH   1  17
ATOM     17  C   UNL     1       0.894   9.489  19.826  0.00  0.00    +0.000 C 
BRANCH  17  18
ATOM     18  C   UNL     1       1.577   8.169  19.925  0.00  0.00    +0.000 A 
ATOM     19  C   UNL     1       1.481   7.078  20.763  0.00  0.00    +0.000 A 
ATOM     20  C   UNL     1       2.283   6.059  20.188  0.00  0.00    +0.000 A 
ATOM     21  C   UNL     1       2.829   6.578  19.029  0.00  0.00    +0.000 A 
ATOM     22  O   UNL     1       2.422   7.875  18.889  0.00  0.00    +0.000 OA
BRANCH  21  23
ATOM     23  C   UNL     1       3.650   6.029  17.948  0.00  0.00    +0.000 A 
ATOM     24  C   UNL     1       3.620   4.655  17.663  0.00  0.00    +0.000 A 
ATOM     25  C   UNL     1       4.339   4.123  16.586  0.00  0.00    +0.000 A 
ATOM     26  C   UNL     1       5.113   4.951  15.763  0.00  0.00    +0.000 A 
ATOM     27  C   UNL     1       5.170   6.320  16.057  0.00  0.00    +0.000 A 
ATOM     28  C   UNL     1       4.449   6.849  17.136  0.00  0.00    +0.000 A 
BRANCH  26  29
ATOM     29  C   UNL     1       5.856   4.393  14.573  0.00  0.00    +0.000 C 
ATOM     30  F   UNL     1       6.840   5.214  14.110  0.00  0.00    +0.000 F 
ATOM     31  F   UNL     1       6.466   3.206  14.851  0.00  0.00    +0.000 F 
ATOM     32  F   UNL     1       5.040   4.152  13.510  0.00  0.00    +0.000 F 
ENDBRANCH  26  29
ENDBRANCH  21  23
ENDBRANCH  17  18
ENDBRANCH   1  17
TORSDOF 8
ENDMDL
MODEL 9
REMARK VINA RESULT:      -7.8      2.693      3.299
REMARK  Name = 
REMARK  10 active torsions:
REMARK  status: ('A' for Active; 'I' for Inactive)
REMARK    1  A    between atoms: C_1  and  C_2
REMARK    2  A    between atoms: C_2  and  N_3
REMARK    3  A    between atoms: C_2  and  C_20
REMARK    4  A    between atoms: N_3  and  C_4
REMARK    5  A    between atoms: C_4  and  C_5
REMARK    6  A    between atoms: C_8  and  C_9
REMARK    7  A    between atoms: C_12  and  C_13
REMARK    8  A    between atoms: C_23  and  N_24
REMARK    9  A    between atoms: N_24  and  S_25
REMARK   10  A    between atoms: S_25  and  C_26
REMARK                            x       y       z     vdW  Elec       q    Type
REMARK                         _______ _______ _______ _____ _____    ______ ____
ROOT
ATOM      1  N   UNL     1       1.114   5.490  20.363  0.00  0.00    +0.000 NA
ATOM      2  H   UNL     1       0.875   5.531  19.371  0.00  0.00    +0.000 HD
ENDROOT
BRANCH   1   4
ATOM      3  C   UNL     1       1.349   3.021  20.725  0.00  0.00    +0.000 C 
ATOM      4  C   UNL     1       2.064   4.370  20.560  0.00  0.00    +0.000 C 
BRANCH   4   5
ATOM      5  C   UNL     1       3.093   4.247  19.432  0.00  0.00    +0.000 A 
ATOM      6  C   UNL     1       4.457   4.422  19.730  0.00  0.00    +0.000 A 
ATOM      7  C   UNL     1       5.435   4.329  18.734  0.00  0.00    +0.000 A 
ATOM      8  C   UNL     1       5.068   4.028  17.425  0.00  0.00    +0.000 A 
ATOM      9  C   UNL     1       3.729   3.795  17.117  0.00  0.00    +0.000 A 
ATOM     10  C   UNL     1       2.747   3.907  18.114  0.00  0.00    +0.000 A 
BRANCH   8  11
ATOM     11  N   UNL     1       6.051   4.025  16.403  0.00  0.00    +0.000 N 
ATOM     12  H   UNL     1       6.155   3.191  15.829  0.00  0.00    +0.000 HD
BRANCH  11  13
ATOM     13  S   UNL     1       6.580   5.446  15.701  0.00  0.00    +0.000 S 
ATOM     14  C   UNL     1       7.206   6.389  17.083  0.00  0.00    +0.000 C 
ATOM     15  O   UNL     1       7.676   5.158  14.803  0.00  0.00    +0.000 OA
ATOM     16  O   UNL     1       5.379   6.120  15.239  0.00  0.00    +0.000 OA
ENDBRANCH  11  13
ENDBRANCH   8  11
ENDBRANCH   4   5
ENDBRANCH   1   4
BRANCH   1  17
ATOM     17  C   UNL     1       1.727   6.779  20.726  0.00  0.00    +0.000 C 
BRANCH  17  18
ATOM     18  C   UNL     1       1.974   7.692  19.575  0.00  0.00    +0.000 A 
ATOM     19  C   UNL     1       2.299   7.523  18.246  0.00  0.00    +0.000 A 
ATOM     20  C   UNL     1       2.194   8.802  17.642  0.00  0.00    +0.000 A 
ATOM     21  C   UNL     1       1.811   9.688  18.632  0.00  0.00    +0.000 A 
ATOM     22  O   UNL     1       1.709   9.013  19.816  0.00  0.00    +0.000 OA
BRANCH  21  23
ATOM     23  C   UNL     1       1.446  11.106  18.653  0.00  0.00    +0.000 A 
ATOM     24  C   UNL     1       0.185  11.507  19.121  0.00  0.00    +0.000 A 
ATOM     25  C   UNL     1      -0.155  12.861  19.221  0.00  0.00    +0.000 A 
ATOM     26  C   UNL     1       0.759  13.857  18.851  0.00  0.00    +0.000 A 
ATOM     27  C   UNL     1       2.011  13.465  18.358  0.00  0.00    +0.000 A 
ATOM     28  C   UNL     1       2.347  12.108  18.260  0.00  0.00    +0.000 A 
BRANCH  26  29
ATOM     29  C   UNL     1       0.418  15.320  18.996  0.00  0.00    +0.000 C 
ATOM     30  F   UNL     1      -0.876  15.612  18.684  0.00  0.00    +0.000 F 
ATOM     31  F   UNL     1       0.603  15.774  20.268  0.00  0.00    +0.000 F 
ATOM     32  F   UNL     1       1.182  16.119  18.201  0.00  0.00    +0.000 F 
ENDBRANCH  26  29
ENDBRANCH  21  23
ENDBRANCH  17  18
ENDBRANCH   1  17
TORSDOF 8
ENDMDL
