MODEL 1
REMARK VINA RESULT:      -7.5      0.000      0.000
REMARK  Name = 
REMARK  4 active torsions:
REMARK  status: ('A' for Active; 'I' for Inactive)
REMARK    1  A    between atoms: C_1  and  C_2
REMARK    2  A    between atoms: C_12  and  C_13
REMARK    3  A    between atoms: C_13  and  C_15
REMARK    4  A    between atoms: C_20  and  N_21
REMARK                            x       y       z     vdW  Elec       q    Type
REMARK                         _______ _______ _______ _____ _____    ______ ____
ROOT
ATOM      1  C   UNL     1       2.937   8.022  17.538  0.00  0.00    +0.000 C 
ATOM      2  C   UNL     1       2.212   8.078  18.834  0.00  0.00    +0.000 A 
ATOM      3  N   UNL     1       1.441   9.203  19.080  0.00  0.00    +0.000 NA
ATOM      4  C   UNL     1       0.872   9.170  20.264  0.00  0.00    +0.000 A 
ATOM      5  N   UNL     1       0.027  10.139  20.712  0.00  0.00    +0.000 N 
ATOM      6  C   UNL     1      -0.374  11.203  19.792  0.00  0.00    +0.000 C 
ATOM      7  C   UNL     1      -0.252  12.542  20.515  0.00  0.00    +0.000 C 
ATOM      8  C   UNL     1      -1.065  12.545  21.809  0.00  0.00    +0.000 C 
ATOM      9  C   UNL     1      -0.704  11.350  22.693  0.00  0.00    +0.000 C 
ATOM     10  C   UNL     1      -0.778  10.029  21.924  0.00  0.00    +0.000 C 
ATOM     11  S   UNL     1       1.367   7.805  21.195  0.00  0.00    +0.000 S 
ATOM     12  C   UNL     1       2.160   7.121  19.832  0.00  0.00    +0.000 A 
ENDROOT
BRANCH  12  13
ATOM     13  C   UNL     1       2.733   5.783  19.861  0.00  0.00    +0.000 C 
ATOM     14  O   UNL     1       2.584   5.002  20.798  0.00  0.00    +0.000 OA
BRANCH  13  15
ATOM     15  C   UNL     1       3.588   5.308  18.720  0.00  0.00    +0.000 A 
ATOM     16  C   UNL     1       3.025   4.634  17.619  0.00  0.00    +0.000 A 
ATOM     17  C   UNL     1       3.841   4.088  16.624  0.00  0.00    +0.000 A 
ATOM     18  C   UNL     1       5.223   4.265  16.669  0.00  0.00    +0.000 A 
ATOM     19 CL   UNL     1       6.166   3.477  15.459  0.00  0.00    +0.000 Cl
ATOM     20  C   UNL     1       5.765   5.027  17.705  0.00  0.00    +0.000 A 
ATOM     21  C   UNL     1       4.967   5.545  18.742  0.00  0.00    +0.000 A 
BRANCH  20  22
ATOM     22  N   UNL     1       7.183   5.304  17.740  0.00  0.00    +0.000 N 
ATOM     23  O   UNL     1       7.900   4.511  18.366  0.00  0.00    +0.000 OA
ATOM     24  O   UNL     1       7.578   6.288  17.104  0.00  0.00    +0.000 OA
ENDBRANCH  20  22
ENDBRANCH  13  15
ENDBRANCH  12  13
TORSDOF 3
ENDMDL
MODEL 2
REMARK VINA RESULT:      -7.5      0.801      1.053
REMARK  Name = 
REMARK  4 active torsions:
REMARK  status: ('A' for Active; 'I' for Inactive)
REMARK    1  A    between atoms: C_1  and  C_2
REMARK    2  A    between atoms: C_12  and  C_13
REMARK    3  A    between atoms: C_13  and  C_15
REMARK    4  A    between atoms: C_20  and  N_21
REMARK                            x       y       z     vdW  Elec       q    Type
REMARK                         _______ _______ _______ _____ _____    ______ ____
ROOT
ATOM      1  C   UNL     1       2.928   8.066  17.618  0.00  0.00    +0.000 C 
ATOM      2  C   UNL     1       2.208   7.945  18.912  0.00  0.00    +0.000 A 
ATOM      3  N   UNL     1       1.439   9.026  19.313  0.00  0.00    +0.000 NA
ATOM      4  C   UNL     1       0.875   8.831  20.483  0.00  0.00    +0.000 A 
ATOM      5  N   UNL     1       0.032   9.729  21.064  0.00  0.00    +0.000 N 
ATOM      6  C   UNL     1      -0.371  10.910  20.300  0.00  0.00    +0.000 C 
ATOM      7  C   UNL     1      -0.245  12.137  21.199  0.00  0.00    +0.000 C 
ATOM      8  C   UNL     1      -1.053  11.963  22.484  0.00  0.00    +0.000 C 
ATOM      9  C   UNL     1      -0.689  10.659  23.195  0.00  0.00    +0.000 C 
ATOM     10  C   UNL     1      -0.768   9.456  22.252  0.00  0.00    +0.000 C 
ATOM     11  S   UNL     1       1.371   7.351  21.217  0.00  0.00    +0.000 S 
ATOM     12  C   UNL     1       2.159   6.860  19.769  0.00  0.00    +0.000 A 
ENDROOT
BRANCH  12  13
ATOM     13  C   UNL     1       2.731   5.530  19.613  0.00  0.00    +0.000 C 
ATOM     14  O   UNL     1       2.320   4.541  20.214  0.00  0.00    +0.000 OA
BRANCH  13  15
ATOM     15  C   UNL     1       3.910   5.323  18.704  0.00  0.00    +0.000 A 
ATOM     16  C   UNL     1       3.752   4.762  17.422  0.00  0.00    +0.000 A 
ATOM     17  C   UNL     1       4.866   4.459  16.634  0.00  0.00    +0.000 A 
ATOM     18  C   UNL     1       6.150   4.775  17.077  0.00  0.00    +0.000 A 
ATOM     19 CL   UNL     1       7.475   4.279  16.090  0.00  0.00    +0.000 Cl
ATOM     20  C   UNL     1       6.291   5.430  18.301  0.00  0.00    +0.000 A 
ATOM     21  C   UNL     1       5.188   5.700  19.130  0.00  0.00    +0.000 A 
BRANCH  20  22
ATOM     22  N   UNL     1       7.598   5.849  18.755  0.00  0.00    +0.000 N 
ATOM     23  O   UNL     1       7.968   6.988  18.440  0.00  0.00    +0.000 OA
ATOM     24  O   UNL     1       8.229   5.053  19.459  0.00  0.00    +0.000 OA
ENDBRANCH  20  22
ENDBRANCH  13  15
ENDBRANCH  12  13
TORSDOF 3
ENDMDL
MODEL 3
REMARK VINA RESULT:      -7.5      4.682      8.602
REMARK  Name = 
REMARK  4 active torsions:
REMARK  status: ('A' for Active; 'I' for Inactive)
REMARK    1  A    between atoms: C_1  and  C_2
REMARK    2  A    between atoms: C_12  and  C_13
REMARK    3  A    between atoms: C_13  and  C_15
REMARK    4  A    between atoms: C_20  and  N_21
REMARK                            x       y       z     vdW  Elec       q    Type
REMARK                         _______ _______ _______ _____ _____    ______ ____
ROOT
ATOM      1  C   UNL     1       1.163   8.707  21.534  0.00  0.00    +0.000 C 
ATOM      2  C   UNL     1       1.605   8.051  20.276  0.00  0.00    +0.000 A 
ATOM      3  N   UNL     1       1.909   6.701  20.340  0.00  0.00    +0.000 NA
ATOM      4  C   UNL     1       2.323   6.227  19.186  0.00  0.00    +0.000 A 
ATOM      5  N   UNL     1       2.632   4.917  18.985  0.00  0.00    +0.000 N 
ATOM      6  C   UNL     1       2.373   3.960  20.062  0.00  0.00    +0.000 C 
ATOM      7  C   UNL     1       3.600   3.067  20.225  0.00  0.00    +0.000 C 
ATOM      8  C   UNL     1       3.964   2.386  18.907  0.00  0.00    +0.000 C 
ATOM      9  C   UNL     1       4.110   3.406  17.777  0.00  0.00    +0.000 C 
ATOM     10  C   UNL     1       2.890   4.324  17.678  0.00  0.00    +0.000 C 
ATOM     11  S   UNL     1       2.486   7.458  17.988  0.00  0.00    +0.000 S 
ATOM     12  C   UNL     1       1.712   8.602  19.012  0.00  0.00    +0.000 A 
ENDROOT
BRANCH  12  13
ATOM     13  C   UNL     1       1.360   9.938  18.551  0.00  0.00    +0.000 C 
ATOM     14  O   UNL     1       2.185  10.760  18.162  0.00  0.00    +0.000 OA
BRANCH  13  15
ATOM     15  C   UNL     1      -0.075  10.384  18.573  0.00  0.00    +0.000 A 
ATOM     16  C   UNL     1      -1.024   9.828  17.694  0.00  0.00    +0.000 A 
ATOM     17  C   UNL     1      -2.325  10.335  17.636  0.00  0.00    +0.000 A 
ATOM     18  C   UNL     1      -2.724  11.354  18.500  0.00  0.00    +0.000 A 
ATOM     19 CL   UNL     1      -4.315  11.991  18.297  0.00  0.00    +0.000 Cl
ATOM     20  C   UNL     1      -1.810  11.826  19.442  0.00  0.00    +0.000 A 
ATOM     21  C   UNL     1      -0.483  11.363  19.486  0.00  0.00    +0.000 A 
BRANCH  20  22
ATOM     22  N   UNL     1      -2.212  12.822  20.410  0.00  0.00    +0.000 N 
ATOM     23  O   UNL     1      -1.849  13.988  20.207  0.00  0.00    +0.000 OA
ATOM     24  O   UNL     1      -2.927  12.439  21.344  0.00  0.00    +0.000 OA
ENDBRANCH  20  22
ENDBRANCH  13  15
ENDBRANCH  12  13
TORSDOF 3
ENDMDL
MODEL 4
REMARK VINA RESULT:      -7.5      4.581      8.474
REMARK  Name = 
REMARK  4 active torsions:
REMARK  status: ('A' for Active; 'I' for Inactive)
REMARK    1  A    between atoms: C_1  and  C_2
REMARK    2  A    between atoms: C_12  and  C_13
REMARK    3  A    between atoms: C_13  and  C_15
REMARK    4  A    between atoms: C_20  and  N_21
REMARK                            x       y       z     vdW  Elec       q    Type
REMARK                         _______ _______ _______ _____ _____    ______ ____
ROOT
ATOM      1  C   UNL     1       1.121   8.780  21.512  0.00  0.00    +0.000 C 
ATOM      2  C   UNL     1       1.587   8.087  20.283  0.00  0.00    +0.000 A 
ATOM      3  N   UNL     1       1.791   6.719  20.366  0.00  0.00    +0.000 NA
ATOM      4  C   UNL     1       2.235   6.210  19.239  0.00  0.00    +0.000 A 
ATOM      5  N   UNL     1       2.462   4.880  19.060  0.00  0.00    +0.000 N 
ATOM      6  C   UNL     1       2.076   3.951  20.122  0.00  0.00    +0.000 C 
ATOM      7  C   UNL     1       3.225   2.974  20.357  0.00  0.00    +0.000 C 
ATOM      8  C   UNL     1       3.614   2.261  19.063  0.00  0.00    +0.000 C 
ATOM      9  C   UNL     1       3.896   3.261  17.941  0.00  0.00    +0.000 C 
ATOM     10  C   UNL     1       2.752   4.262  17.770  0.00  0.00    +0.000 C 
ATOM     11  S   UNL     1       2.552   7.418  18.050  0.00  0.00    +0.000 S 
ATOM     12  C   UNL     1       1.804   8.621  19.025  0.00  0.00    +0.000 A 
ENDROOT
BRANCH  12  13
ATOM     13  C   UNL     1       1.574   9.975  18.542  0.00  0.00    +0.000 C 
ATOM     14  O   UNL     1       2.450  10.673  18.039  0.00  0.00    +0.000 OA
BRANCH  13  15
ATOM     15  C   UNL     1       0.214  10.600  18.682  0.00  0.00    +0.000 A 
ATOM     16  C   UNL     1       0.005  11.708  19.525  0.00  0.00    +0.000 A 
ATOM     17  C   UNL     1      -1.283  12.204  19.745  0.00  0.00    +0.000 A 
ATOM     18  C   UNL     1      -2.374  11.653  19.076  0.00  0.00    +0.000 A 
ATOM     19 CL   UNL     1      -3.940  12.255  19.477  0.00  0.00    +0.000 Cl
ATOM     20  C   UNL     1      -2.146  10.626  18.159  0.00  0.00    +0.000 A 
ATOM     21  C   UNL     1      -0.865  10.081  17.959  0.00  0.00    +0.000 A 
BRANCH  20  22
ATOM     22  N   UNL     1      -3.241  10.086  17.384  0.00  0.00    +0.000 N 
ATOM     23  O   UNL     1      -3.909   9.181  17.901  0.00  0.00    +0.000 OA
ATOM     24  O   UNL     1      -3.453  10.601  16.281  0.00  0.00    +0.000 OA
ENDBRANCH  20  22
ENDBRANCH  13  15
ENDBRANCH  12  13
TORSDOF 3
ENDMDL
MODEL 5
REMARK VINA RESULT:      -7.5      1.754      2.826
REMARK  Name = 
REMARK  4 active torsions:
REMARK  status: ('A' for Active; 'I' for Inactive)
REMARK    1  A    between atoms: C_1  and  C_2
REMARK    2  A    between atoms: C_12  and  C_13
REMARK    3  A    between atoms: C_13  and  C_15
REMARK    4  A    between atoms: C_20  and  N_21
REMARK                            x       y       z     vdW  Elec       q    Type
REMARK                         _______ _______ _______ _____ _____    ______ ____
ROOT
ATOM      1  C   UNL     1       2.218   3.767  21.545  0.00  0.00    +0.000 C 
ATOM      2  C   UNL     1       2.198   4.926  20.615  0.00  0.00    +0.000 A 
ATOM      3  N   UNL     1       1.700   6.123  21.105  0.00  0.00    +0.000 NA
ATOM      4  C   UNL     1       1.693   7.071  20.195  0.00  0.00    +0.000 A 
ATOM      5  N   UNL     1       1.296   8.348  20.451  0.00  0.00    +0.000 N 
ATOM      6  C   UNL     1       0.984   8.723  21.830  0.00  0.00    +0.000 C 
ATOM      7  C   UNL     1      -0.328   9.503  21.837  0.00  0.00    +0.000 C 
ATOM      8  C   UNL     1      -0.257  10.708  20.900  0.00  0.00    +0.000 C 
ATOM      9  C   UNL     1       0.188  10.294  19.497  0.00  0.00    +0.000 C 
ATOM     10  C   UNL     1       1.473   9.464  19.529  0.00  0.00    +0.000 C 
ATOM     11  S   UNL     1       2.179   6.498  18.642  0.00  0.00    +0.000 S 
ATOM     12  C   UNL     1       2.662   4.991  19.313  0.00  0.00    +0.000 A 
ENDROOT
BRANCH  12  13
ATOM     13  C   UNL     1       3.353   3.979  18.525  0.00  0.00    +0.000 C 
ATOM     14  O   UNL     1       3.139   2.775  18.631  0.00  0.00    +0.000 OA
BRANCH  13  15
ATOM     15  C   UNL     1       4.417   4.389  17.546  0.00  0.00    +0.000 A 
ATOM     16  C   UNL     1       4.437   3.877  16.235  0.00  0.00    +0.000 A 
ATOM     17  C   UNL     1       5.498   4.167  15.372  0.00  0.00    +0.000 A 
ATOM     18  C   UNL     1       6.518   5.027  15.773  0.00  0.00    +0.000 A 
ATOM     19 CL   UNL     1       7.839   5.255  14.688  0.00  0.00    +0.000 Cl
ATOM     20  C   UNL     1       6.436   5.618  17.035  0.00  0.00    +0.000 A 
ATOM     21  C   UNL     1       5.403   5.303  17.936  0.00  0.00    +0.000 A 
BRANCH  20  22
ATOM     22  N   UNL     1       7.430   6.580  17.454  0.00  0.00    +0.000 N 
ATOM     23  O   UNL     1       7.557   7.600  16.763  0.00  0.00    +0.000 OA
ATOM     24  O   UNL     1       8.047   6.331  18.495  0.00  0.00    +0.000 OA
ENDBRANCH  20  22
ENDBRANCH  13  15
ENDBRANCH  12  13
TORSDOF 3
ENDMDL
MODEL 6
REMARK VINA RESULT:      -7.4      3.727      8.497
REMARK  Name = 
REMARK  4 active torsions:
REMARK  status: ('A' for Active; 'I' for Inactive)
REMARK    1  A    between atoms: C_1  and  C_2
REMARK    2  A    between atoms: C_12  and  C_13
REMARK    3  A    between atoms: C_13  and  C_15
REMARK    4  A    between atoms: C_20  and  N_21
REMARK                            x       y       z     vdW  Elec       q    Type
REMARK                         _______ _______ _______ _____ _____    ______ ____
ROOT
ATOM      1  C   UNL     1       6.454   7.900  17.751  0.00  0.00    +0.000 C 
ATOM      2  C   UNL     1       5.891   6.701  17.077  0.00  0.00    +0.000 A 
ATOM      3  N   UNL     1       6.537   6.254  15.935  0.00  0.00    +0.000 NA
ATOM      4  C   UNL     1       5.941   5.214  15.398  0.00  0.00    +0.000 A 
ATOM      5  N   UNL     1       6.417   4.567  14.299  0.00  0.00    +0.000 N 
ATOM      6  C   UNL     1       7.719   4.960  13.761  0.00  0.00    +0.000 C 
ATOM      7  C   UNL     1       7.598   5.098  12.245  0.00  0.00    +0.000 C 
ATOM      8  C   UNL     1       7.064   3.812  11.616  0.00  0.00    +0.000 C 
ATOM      9  C   UNL     1       5.763   3.366  12.285  0.00  0.00    +0.000 C 
ATOM     10  C   UNL     1       5.900   3.294  13.807  0.00  0.00    +0.000 C 
ATOM     11  S   UNL     1       4.469   4.810  16.201  0.00  0.00    +0.000 S 
ATOM     12  C   UNL     1       4.816   5.922  17.466  0.00  0.00    +0.000 A 
ENDROOT
BRANCH  12  13
ATOM     13  C   UNL     1       3.991   6.013  18.663  0.00  0.00    +0.000 C 
ATOM     14  O   UNL     1       4.046   5.206  19.587  0.00  0.00    +0.000 OA
BRANCH  13  15
ATOM     15  C   UNL     1       2.983   7.120  18.796  0.00  0.00    +0.000 A 
ATOM     16  C   UNL     1       2.675   7.959  17.708  0.00  0.00    +0.000 A 
ATOM     17  C   UNL     1       1.831   9.061  17.874  0.00  0.00    +0.000 A 
ATOM     18  C   UNL     1       1.223   9.304  19.104  0.00  0.00    +0.000 A 
ATOM     19 CL   UNL     1       0.275  10.738  19.252  0.00  0.00    +0.000 Cl
ATOM     20  C   UNL     1       1.446   8.406  20.148  0.00  0.00    +0.000 A 
ATOM     21  C   UNL     1       2.329   7.319  20.017  0.00  0.00    +0.000 A 
BRANCH  20  22
ATOM     22  N   UNL     1       0.767   8.578  21.413  0.00  0.00    +0.000 N 
ATOM     23  O   UNL     1      -0.418   8.223  21.472  0.00  0.00    +0.000 OA
ATOM     24  O   UNL     1       1.435   9.025  22.352  0.00  0.00    +0.000 OA
ENDBRANCH  20  22
ENDBRANCH  13  15
ENDBRANCH  12  13
TORSDOF 3
ENDMDL
MODEL 7
REMARK VINA RESULT:      -7.3      4.697      8.466
REMARK  Name = 
REMARK  4 active torsions:
REMARK  status: ('A' for Active; 'I' for Inactive)
REMARK    1  A    between atoms: C_1  and  C_2
REMARK    2  A    between atoms: C_12  and  C_13
REMARK    3  A    between atoms: C_13  and  C_15
REMARK    4  A    between atoms: C_20  and  N_21
REMARK                            x       y       z     vdW  Elec       q    Type
REMARK                         _______ _______ _______ _____ _____    ______ ____
ROOT
ATOM      1  C   UNL     1       0.518   9.257  22.243  0.00  0.00    +0.000 C 
ATOM      2  C   UNL     1       1.039   8.794  20.930  0.00  0.00    +0.000 A 
ATOM      3  N   UNL     1       1.408   7.463  20.829  0.00  0.00    +0.000 NA
ATOM      4  C   UNL     1       1.887   7.165  19.643  0.00  0.00    +0.000 A 
ATOM      5  N   UNL     1       2.270   5.909  19.286  0.00  0.00    +0.000 N 
ATOM      6  C   UNL     1       2.020   4.807  20.216  0.00  0.00    +0.000 C 
ATOM      7  C   UNL     1       3.284   3.957  20.314  0.00  0.00    +0.000 C 
ATOM      8  C   UNL     1       3.730   3.473  18.934  0.00  0.00    +0.000 C 
ATOM      9  C   UNL     1       3.866   4.640  17.955  0.00  0.00    +0.000 C 
ATOM     10  C   UNL     1       2.605   5.507  17.924  0.00  0.00    +0.000 C 
ATOM     11  S   UNL     1       2.032   8.550  18.624  0.00  0.00    +0.000 S 
ATOM     12  C   UNL     1       1.164   9.513  19.754  0.00  0.00    +0.000 A 
ENDROOT
BRANCH  12  13
ATOM     13  C   UNL     1       0.762  10.880  19.457  0.00  0.00    +0.000 C 
ATOM     14  O   UNL     1       1.512  11.847  19.569  0.00  0.00    +0.000 OA
BRANCH  13  15
ATOM     15  C   UNL     1      -0.648  11.170  19.024  0.00  0.00    +0.000 A 
ATOM     16  C   UNL     1      -1.527  11.901  19.845  0.00  0.00    +0.000 A 
ATOM     17  C   UNL     1      -2.870  12.059  19.491  0.00  0.00    +0.000 A 
ATOM     18  C   UNL     1      -3.343  11.554  18.280  0.00  0.00    +0.000 A 
ATOM     19 CL   UNL     1      -5.032  11.704  17.963  0.00  0.00    +0.000 Cl
ATOM     20  C   UNL     1      -2.441  10.925  17.421  0.00  0.00    +0.000 A 
ATOM     21  C   UNL     1      -1.097  10.715  17.779  0.00  0.00    +0.000 A 
BRANCH  20  22
ATOM     22  N   UNL     1      -2.876  10.465  16.121  0.00  0.00    +0.000 N 
ATOM     23  O   UNL     1      -3.057  11.323  15.248  0.00  0.00    +0.000 OA
ATOM     24  O   UNL     1      -2.991   9.244  15.969  0.00  0.00    +0.000 OA
ENDBRANCH  20  22
ENDBRANCH  13  15
ENDBRANCH  12  13
TORSDOF 3
ENDMDL
MODEL 8
REMARK VINA RESULT:      -7.3      4.603      8.386
REMARK  Name = 
REMARK  4 active torsions:
REMARK  status: ('A' for Active; 'I' for Inactive)
REMARK    1  A    between atoms: C_1  and  C_2
REMARK    2  A    between atoms: C_12  and  C_13
REMARK    3  A    between atoms: C_13  and  C_15
REMARK    4  A    between atoms: C_20  and  N_21
REMARK                            x       y       z     vdW  Elec       q    Type
REMARK                         _______ _______ _______ _____ _____    ______ ____
ROOT
ATOM      1  C   UNL     1       7.895   7.501  17.743  0.00  0.00    +0.000 C 
ATOM      2  C   UNL     1       7.246   6.333  17.094  0.00  0.00    +0.000 A 
ATOM      3  N   UNL     1       7.549   6.098  15.763  0.00  0.00    +0.000 NA
ATOM      4  C   UNL     1       6.897   5.067  15.275  0.00  0.00    +0.000 A 
ATOM      5  N   UNL     1       7.067   4.609  14.005  0.00  0.00    +0.000 N 
ATOM      6  C   UNL     1       8.115   5.207  13.177  0.00  0.00    +0.000 C 
ATOM      7  C   UNL     1       7.533   5.506  11.797  0.00  0.00    +0.000 C 
ATOM      8  C   UNL     1       6.931   4.249  11.170  0.00  0.00    +0.000 C 
ATOM      9  C   UNL     1       5.927   3.584  12.113  0.00  0.00    +0.000 C 
ATOM     10  C   UNL     1       6.521   3.352  13.504  0.00  0.00    +0.000 C 
ATOM     11  S   UNL     1       5.769   4.408  16.402  0.00  0.00    +0.000 S 
ATOM     12  C   UNL     1       6.397   5.397  17.660  0.00  0.00    +0.000 A 
ENDROOT
BRANCH  12  13
ATOM     13  C   UNL     1       5.966   5.256  19.044  0.00  0.00    +0.000 C 
ATOM     14  O   UNL     1       6.745   5.176  19.991  0.00  0.00    +0.000 OA
BRANCH  13  15
ATOM     15  C   UNL     1       4.502   5.162  19.367  0.00  0.00    +0.000 A 
ATOM     16  C   UNL     1       3.637   6.252  19.152  0.00  0.00    +0.000 A 
ATOM     17  C   UNL     1       2.304   6.198  19.571  0.00  0.00    +0.000 A 
ATOM     18  C   UNL     1       1.791   5.035  20.143  0.00  0.00    +0.000 A 
ATOM     19 CL   UNL     1       0.167   5.083  20.721  0.00  0.00    +0.000 Cl
ATOM     20  C   UNL     1       2.625   3.921  20.253  0.00  0.00    +0.000 A 
ATOM     21  C   UNL     1       3.981   3.969  19.883  0.00  0.00    +0.000 A 
BRANCH  20  22
ATOM     22  N   UNL     1       2.106   2.672  20.763  0.00  0.00    +0.000 N 
ATOM     23  O   UNL     1       1.663   1.863  19.936  0.00  0.00    +0.000 OA
ATOM     24  O   UNL     1       2.185   2.488  21.982  0.00  0.00    +0.000 OA
ENDBRANCH  20  22
ENDBRANCH  13  15
ENDBRANCH  12  13
TORSDOF 3
ENDMDL
MODEL 9
REMARK VINA RESULT:      -7.2      2.672      3.503
REMARK  Name = 
REMARK  4 active torsions:
REMARK  status: ('A' for Active; 'I' for Inactive)
REMARK    1  A    between atoms: C_1  and  C_2
REMARK    2  A    between atoms: C_12  and  C_13
REMARK    3  A    between atoms: C_13  and  C_15
REMARK    4  A    between atoms: C_20  and  N_21
REMARK                            x       y       z     vdW  Elec       q    Type
REMARK                         _______ _______ _______ _____ _____    ______ ____
ROOT
ATOM      1  C   UNL     1       1.469   6.988  21.031  0.00  0.00    +0.000 C 
ATOM      2  C   UNL     1       1.571   8.098  20.049  0.00  0.00    +0.000 A 
ATOM      3  N   UNL     1       0.969   9.300  20.388  0.00  0.00    +0.000 NA
ATOM      4  C   UNL     1       1.085  10.202  19.439  0.00  0.00    +0.000 A 
ATOM      5  N   UNL     1       0.620  11.475  19.560  0.00  0.00    +0.000 N 
ATOM      6  C   UNL     1       0.077  11.906  20.848  0.00  0.00    +0.000 C 
ATOM      7  C   UNL     1      -1.238  12.640  20.601  0.00  0.00    +0.000 C 
ATOM      8  C   UNL     1      -1.046  13.800  19.625  0.00  0.00    +0.000 C 
ATOM      9  C   UNL     1      -0.369  13.334  18.336  0.00  0.00    +0.000 C 
ATOM     10  C   UNL     1       0.915  12.550  18.619  0.00  0.00    +0.000 C 
ATOM     11  S   UNL     1       1.832   9.571  18.018  0.00  0.00    +0.000 S 
ATOM     12  C   UNL     1       2.239   8.116  18.837  0.00  0.00    +0.000 A 
ENDROOT
BRANCH  12  13
ATOM     13  C   UNL     1       3.075   7.091  18.227  0.00  0.00    +0.000 C 
ATOM     14  O   UNL     1       4.063   7.343  17.542  0.00  0.00    +0.000 OA
BRANCH  13  15
ATOM     15  C   UNL     1       2.721   5.640  18.389  0.00  0.00    +0.000 A 
ATOM     16  C   UNL     1       1.686   5.053  17.636  0.00  0.00    +0.000 A 
ATOM     17  C   UNL     1       1.282   3.738  17.883  0.00  0.00    +0.000 A 
ATOM     18  C   UNL     1       1.948   2.962  18.830  0.00  0.00    +0.000 A 
ATOM     19 CL   UNL     1       1.325   1.384  19.144  0.00  0.00    +0.000 Cl
ATOM     20  C   UNL     1       3.043   3.514  19.495  0.00  0.00    +0.000 A 
ATOM     21  C   UNL     1       3.435   4.850  19.297  0.00  0.00    +0.000 A 
BRANCH  20  22
ATOM     22  N   UNL     1       3.810   2.713  20.423  0.00  0.00    +0.000 N 
ATOM     23  O   UNL     1       4.921   2.318  20.045  0.00  0.00    +0.000 OA
ATOM     24  O   UNL     1       3.316   2.521  21.539  0.00  0.00    +0.000 OA
ENDBRANCH  20  22
ENDBRANCH  13  15
ENDBRANCH  12  13
TORSDOF 3
ENDMDL
