MODEL 1
REMARK VINA RESULT:      -8.2      0.000      0.000
REMARK  Name = 
REMARK  6 active torsions:
REMARK  status: ('A' for Active; 'I' for Inactive)
REMARK    1  A    between atoms: C_1  and  O_2
REMARK    2  A    between atoms: O_2  and  C_3
REMARK    3  A    between atoms: C_8  and  C_9
REMARK    4  A    between atoms: C_9  and  N_10
REMARK    5  A    between atoms: C_14  and  C_15
REMARK    6  A    between atoms: C_18  and  C_19
REMARK                            x       y       z     vdW  Elec       q    Type
REMARK                         _______ _______ _______ _____ _____    ______ ____
ROOT
ATOM      1  N   UNL     1       4.084   3.592  17.589  0.00  0.00    +0.000 N 
ATOM      2  C   UNL     1       3.323   4.706  17.138  0.00  0.00    +0.000 C 
ATOM      3  C   UNL     1       2.629   5.151  18.364  0.00  0.00    +0.000 C 
ATOM      4  C   UNL     1       3.591   5.921  19.329  0.00  0.00    +0.000 C 
ATOM      5  C   UNL     1       2.638   6.163  20.477  0.00  0.00    +0.000 C 
ATOM      6  N   UNL     1       2.001   4.833  20.459  0.00  0.00    +0.000 NA
ATOM      7  C   UNL     1       1.969   3.971  21.613  0.00  0.00    +0.000 C 
ATOM      8  C   UNL     1       1.504   2.635  21.005  0.00  0.00    +0.000 C 
ATOM      9  C   UNL     1       1.350   2.898  19.475  0.00  0.00    +0.000 C 
ATOM     10  C   UNL     1       2.386   3.989  19.273  0.00  0.00    +0.000 C 
ATOM     11  C   UNL     1       3.717   3.208  18.910  0.00  0.00    +0.000 C 
ATOM     12  O   UNL     1       4.279   2.340  19.580  0.00  0.00    +0.000 OA
ENDROOT
BRANCH   5  13
ATOM     13  C   UNL     1       1.914   7.477  20.051  0.00  0.00    +0.000 A 
ATOM     14  C   UNL     1       2.047   8.200  18.858  0.00  0.00    +0.000 A 
ATOM     15  C   UNL     1       1.298   9.392  18.649  0.00  0.00    +0.000 A 
ATOM     16  C   UNL     1       0.424   9.896  19.626  0.00  0.00    +0.000 A 
ATOM     17  C   UNL     1      -0.565  10.994  19.356  0.00  0.00    +0.000 C 
ATOM     18  C   UNL     1       0.374   9.249  20.853  0.00  0.00    +0.000 A 
ATOM     19  C   UNL     1       1.077   8.060  21.041  0.00  0.00    +0.000 A 
ENDBRANCH   5  13
BRANCH   1  20
ATOM     20  C   UNL     1       4.795   2.829  16.571  0.00  0.00    +0.000 C 
BRANCH  20  26
ATOM     21  C   UNL     1       6.818   4.457  16.321  0.00  0.00    +0.000 A 
ATOM     22  C   UNL     1       7.541   5.316  15.474  0.00  0.00    +0.000 A 
ATOM     23  C   UNL     1       7.362   5.269  14.093  0.00  0.00    +0.000 A 
ATOM     24  C   UNL     1       6.451   4.371  13.548  0.00  0.00    +0.000 A 
ATOM     25  C   UNL     1       5.692   3.549  14.370  0.00  0.00    +0.000 A 
ATOM     26  C   UNL     1       5.826   3.604  15.771  0.00  0.00    +0.000 A 
BRANCH  21  28
ATOM     27  C   UNL     1       7.464   5.664  18.267  0.00  0.00    +0.000 C 
ATOM     28  O   UNL     1       7.033   4.429  17.682  0.00  0.00    +0.000 OA
ENDBRANCH  21  28
ENDBRANCH  20  26
ENDBRANCH   1  20
TORSDOF 4
ENDMDL
MODEL 2
REMARK VINA RESULT:      -7.5      5.595     10.833
REMARK  Name = 
REMARK  6 active torsions:
REMARK  status: ('A' for Active; 'I' for Inactive)
REMARK    1  A    between atoms: C_1  and  O_2
REMARK    2  A    between atoms: O_2  and  C_3
REMARK    3  A    between atoms: C_8  and  C_9
REMARK    4  A    between atoms: C_9  and  N_10
REMARK    5  A    between atoms: C_14  and  C_15
REMARK    6  A    between atoms: C_18  and  C_19
REMARK                            x       y       z     vdW  Elec       q    Type
REMARK                         _______ _______ _______ _____ _____    ______ ____
ROOT
ATOM      1  N   UNL     1      -3.176  11.551  18.307  0.00  0.00    +0.000 N 
ATOM      2  C   UNL     1      -2.338  10.674  17.563  0.00  0.00    +0.000 C 
ATOM      3  C   UNL     1      -1.044  10.773  18.271  0.00  0.00    +0.000 C 
ATOM      4  C   UNL     1      -1.056   9.974  19.617  0.00  0.00    +0.000 C 
ATOM      5  C   UNL     1       0.326  10.324  20.118  0.00  0.00    +0.000 C 
ATOM      6  N   UNL     1       0.295  11.748  19.733  0.00  0.00    +0.000 NA
ATOM      7  C   UNL     1       0.511  12.813  20.679  0.00  0.00    +0.000 C 
ATOM      8  C   UNL     1       0.069  14.051  19.878  0.00  0.00    +0.000 C 
ATOM      9  C   UNL     1      -0.411  13.510  18.495  0.00  0.00    +0.000 C 
ATOM     10  C   UNL     1      -0.894  12.126  18.889  0.00  0.00    +0.000 C 
ATOM     11  C   UNL     1      -2.427  12.325  19.239  0.00  0.00    +0.000 C 
ATOM     12  O   UNL     1      -2.908  13.091  20.075  0.00  0.00    +0.000 OA
ENDROOT
BRANCH   5  13
ATOM     13  C   UNL     1       1.225   9.258  19.421  0.00  0.00    +0.000 A 
ATOM     14  C   UNL     1       1.719   9.254  18.109  0.00  0.00    +0.000 A 
ATOM     15  C   UNL     1       2.529   8.180  17.646  0.00  0.00    +0.000 A 
ATOM     16  C   UNL     1       2.843   7.085  18.467  0.00  0.00    +0.000 A 
ATOM     17  C   UNL     1       3.889   6.066  18.113  0.00  0.00    +0.000 C 
ATOM     18  C   UNL     1       2.264   7.026  19.728  0.00  0.00    +0.000 A 
ATOM     19  C   UNL     1       1.505   8.098  20.194  0.00  0.00    +0.000 A 
ENDBRANCH   5  13
BRANCH   1  20
ATOM     20  C   UNL     1      -4.512  11.787  17.777  0.00  0.00    +0.000 C 
BRANCH  20  26
ATOM     21  C   UNL     1      -6.269  12.219  19.657  0.00  0.00    +0.000 A 
ATOM     22  C   UNL     1      -7.139  11.657  20.609  0.00  0.00    +0.000 A 
ATOM     23  C   UNL     1      -7.481  10.307  20.549  0.00  0.00    +0.000 A 
ATOM     24  C   UNL     1      -6.949   9.506  19.544  0.00  0.00    +0.000 A 
ATOM     25  C   UNL     1      -6.052  10.032  18.625  0.00  0.00    +0.000 A 
ATOM     26  C   UNL     1      -5.659  11.382  18.686  0.00  0.00    +0.000 A 
BRANCH  21  28
ATOM     27  C   UNL     1      -7.039  14.427  19.216  0.00  0.00    +0.000 C 
ATOM     28  O   UNL     1      -5.977  13.565  19.646  0.00  0.00    +0.000 OA
ENDBRANCH  21  28
ENDBRANCH  20  26
ENDBRANCH   1  20
TORSDOF 4
ENDMDL
MODEL 3
REMARK VINA RESULT:      -7.4      4.371      9.691
REMARK  Name = 
REMARK  6 active torsions:
REMARK  status: ('A' for Active; 'I' for Inactive)
REMARK    1  A    between atoms: C_1  and  O_2
REMARK    2  A    between atoms: O_2  and  C_3
REMARK    3  A    between atoms: C_8  and  C_9
REMARK    4  A    between atoms: C_9  and  N_10
REMARK    5  A    between atoms: C_14  and  C_15
REMARK    6  A    between atoms: C_18  and  C_19
REMARK                            x       y       z     vdW  Elec       q    Type
REMARK                         _______ _______ _______ _____ _____    ______ ____
ROOT
ATOM      1  N   UNL     1      -0.213  10.281  22.030  0.00  0.00    +0.000 N 
ATOM      2  C   UNL     1      -0.681   8.952  21.835  0.00  0.00    +0.000 C 
ATOM      3  C   UNL     1       0.189   8.450  20.751  0.00  0.00    +0.000 C 
ATOM      4  C   UNL     1       1.623   8.101  21.271  0.00  0.00    +0.000 C 
ATOM      5  C   UNL     1       2.266   7.707  19.962  0.00  0.00    +0.000 C 
ATOM      6  N   UNL     1       1.670   8.781  19.145  0.00  0.00    +0.000 NA
ATOM      7  C   UNL     1       2.465   9.709  18.382  0.00  0.00    +0.000 C 
ATOM      8  C   UNL     1       1.430  10.780  17.993  0.00  0.00    +0.000 C 
ATOM      9  C   UNL     1       0.089  10.327  18.651  0.00  0.00    +0.000 C 
ATOM     10  C   UNL     1       0.610   9.576  19.862  0.00  0.00    +0.000 C 
ATOM     11  C   UNL     1       0.693  10.673  21.003  0.00  0.00    +0.000 C 
ATOM     12  O   UNL     1       1.322  11.731  20.977  0.00  0.00    +0.000 OA
ENDROOT
BRANCH   5  13
ATOM     13  C   UNL     1       1.881   6.203  19.828  0.00  0.00    +0.000 A 
ATOM     14  C   UNL     1       1.514   5.301  20.838  0.00  0.00    +0.000 A 
ATOM     15  C   UNL     1       1.198   3.951  20.521  0.00  0.00    +0.000 A 
ATOM     16  C   UNL     1       1.261   3.468  19.203  0.00  0.00    +0.000 A 
ATOM     17  C   UNL     1       0.699   2.138  18.789  0.00  0.00    +0.000 C 
ATOM     18  C   UNL     1       1.733   4.322  18.217  0.00  0.00    +0.000 A 
ATOM     19  C   UNL     1       2.003   5.655  18.522  0.00  0.00    +0.000 A 
ENDBRANCH   5  13
BRANCH   1  20
ATOM     20  C   UNL     1      -0.965  11.111  22.961  0.00  0.00    +0.000 C 
BRANCH  20  26
ATOM     21  C   UNL     1      -3.304  12.268  22.934  0.00  0.00    +0.000 A 
ATOM     22  C   UNL     1      -4.315  12.862  22.159  0.00  0.00    +0.000 A 
ATOM     23  C   UNL     1      -4.065  13.255  20.845  0.00  0.00    +0.000 A 
ATOM     24  C   UNL     1      -2.806  13.048  20.293  0.00  0.00    +0.000 A 
ATOM     25  C   UNL     1      -1.809  12.420  21.026  0.00  0.00    +0.000 A 
ATOM     26  C   UNL     1      -2.046  11.978  22.341  0.00  0.00    +0.000 A 
BRANCH  21  28
ATOM     27  C   UNL     1      -4.792  12.264  24.790  0.00  0.00    +0.000 C 
ATOM     28  O   UNL     1      -3.500  11.943  24.258  0.00  0.00    +0.000 OA
ENDBRANCH  21  28
ENDBRANCH  20  26
ENDBRANCH   1  20
TORSDOF 4
ENDMDL
MODEL 4
REMARK VINA RESULT:      -7.3      3.795      7.431
REMARK  Name = 
REMARK  6 active torsions:
REMARK  status: ('A' for Active; 'I' for Inactive)
REMARK    1  A    between atoms: C_1  and  O_2
REMARK    2  A    between atoms: O_2  and  C_3
REMARK    3  A    between atoms: C_8  and  C_9
REMARK    4  A    between atoms: C_9  and  N_10
REMARK    5  A    between atoms: C_14  and  C_15
REMARK    6  A    between atoms: C_18  and  C_19
REMARK                            x       y       z     vdW  Elec       q    Type
REMARK                         _______ _______ _______ _____ _____    ______ ____
ROOT
ATOM      1  N   UNL     1       0.864   9.462  19.876  0.00  0.00    +0.000 N 
ATOM      2  C   UNL     1      -0.453   9.370  20.405  0.00  0.00    +0.000 C 
ATOM      3  C   UNL     1      -1.125  10.554  19.829  0.00  0.00    +0.000 C 
ATOM      4  C   UNL     1      -1.481  10.342  18.320  0.00  0.00    +0.000 C 
ATOM      5  C   UNL     1      -2.060  11.704  18.015  0.00  0.00    +0.000 C 
ATOM      6  N   UNL     1      -1.064  12.490  18.766  0.00  0.00    +0.000 NA
ATOM      7  C   UNL     1      -0.275  13.531  18.156  0.00  0.00    +0.000 C 
ATOM      8  C   UNL     1       0.792  13.801  19.232  0.00  0.00    +0.000 C 
ATOM      9  C   UNL     1       0.490  12.796  20.387  0.00  0.00    +0.000 C 
ATOM     10  C   UNL     1      -0.136  11.654  19.608  0.00  0.00    +0.000 C 
ATOM     11  C   UNL     1       1.084  10.714  19.233  0.00  0.00    +0.000 C 
ATOM     12  O   UNL     1       2.099  11.023  18.607  0.00  0.00    +0.000 OA
ENDROOT
BRANCH   5  13
ATOM     13  C   UNL     1      -3.549  11.550  18.452  0.00  0.00    +0.000 A 
ATOM     14  C   UNL     1      -4.549  10.751  17.879  0.00  0.00    +0.000 A 
ATOM     15  C   UNL     1      -5.865  10.745  18.419  0.00  0.00    +0.000 A 
ATOM     16  C   UNL     1      -6.216  11.543  19.520  0.00  0.00    +0.000 A 
ATOM     17  C   UNL     1      -7.505  11.382  20.275  0.00  0.00    +0.000 C 
ATOM     18  C   UNL     1      -5.263  12.420  20.020  0.00  0.00    +0.000 A 
ATOM     19  C   UNL     1      -3.964  12.396  19.516  0.00  0.00    +0.000 A 
ENDBRANCH   5  13
BRANCH   1  20
ATOM     20  C   UNL     1       1.837   8.496  20.368  0.00  0.00    +0.000 C 
BRANCH  20  26
ATOM     21  C   UNL     1       2.229   6.037  19.589  0.00  0.00    +0.000 A 
ATOM     22  C   UNL     1       2.900   5.175  18.703  0.00  0.00    +0.000 A 
ATOM     23  C   UNL     1       3.528   5.675  17.563  0.00  0.00    +0.000 A 
ATOM     24  C   UNL     1       3.499   7.042  17.306  0.00  0.00    +0.000 A 
ATOM     25  C   UNL     1       2.885   7.914  18.193  0.00  0.00    +0.000 A 
ATOM     26  C   UNL     1       2.276   7.440  19.371  0.00  0.00    +0.000 A 
BRANCH  21  28
ATOM     27  C   UNL     1       1.632   4.149  20.908  0.00  0.00    +0.000 C 
ATOM     28  O   UNL     1       1.534   5.562  20.679  0.00  0.00    +0.000 OA
ENDBRANCH  21  28
ENDBRANCH  20  26
ENDBRANCH   1  20
TORSDOF 4
ENDMDL
MODEL 5
REMARK VINA RESULT:      -7.3      5.559     10.830
REMARK  Name = 
REMARK  6 active torsions:
REMARK  status: ('A' for Active; 'I' for Inactive)
REMARK    1  A    between atoms: C_1  and  O_2
REMARK    2  A    between atoms: O_2  and  C_3
REMARK    3  A    between atoms: C_8  and  C_9
REMARK    4  A    between atoms: C_9  and  N_10
REMARK    5  A    between atoms: C_14  and  C_15
REMARK    6  A    between atoms: C_18  and  C_19
REMARK                            x       y       z     vdW  Elec       q    Type
REMARK                         _______ _______ _______ _____ _____    ______ ____
ROOT
ATOM      1  N   UNL     1      -3.185  11.554  18.544  0.00  0.00    +0.000 N 
ATOM      2  C   UNL     1      -2.426  10.518  17.933  0.00  0.00    +0.000 C 
ATOM      3  C   UNL     1      -1.115  10.627  18.607  0.00  0.00    +0.000 C 
ATOM      4  C   UNL     1      -1.157  10.039  20.057  0.00  0.00    +0.000 C 
ATOM      5  C   UNL     1       0.256  10.359  20.488  0.00  0.00    +0.000 C 
ATOM      6  N   UNL     1       0.318  11.708  19.895  0.00  0.00    +0.000 NA
ATOM      7  C   UNL     1       0.626  12.884  20.669  0.00  0.00    +0.000 C 
ATOM      8  C   UNL     1       0.257  14.018  19.696  0.00  0.00    +0.000 C 
ATOM      9  C   UNL     1      -0.287  13.314  18.414  0.00  0.00    +0.000 C 
ATOM     10  C   UNL     1      -0.858  12.042  19.014  0.00  0.00    +0.000 C 
ATOM     11  C   UNL     1      -2.366  12.402  19.343  0.00  0.00    +0.000 C 
ATOM     12  O   UNL     1      -2.775  13.316  20.060  0.00  0.00    +0.000 OA
ENDROOT
BRANCH   5  13
ATOM     13  C   UNL     1       1.064   9.139  19.951  0.00  0.00    +0.000 A 
ATOM     14  C   UNL     1       1.458   7.982  20.637  0.00  0.00    +0.000 A 
ATOM     15  C   UNL     1       2.203   6.967  19.973  0.00  0.00    +0.000 A 
ATOM     16  C   UNL     1       2.586   7.093  18.628  0.00  0.00    +0.000 A 
ATOM     17  C   UNL     1       3.143   5.954  17.822  0.00  0.00    +0.000 C 
ATOM     18  C   UNL     1       2.298   8.285  17.976  0.00  0.00    +0.000 A 
ATOM     19  C   UNL     1       1.534   9.259  18.615  0.00  0.00    +0.000 A 
ENDBRANCH   5  13
BRANCH   1  20
ATOM     20  C   UNL     1      -4.512  11.805  17.997  0.00  0.00    +0.000 C 
BRANCH  20  26
ATOM     21  C   UNL     1      -6.249  12.203  19.903  0.00  0.00    +0.000 A 
ATOM     22  C   UNL     1      -7.142  11.625  20.822  0.00  0.00    +0.000 A 
ATOM     23  C   UNL     1      -7.542  10.297  20.686  0.00  0.00    +0.000 A 
ATOM     24  C   UNL     1      -7.045   9.534  19.635  0.00  0.00    +0.000 A 
ATOM     25  C   UNL     1      -6.126  10.072  18.746  0.00  0.00    +0.000 A 
ATOM     26  C   UNL     1      -5.675  11.398  18.883  0.00  0.00    +0.000 A 
BRANCH  21  28
ATOM     27  C   UNL     1      -6.035  14.148  21.257  0.00  0.00    +0.000 C 
ATOM     28  O   UNL     1      -5.898  13.534  19.968  0.00  0.00    +0.000 OA
ENDBRANCH  21  28
ENDBRANCH  20  26
ENDBRANCH   1  20
TORSDOF 4
ENDMDL
MODEL 6
REMARK VINA RESULT:      -7.3      5.439     10.992
REMARK  Name = 
REMARK  6 active torsions:
REMARK  status: ('A' for Active; 'I' for Inactive)
REMARK    1  A    between atoms: C_1  and  O_2
REMARK    2  A    between atoms: O_2  and  C_3
REMARK    3  A    between atoms: C_8  and  C_9
REMARK    4  A    between atoms: C_9  and  N_10
REMARK    5  A    between atoms: C_14  and  C_15
REMARK    6  A    between atoms: C_18  and  C_19
REMARK                            x       y       z     vdW  Elec       q    Type
REMARK                         _______ _______ _______ _____ _____    ______ ____
ROOT
ATOM      1  N   UNL     1      -3.142  11.766  18.888  0.00  0.00    +0.000 N 
ATOM      2  C   UNL     1      -2.495  10.725  18.167  0.00  0.00    +0.000 C 
ATOM      3  C   UNL     1      -1.091  10.834  18.617  0.00  0.00    +0.000 C 
ATOM      4  C   UNL     1      -0.896  10.255  20.058  0.00  0.00    +0.000 C 
ATOM      5  C   UNL     1       0.569  10.575  20.250  0.00  0.00    +0.000 C 
ATOM      6  N   UNL     1       0.535  11.920  19.646  0.00  0.00    +0.000 NA
ATOM      7  C   UNL     1       0.968  13.099  20.352  0.00  0.00    +0.000 C 
ATOM      8  C   UNL     1       0.445  14.229  19.445  0.00  0.00    +0.000 C 
ATOM      9  C   UNL     1      -0.301  13.518  18.274  0.00  0.00    +0.000 C 
ATOM     10  C   UNL     1      -0.768  12.251  18.967  0.00  0.00    +0.000 C 
ATOM     11  C   UNL     1      -2.202  12.617  19.537  0.00  0.00    +0.000 C 
ATOM     12  O   UNL     1      -2.487  13.536  20.305  0.00  0.00    +0.000 OA
ENDROOT
BRANCH   5  13
ATOM     13  C   UNL     1       1.276   9.349  19.595  0.00  0.00    +0.000 A 
ATOM     14  C   UNL     1       1.682   9.183  18.263  0.00  0.00    +0.000 A 
ATOM     15  C   UNL     1       2.315   7.979  17.846  0.00  0.00    +0.000 A 
ATOM     16  C   UNL     1       2.537   6.915  18.736  0.00  0.00    +0.000 A 
ATOM     17  C   UNL     1       3.418   5.742  18.411  0.00  0.00    +0.000 C 
ATOM     18  C   UNL     1       2.036   7.027  20.026  0.00  0.00    +0.000 A 
ATOM     19  C   UNL     1       1.453   8.222  20.443  0.00  0.00    +0.000 A 
ENDBRANCH   5  13
BRANCH   1  20
ATOM     20  C   UNL     1      -4.540  12.017  18.564  0.00  0.00    +0.000 C 
BRANCH  20  26
ATOM     21  C   UNL     1      -6.524  10.973  19.899  0.00  0.00    +0.000 A 
ATOM     22  C   UNL     1      -7.516  11.165  20.877  0.00  0.00    +0.000 A 
ATOM     23  C   UNL     1      -7.457  12.254  21.745  0.00  0.00    +0.000 A 
ATOM     24  C   UNL     1      -6.412  13.164  21.636  0.00  0.00    +0.000 A 
ATOM     25  C   UNL     1      -5.450  13.019  20.646  0.00  0.00    +0.000 A 
ATOM     26  C   UNL     1      -5.507  11.950  19.732  0.00  0.00    +0.000 A 
BRANCH  21  28
ATOM     27  C   UNL     1      -7.037   8.662  19.662  0.00  0.00    +0.000 C 
ATOM     28  O   UNL     1      -6.514   9.864  19.081  0.00  0.00    +0.000 OA
ENDBRANCH  21  28
ENDBRANCH  20  26
ENDBRANCH   1  20
TORSDOF 4
ENDMDL
MODEL 7
REMARK VINA RESULT:      -7.2      1.549      2.338
REMARK  Name = 
REMARK  6 active torsions:
REMARK  status: ('A' for Active; 'I' for Inactive)
REMARK    1  A    between atoms: C_1  and  O_2
REMARK    2  A    between atoms: O_2  and  C_3
REMARK    3  A    between atoms: C_8  and  C_9
REMARK    4  A    between atoms: C_9  and  N_10
REMARK    5  A    between atoms: C_14  and  C_15
REMARK    6  A    between atoms: C_18  and  C_19
REMARK                            x       y       z     vdW  Elec       q    Type
REMARK                         _______ _______ _______ _____ _____    ______ ____
ROOT
ATOM      1  N   UNL     1       5.751   5.268  16.947  0.00  0.00    +0.000 N 
ATOM      2  C   UNL     1       4.966   6.396  16.577  0.00  0.00    +0.000 C 
ATOM      3  C   UNL     1       3.784   6.279  17.457  0.00  0.00    +0.000 C 
ATOM      4  C   UNL     1       4.108   6.712  18.925  0.00  0.00    +0.000 C 
ATOM      5  C   UNL     1       2.771   6.415  19.565  0.00  0.00    +0.000 C 
ATOM      6  N   UNL     1       2.524   5.138  18.869  0.00  0.00    +0.000 NA
ATOM      7  C   UNL     1       2.277   3.905  19.572  0.00  0.00    +0.000 C 
ATOM      8  C   UNL     1       2.404   2.861  18.448  0.00  0.00    +0.000 C 
ATOM      9  C   UNL     1       2.766   3.668  17.162  0.00  0.00    +0.000 C 
ATOM     10  C   UNL     1       3.510   4.843  17.769  0.00  0.00    +0.000 C 
ATOM     11  C   UNL     1       5.026   4.382  17.795  0.00  0.00    +0.000 C 
ATOM     12  O   UNL     1       5.493   3.381  18.340  0.00  0.00    +0.000 OA
ENDROOT
BRANCH   5  13
ATOM     13  C   UNL     1       1.963   7.720  19.293  0.00  0.00    +0.000 A 
ATOM     14  C   UNL     1       1.840   8.439  18.096  0.00  0.00    +0.000 A 
ATOM     15  C   UNL     1       1.053   9.623  18.042  0.00  0.00    +0.000 A 
ATOM     16  C   UNL     1       0.395  10.125  19.177  0.00  0.00    +0.000 A 
ATOM     17  C   UNL     1      -0.639  11.213  19.113  0.00  0.00    +0.000 C 
ATOM     18  C   UNL     1       0.605   9.483  20.390  0.00  0.00    +0.000 A 
ATOM     19  C   UNL     1       1.342   8.301  20.432  0.00  0.00    +0.000 A 
ENDBRANCH   5  13
BRANCH   1  20
ATOM     20  C   UNL     1       6.947   5.014  16.156  0.00  0.00    +0.000 C 
BRANCH  20  26
ATOM     21  C   UNL     1       7.416   4.841  13.595  0.00  0.00    +0.000 A 
ATOM     22  C   UNL     1       6.934   4.451  12.333  0.00  0.00    +0.000 A 
ATOM     23  C   UNL     1       5.826   3.612  12.224  0.00  0.00    +0.000 A 
ATOM     24  C   UNL     1       5.185   3.166  13.375  0.00  0.00    +0.000 A 
ATOM     25  C   UNL     1       5.616   3.579  14.627  0.00  0.00    +0.000 A 
ATOM     26  C   UNL     1       6.708   4.456  14.765  0.00  0.00    +0.000 A 
BRANCH  21  28
ATOM     27  C   UNL     1       9.008   6.263  12.543  0.00  0.00    +0.000 C 
ATOM     28  O   UNL     1       8.555   5.604  13.734  0.00  0.00    +0.000 OA
ENDBRANCH  21  28
ENDBRANCH  20  26
ENDBRANCH   1  20
TORSDOF 4
ENDMDL
MODEL 8
REMARK VINA RESULT:      -7.2      1.104      1.445
REMARK  Name = 
REMARK  6 active torsions:
REMARK  status: ('A' for Active; 'I' for Inactive)
REMARK    1  A    between atoms: C_1  and  O_2
REMARK    2  A    between atoms: O_2  and  C_3
REMARK    3  A    between atoms: C_8  and  C_9
REMARK    4  A    between atoms: C_9  and  N_10
REMARK    5  A    between atoms: C_14  and  C_15
REMARK    6  A    between atoms: C_18  and  C_19
REMARK                            x       y       z     vdW  Elec       q    Type
REMARK                         _______ _______ _______ _____ _____    ______ ____
ROOT
ATOM      1  N   UNL     1       4.956   4.652  18.679  0.00  0.00    +0.000 N 
ATOM      2  C   UNL     1       4.488   5.957  18.358  0.00  0.00    +0.000 C 
ATOM      3  C   UNL     1       3.114   5.959  18.904  0.00  0.00    +0.000 C 
ATOM      4  C   UNL     1       3.108   6.104  20.462  0.00  0.00    +0.000 C 
ATOM      5  C   UNL     1       1.621   5.997  20.709  0.00  0.00    +0.000 C 
ATOM      6  N   UNL     1       1.362   4.909  19.747  0.00  0.00    +0.000 NA
ATOM      7  C   UNL     1       0.744   3.665  20.128  0.00  0.00    +0.000 C 
ATOM      8  C   UNL     1       0.990   2.788  18.888  0.00  0.00    +0.000 C 
ATOM      9  C   UNL     1       1.801   3.678  17.895  0.00  0.00    +0.000 C 
ATOM     10  C   UNL     1       2.540   4.580  18.868  0.00  0.00    +0.000 C 
ATOM     11  C   UNL     1       3.901   3.820  19.154  0.00  0.00    +0.000 C 
ATOM     12  O   UNL     1       4.041   2.678  19.594  0.00  0.00    +0.000 OA
ENDROOT
BRANCH   5  13
ATOM     13  C   UNL     1       1.134   7.464  20.510  0.00  0.00    +0.000 A 
ATOM     14  C   UNL     1       1.503   8.381  19.515  0.00  0.00    +0.000 A 
ATOM     15  C   UNL     1       0.950   9.691  19.498  0.00  0.00    +0.000 A 
ATOM     16  C   UNL     1       0.039  10.120  20.478  0.00  0.00    +0.000 A 
ATOM     17  C   UNL     1      -0.757  11.389  20.360  0.00  0.00    +0.000 C 
ATOM     18  C   UNL     1      -0.243   9.259  21.529  0.00  0.00    +0.000 A 
ATOM     19  C   UNL     1       0.268   7.962  21.521  0.00  0.00    +0.000 A 
ENDBRANCH   5  13
BRANCH   1  20
ATOM     20  C   UNL     1       6.260   4.275  18.151  0.00  0.00    +0.000 C 
BRANCH  20  26
ATOM     21  C   UNL     1       7.122   5.459  15.992  0.00  0.00    +0.000 A 
ATOM     22  C   UNL     1       6.985   5.618  14.601  0.00  0.00    +0.000 A 
ATOM     23  C   UNL     1       6.250   4.702  13.850  0.00  0.00    +0.000 A 
ATOM     24  C   UNL     1       5.638   3.627  14.484  0.00  0.00    +0.000 A 
ATOM     25  C   UNL     1       5.721   3.480  15.861  0.00  0.00    +0.000 A 
ATOM     26  C   UNL     1       6.424   4.411  16.648  0.00  0.00    +0.000 A 
BRANCH  21  28
ATOM     27  C   UNL     1       7.293   7.541  17.130  0.00  0.00    +0.000 C 
ATOM     28  O   UNL     1       7.907   6.303  16.746  0.00  0.00    +0.000 OA
ENDBRANCH  21  28
ENDBRANCH  20  26
ENDBRANCH   1  20
TORSDOF 4
ENDMDL
MODEL 9
REMARK VINA RESULT:      -7.2      1.257      2.038
REMARK  Name = 
REMARK  6 active torsions:
REMARK  status: ('A' for Active; 'I' for Inactive)
REMARK    1  A    between atoms: C_1  and  O_2
REMARK    2  A    between atoms: O_2  and  C_3
REMARK    3  A    between atoms: C_8  and  C_9
REMARK    4  A    between atoms: C_9  and  N_10
REMARK    5  A    between atoms: C_14  and  C_15
REMARK    6  A    between atoms: C_18  and  C_19
REMARK                            x       y       z     vdW  Elec       q    Type
REMARK                         _______ _______ _______ _____ _____    ______ ____
ROOT
ATOM      1  N   UNL     1       4.328   3.782  17.137  0.00  0.00    +0.000 N 
ATOM      2  C   UNL     1       3.726   4.992  16.695  0.00  0.00    +0.000 C 
ATOM      3  C   UNL     1       2.867   5.370  17.838  0.00  0.00    +0.000 C 
ATOM      4  C   UNL     1       3.701   5.961  19.022  0.00  0.00    +0.000 C 
ATOM      5  C   UNL     1       2.588   6.166  20.023  0.00  0.00    +0.000 C 
ATOM      6  N   UNL     1       1.880   4.901  19.758  0.00  0.00    +0.000 NA
ATOM      7  C   UNL     1       1.601   3.935  20.790  0.00  0.00    +0.000 C 
ATOM      8  C   UNL     1       1.160   2.706  19.974  0.00  0.00    +0.000 C 
ATOM      9  C   UNL     1       1.279   3.130  18.477  0.00  0.00    +0.000 C 
ATOM     10  C   UNL     1       2.402   4.148  18.563  0.00  0.00    +0.000 C 
ATOM     11  C   UNL     1       3.723   3.301  18.333  0.00  0.00    +0.000 C 
ATOM     12  O   UNL     1       4.109   2.329  18.984  0.00  0.00    +0.000 OA
ENDROOT
BRANCH   5  13
ATOM     13  C   UNL     1       2.031   7.570  19.634  0.00  0.00    +0.000 A 
ATOM     14  C   UNL     1       2.192   8.272  18.431  0.00  0.00    +0.000 A 
ATOM     15  C   UNL     1       1.606   9.557  18.261  0.00  0.00    +0.000 A 
ATOM     16  C   UNL     1       0.870  10.174  19.286  0.00  0.00    +0.000 A 
ATOM     17  C   UNL     1       0.030  11.401  19.069  0.00  0.00    +0.000 C 
ATOM     18  C   UNL     1       0.803   9.536  20.517  0.00  0.00    +0.000 A 
ATOM     19  C   UNL     1       1.342   8.260  20.669  0.00  0.00    +0.000 A 
ENDBRANCH   5  13
BRANCH   1  20
ATOM     20  C   UNL     1       5.149   3.067  16.168  0.00  0.00    +0.000 C 
BRANCH  20  26
ATOM     21  C   UNL     1       5.811   3.934  13.798  0.00  0.00    +0.000 A 
ATOM     22  C   UNL     1       6.775   4.587  13.010  0.00  0.00    +0.000 A 
ATOM     23  C   UNL     1       7.804   5.317  13.604  0.00  0.00    +0.000 A 
ATOM     24  C   UNL     1       7.883   5.390  14.990  0.00  0.00    +0.000 A 
ATOM     25  C   UNL     1       6.969   4.712  15.786  0.00  0.00    +0.000 A 
ATOM     26  C   UNL     1       5.944   3.937  15.212  0.00  0.00    +0.000 A 
BRANCH  21  28
ATOM     27  C   UNL     1       4.720   3.230  11.804  0.00  0.00    +0.000 C 
ATOM     28  O   UNL     1       4.741   3.273  13.238  0.00  0.00    +0.000 OA
ENDBRANCH  21  28
ENDBRANCH  20  26
ENDBRANCH   1  20
TORSDOF 4
ENDMDL
