MODEL 1
REMARK VINA RESULT:      -8.6      0.000      0.000
REMARK  Name = 
REMARK  5 active torsions:
REMARK  status: ('A' for Active; 'I' for Inactive)
REMARK    1  A    between atoms: C_1  and  C_2
REMARK    2  A    between atoms: C_2  and  C_3
REMARK    3  A    between atoms: C_3  and  O_4
REMARK    4  A    between atoms: C_21  and  O_22
REMARK    5  A    between atoms: O_22  and  C_23
REMARK                            x       y       z     vdW  Elec       q    Type
REMARK                         _______ _______ _______ _____ _____    ______ ____
ROOT
ATOM      1  C   UNL     1       5.668   4.906  14.845  0.00  0.00    +0.000 C 
ATOM      2  C   UNL     1       7.202   4.833  15.111  0.00  0.00    +0.000 C 
ATOM      3  O   UNL     1       8.060   5.580  14.608  0.00  0.00    +0.000 OA
ATOM      4  O   UNL     1       7.491   4.089  16.199  0.00  0.00    +0.000 OA
ATOM      5  C   UNL     1       7.377   5.050  17.227  0.00  0.00    +0.000 C 
ATOM      6  C   UNL     1       6.002   5.681  17.195  0.00  0.00    +0.000 A 
ATOM      7  C   UNL     1       5.242   5.938  16.077  0.00  0.00    +0.000 A 
ATOM      8  C   UNL     1       3.964   6.790  16.413  0.00  0.00    +0.000 A 
ATOM      9  C   UNL     1       3.501   6.943  17.713  0.00  0.00    +0.000 A 
ATOM     10  N   UNL     1       4.128   6.099  18.632  0.00  0.00    +0.000 N 
ATOM     11  C   UNL     1       5.309   5.476  18.479  0.00  0.00    +0.000 A 
ATOM     12  O   UNL     1       5.818   4.811  19.384  0.00  0.00    +0.000 OA
ATOM     13  C   UNL     1       3.428   5.903  19.862  0.00  0.00    +0.000 C 
ATOM     14  C   UNL     1       2.423   6.972  19.835  0.00  0.00    +0.000 A 
ATOM     15  C   UNL     1       1.673   7.320  20.946  0.00  0.00    +0.000 A 
ATOM     16  C   UNL     1       0.964   8.498  20.919  0.00  0.00    +0.000 A 
ATOM     17  C   UNL     1       0.205   8.826  22.080  0.00  0.00    +0.000 A 
ATOM     18  C   UNL     1      -0.473  10.031  22.168  0.00  0.00    +0.000 A 
ATOM     19  C   UNL     1      -0.317  10.909  21.104  0.00  0.00    +0.000 A 
ATOM     20  C   UNL     1       0.437  10.550  19.941  0.00  0.00    +0.000 A 
ATOM     21  C   UNL     1       1.082   9.308  19.756  0.00  0.00    +0.000 A 
ATOM     22  N   UNL     1       1.807   8.883  18.600  0.00  0.00    +0.000 NA
ATOM     23  C   UNL     1       2.438   7.679  18.626  0.00  0.00    +0.000 A 
ENDROOT
BRANCH   1  25
ATOM     24  C   UNL     1       6.046   3.262  12.578  0.00  0.00    +0.000 C 
ATOM     25  C   UNL     1       5.724   4.629  13.245  0.00  0.00    +0.000 C 
ENDBRANCH   1  25
BRANCH   1  26
ATOM     26  O   UNL     1       4.856   3.783  15.286  0.00  0.00    +0.000 OA
ATOM     27  H   UNL     1       5.137   3.474  16.162  0.00  0.00    +0.000 HD
ENDBRANCH   1  26
BRANCH  18  28
ATOM     28  O   UNL     1      -1.257  10.447  23.212  0.00  0.00    +0.000 OA
ATOM     29  C   UNL     1      -1.905  11.712  23.118  0.00  0.00    +0.000 C 
ENDBRANCH  18  28
TORSDOF 3
ENDMDL
MODEL 2
REMARK VINA RESULT:      -8.1      2.112      9.806
REMARK  Name = 
REMARK  5 active torsions:
REMARK  status: ('A' for Active; 'I' for Inactive)
REMARK    1  A    between atoms: C_1  and  C_2
REMARK    2  A    between atoms: C_2  and  C_3
REMARK    3  A    between atoms: C_3  and  O_4
REMARK    4  A    between atoms: C_21  and  O_22
REMARK    5  A    between atoms: O_22  and  C_23
REMARK                            x       y       z     vdW  Elec       q    Type
REMARK                         _______ _______ _______ _____ _____    ______ ____
ROOT
ATOM      1  C   UNL     1      -1.839  12.188  22.283  0.00  0.00    +0.000 C 
ATOM      2  C   UNL     1      -1.204  13.549  22.700  0.00  0.00    +0.000 C 
ATOM      3  O   UNL     1      -0.810  13.845  23.842  0.00  0.00    +0.000 OA
ATOM      4  O   UNL     1      -0.815  14.273  21.630  0.00  0.00    +0.000 OA
ATOM      5  C   UNL     1       0.480  13.758  21.405  0.00  0.00    +0.000 C 
ATOM      6  C   UNL     1       0.415  12.259  21.210  0.00  0.00    +0.000 A 
ATOM      7  C   UNL     1      -0.455  11.388  21.825  0.00  0.00    +0.000 A 
ATOM      8  C   UNL     1      -0.091   9.885  21.537  0.00  0.00    +0.000 A 
ATOM      9  C   UNL     1       0.774   9.521  20.513  0.00  0.00    +0.000 A 
ATOM     10  N   UNL     1       1.089  10.569  19.647  0.00  0.00    +0.000 N 
ATOM     11  C   UNL     1       0.967  11.885  19.897  0.00  0.00    +0.000 A 
ATOM     12  O   UNL     1       1.347  12.739  19.093  0.00  0.00    +0.000 OA
ATOM     13  C   UNL     1       1.606  10.179  18.374  0.00  0.00    +0.000 C 
ATOM     14  C   UNL     1       1.940   8.765  18.580  0.00  0.00    +0.000 A 
ATOM     15  C   UNL     1       2.702   8.039  17.681  0.00  0.00    +0.000 A 
ATOM     16  C   UNL     1       3.200   6.819  18.075  0.00  0.00    +0.000 A 
ATOM     17  C   UNL     1       3.981   6.099  17.125  0.00  0.00    +0.000 A 
ATOM     18  C   UNL     1       4.587   4.901  17.466  0.00  0.00    +0.000 A 
ATOM     19  C   UNL     1       4.443   4.487  18.782  0.00  0.00    +0.000 A 
ATOM     20  C   UNL     1       3.639   5.218  19.714  0.00  0.00    +0.000 A 
ATOM     21  C   UNL     1       2.931   6.400  19.406  0.00  0.00    +0.000 A 
ATOM     22  N   UNL     1       2.081   7.142  20.284  0.00  0.00    +0.000 NA
ATOM     23  C   UNL     1       1.540   8.309  19.843  0.00  0.00    +0.000 A 
ENDROOT
BRANCH   1  25
ATOM     24  C   UNL     1      -4.414  13.080  23.030  0.00  0.00    +0.000 C 
ATOM     25  C   UNL     1      -3.123  12.249  23.276  0.00  0.00    +0.000 C 
ENDBRANCH   1  25
BRANCH   1  26
ATOM     26  O   UNL     1      -2.500  12.122  20.989  0.00  0.00    +0.000 OA
ATOM     27  H   UNL     1      -3.450  11.955  21.093  0.00  0.00    +0.000 HD
ENDBRANCH   1  26
BRANCH  18  28
ATOM     28  O   UNL     1       5.334   4.104  16.638  0.00  0.00    +0.000 OA
ATOM     29  C   UNL     1       6.692   4.456  16.393  0.00  0.00    +0.000 C 
ENDBRANCH  18  28
TORSDOF 3
ENDMDL
MODEL 3
REMARK VINA RESULT:      -7.8      2.510     10.391
REMARK  Name = 
REMARK  5 active torsions:
REMARK  status: ('A' for Active; 'I' for Inactive)
REMARK    1  A    between atoms: C_1  and  C_2
REMARK    2  A    between atoms: C_2  and  C_3
REMARK    3  A    between atoms: C_3  and  O_4
REMARK    4  A    between atoms: C_21  and  O_22
REMARK    5  A    between atoms: O_22  and  C_23
REMARK                            x       y       z     vdW  Elec       q    Type
REMARK                         _______ _______ _______ _____ _____    ______ ____
ROOT
ATOM      1  C   UNL     1      -2.221  13.347  23.238  0.00  0.00    +0.000 C 
ATOM      2  C   UNL     1      -1.488  14.655  23.664  0.00  0.00    +0.000 C 
ATOM      3  O   UNL     1      -1.014  14.885  24.790  0.00  0.00    +0.000 OA
ATOM      4  O   UNL     1      -1.120  15.398  22.599  0.00  0.00    +0.000 OA
ATOM      5  C   UNL     1       0.130  14.822  22.281  0.00  0.00    +0.000 C 
ATOM      6  C   UNL     1      -0.031  13.337  22.037  0.00  0.00    +0.000 A 
ATOM      7  C   UNL     1      -0.913  12.491  22.671  0.00  0.00    +0.000 A 
ATOM      8  C   UNL     1      -0.651  10.984  22.310  0.00  0.00    +0.000 A 
ATOM      9  C   UNL     1       0.133  10.612  21.225  0.00  0.00    +0.000 A 
ATOM     10  N   UNL     1       0.457  11.675  20.380  0.00  0.00    +0.000 N 
ATOM     11  C   UNL     1       0.423  12.984  20.682  0.00  0.00    +0.000 A 
ATOM     12  O   UNL     1       0.806  13.846  19.888  0.00  0.00    +0.000 OA
ATOM     13  C   UNL     1       0.879  11.306  19.065  0.00  0.00    +0.000 C 
ATOM     14  C   UNL     1       1.144   9.869  19.201  0.00  0.00    +0.000 A 
ATOM     15  C   UNL     1       1.811   9.138  18.234  0.00  0.00    +0.000 A 
ATOM     16  C   UNL     1       2.261   7.878  18.555  0.00  0.00    +0.000 A 
ATOM     17  C   UNL     1       2.946   7.154  17.536  0.00  0.00    +0.000 A 
ATOM     18  C   UNL     1       3.501   5.913  17.798  0.00  0.00    +0.000 A 
ATOM     19  C   UNL     1       3.409   5.456  19.106  0.00  0.00    +0.000 A 
ATOM     20  C   UNL     1       2.701   6.194  20.109  0.00  0.00    +0.000 A 
ATOM     21  C   UNL     1       2.044   7.423  19.885  0.00  0.00    +0.000 A 
ATOM     22  N   UNL     1       1.289   8.176  20.835  0.00  0.00    +0.000 NA
ATOM     23  C   UNL     1       0.791   9.387  20.469  0.00  0.00    +0.000 A 
ENDROOT
BRANCH   1  25
ATOM     24  C   UNL     1      -4.485  12.320  24.581  0.00  0.00    +0.000 C 
ATOM     25  C   UNL     1      -3.442  13.439  24.305  0.00  0.00    +0.000 C 
ENDBRANCH   1  25
BRANCH   1  26
ATOM     26  O   UNL     1      -2.957  13.367  21.983  0.00  0.00    +0.000 OA
ATOM     27  H   UNL     1      -3.210  14.273  21.743  0.00  0.00    +0.000 HD
ENDBRANCH   1  26
BRANCH  18  28
ATOM     28  O   UNL     1       4.154   5.109  16.901  0.00  0.00    +0.000 OA
ATOM     29  C   UNL     1       5.246   5.651  16.165  0.00  0.00    +0.000 C 
ENDBRANCH  18  28
TORSDOF 3
ENDMDL
MODEL 4
REMARK VINA RESULT:      -7.6      3.113      9.526
REMARK  Name = 
REMARK  5 active torsions:
REMARK  status: ('A' for Active; 'I' for Inactive)
REMARK    1  A    between atoms: C_1  and  C_2
REMARK    2  A    between atoms: C_2  and  C_3
REMARK    3  A    between atoms: C_3  and  O_4
REMARK    4  A    between atoms: C_21  and  O_22
REMARK    5  A    between atoms: O_22  and  C_23
REMARK                            x       y       z     vdW  Elec       q    Type
REMARK                         _______ _______ _______ _____ _____    ______ ____
ROOT
ATOM      1  C   UNL     1      -1.051  13.384  21.600  0.00  0.00    +0.000 C 
ATOM      2  C   UNL     1      -0.106  14.610  21.784  0.00  0.00    +0.000 C 
ATOM      3  O   UNL     1       0.362  15.007  22.865  0.00  0.00    +0.000 OA
ATOM      4  O   UNL     1       0.427  15.016  20.613  0.00  0.00    +0.000 OA
ATOM      5  C   UNL     1       1.561  14.179  20.522  0.00  0.00    +0.000 C 
ATOM      6  C   UNL     1       1.140  12.728  20.597  0.00  0.00    +0.000 A 
ATOM      7  C   UNL     1       0.098  12.211  21.333  0.00  0.00    +0.000 A 
ATOM      8  C   UNL     1       0.093  10.639  21.331  0.00  0.00    +0.000 A 
ATOM      9  C   UNL     1       0.832   9.902  20.415  0.00  0.00    +0.000 A 
ATOM     10  N   UNL     1       1.374  10.673  19.385  0.00  0.00    +0.000 N 
ATOM     11  C   UNL     1       1.569  12.003  19.390  0.00  0.00    +0.000 A 
ATOM     12  O   UNL     1       2.129  12.583  18.457  0.00  0.00    +0.000 OA
ATOM     13  C   UNL     1       1.766   9.947  18.217  0.00  0.00    +0.000 C 
ATOM     14  C   UNL     1       1.760   8.556  18.684  0.00  0.00    +0.000 A 
ATOM     15  C   UNL     1       2.316   7.521  17.953  0.00  0.00    +0.000 A 
ATOM     16  C   UNL     1       2.517   6.309  18.574  0.00  0.00    +0.000 A 
ATOM     17  C   UNL     1       3.092   5.266  17.792  0.00  0.00    +0.000 A 
ATOM     18  C   UNL     1       3.403   4.042  18.360  0.00  0.00    +0.000 A 
ATOM     19  C   UNL     1       3.184   3.919  19.724  0.00  0.00    +0.000 A 
ATOM     20  C   UNL     1       2.589   4.975  20.486  0.00  0.00    +0.000 A 
ATOM     21  C   UNL     1       2.175   6.215  19.950  0.00  0.00    +0.000 A 
ATOM     22  N   UNL     1       1.538   7.282  20.655  0.00  0.00    +0.000 NA
ATOM     23  C   UNL     1       1.281   8.443  19.996  0.00  0.00    +0.000 A 
ENDROOT
BRANCH   1  25
ATOM     24  C   UNL     1      -3.255  13.029  23.332  0.00  0.00    +0.000 C 
ATOM     25  C   UNL     1      -2.270  13.924  22.528  0.00  0.00    +0.000 C 
ENDBRANCH   1  25
BRANCH   1  26
ATOM     26  O   UNL     1      -1.727  13.241  20.320  0.00  0.00    +0.000 OA
ATOM     27  H   UNL     1      -1.861  12.306  20.101  0.00  0.00    +0.000 HD
ENDBRANCH   1  26
BRANCH  18  28
ATOM     28  O   UNL     1       3.929   2.956  17.711  0.00  0.00    +0.000 OA
ATOM     29  C   UNL     1       3.555   1.652  18.147  0.00  0.00    +0.000 C 
ENDBRANCH  18  28
TORSDOF 3
ENDMDL
MODEL 5
REMARK VINA RESULT:      -7.3      3.435      9.137
REMARK  Name = 
REMARK  5 active torsions:
REMARK  status: ('A' for Active; 'I' for Inactive)
REMARK    1  A    between atoms: C_1  and  C_2
REMARK    2  A    between atoms: C_2  and  C_3
REMARK    3  A    between atoms: C_3  and  O_4
REMARK    4  A    between atoms: C_21  and  O_22
REMARK    5  A    between atoms: O_22  and  C_23
REMARK                            x       y       z     vdW  Elec       q    Type
REMARK                         _______ _______ _______ _____ _____    ______ ____
ROOT
ATOM      1  C   UNL     1      -1.200  13.319  19.968  0.00  0.00    +0.000 C 
ATOM      2  C   UNL     1      -0.276  14.561  20.150  0.00  0.00    +0.000 C 
ATOM      3  O   UNL     1      -0.043  15.139  21.226  0.00  0.00    +0.000 OA
ATOM      4  O   UNL     1       0.517  14.763  19.076  0.00  0.00    +0.000 OA
ATOM      5  C   UNL     1       1.612  13.926  19.383  0.00  0.00    +0.000 C 
ATOM      6  C   UNL     1       1.134  12.508  19.604  0.00  0.00    +0.000 A 
ATOM      7  C   UNL     1      -0.062  12.122  20.164  0.00  0.00    +0.000 A 
ATOM      8  C   UNL     1      -0.123  10.572  20.424  0.00  0.00    +0.000 A 
ATOM      9  C   UNL     1       0.773   9.691  19.833  0.00  0.00    +0.000 A 
ATOM     10  N   UNL     1       1.556  10.276  18.835  0.00  0.00    +0.000 N 
ATOM     11  C   UNL     1       1.792  11.588  18.661  0.00  0.00    +0.000 A 
ATOM     12  O   UNL     1       2.564  12.001  17.794  0.00  0.00    +0.000 OA
ATOM     13  C   UNL     1       2.169   9.363  17.923  0.00  0.00    +0.000 C 
ATOM     14  C   UNL     1       2.011   8.072  18.603  0.00  0.00    +0.000 A 
ATOM     15  C   UNL     1       2.677   6.928  18.198  0.00  0.00    +0.000 A 
ATOM     16  C   UNL     1       2.694   5.841  19.041  0.00  0.00    +0.000 A 
ATOM     17  C   UNL     1       3.390   4.681  18.593  0.00  0.00    +0.000 A 
ATOM     18  C   UNL     1       3.524   3.573  19.413  0.00  0.00    +0.000 A 
ATOM     19  C   UNL     1       3.006   3.685  20.695  0.00  0.00    +0.000 A 
ATOM     20  C   UNL     1       2.295   4.854  21.117  0.00  0.00    +0.000 A 
ATOM     21  C   UNL     1       2.054   5.982  20.303  0.00  0.00    +0.000 A 
ATOM     22  N   UNL     1       1.315   7.152  20.659  0.00  0.00    +0.000 NA
ATOM     23  C   UNL     1       1.252   8.184  19.775  0.00  0.00    +0.000 A 
ENDROOT
BRANCH   1  25
ATOM     24  C   UNL     1      -3.392  13.549  21.737  0.00  0.00    +0.000 C 
ATOM     25  C   UNL     1      -2.574  14.006  20.497  0.00  0.00    +0.000 C 
ENDBRANCH   1  25
BRANCH   1  26
ATOM     26  O   UNL     1      -1.582  12.958  18.612  0.00  0.00    +0.000 OA
ATOM     27  H   UNL     1      -2.074  12.122  18.601  0.00  0.00    +0.000 HD
ENDBRANCH   1  26
BRANCH  18  28
ATOM     28  O   UNL     1       4.141   2.393  19.089  0.00  0.00    +0.000 OA
ATOM     29  C   UNL     1       3.530   1.546  18.120  0.00  0.00    +0.000 C 
ENDBRANCH  18  28
TORSDOF 3
ENDMDL
MODEL 6
REMARK VINA RESULT:      -7.3      1.573      2.130
REMARK  Name = 
REMARK  5 active torsions:
REMARK  status: ('A' for Active; 'I' for Inactive)
REMARK    1  A    between atoms: C_1  and  C_2
REMARK    2  A    between atoms: C_2  and  C_3
REMARK    3  A    between atoms: C_3  and  O_4
REMARK    4  A    between atoms: C_21  and  O_22
REMARK    5  A    between atoms: O_22  and  C_23
REMARK                            x       y       z     vdW  Elec       q    Type
REMARK                         _______ _______ _______ _____ _____    ______ ____
ROOT
ATOM      1  C   UNL     1       5.647   4.955  16.045  0.00  0.00    +0.000 C 
ATOM      2  C   UNL     1       6.752   4.381  16.982  0.00  0.00    +0.000 C 
ATOM      3  O   UNL     1       7.946   4.729  16.991  0.00  0.00    +0.000 OA
ATOM      4  O   UNL     1       6.228   3.695  18.019  0.00  0.00    +0.000 OA
ATOM      5  C   UNL     1       6.004   4.733  18.950  0.00  0.00    +0.000 C 
ATOM      6  C   UNL     1       5.118   5.795  18.336  0.00  0.00    +0.000 A 
ATOM      7  C   UNL     1       5.100   6.188  17.017  0.00  0.00    +0.000 A 
ATOM      8  C   UNL     1       4.204   7.460  16.791  0.00  0.00    +0.000 A 
ATOM      9  C   UNL     1       3.286   7.893  17.739  0.00  0.00    +0.000 A 
ATOM     10  N   UNL     1       3.080   6.980  18.775  0.00  0.00    +0.000 N 
ATOM     11  C   UNL     1       3.895   5.973  19.136  0.00  0.00    +0.000 A 
ATOM     12  O   UNL     1       3.661   5.266  20.119  0.00  0.00    +0.000 OA
ATOM     13  C   UNL     1       1.877   7.162  19.524  0.00  0.00    +0.000 C 
ATOM     14  C   UNL     1       1.446   8.506  19.120  0.00  0.00    +0.000 A 
ATOM     15  C   UNL     1       0.450   9.201  19.783  0.00  0.00    +0.000 A 
ATOM     16  C   UNL     1       0.299  10.544  19.523  0.00  0.00    +0.000 A 
ATOM     17  C   UNL     1      -0.736  11.229  20.225  0.00  0.00    +0.000 A 
ATOM     18  C   UNL     1      -0.904  12.596  20.083  0.00  0.00    +0.000 A 
ATOM     19  C   UNL     1       0.019  13.255  19.283  0.00  0.00    +0.000 A 
ATOM     20  C   UNL     1       1.040  12.543  18.575  0.00  0.00    +0.000 A 
ATOM     21  C   UNL     1       1.212  11.142  18.612  0.00  0.00    +0.000 A 
ATOM     22  N   UNL     1       2.183  10.379  17.892  0.00  0.00    +0.000 NA
ATOM     23  C   UNL     1       2.261   9.039  18.113  0.00  0.00    +0.000 A 
ENDROOT
BRANCH   1  25
ATOM     24  C   UNL     1       5.583   3.841  13.449  0.00  0.00    +0.000 C 
ATOM     25  C   UNL     1       6.326   4.518  14.635  0.00  0.00    +0.000 C 
ENDBRANCH   1  25
BRANCH   1  26
ATOM     26  O   UNL     1       4.385   4.235  15.973  0.00  0.00    +0.000 OA
ATOM     27  H   UNL     1       3.967   4.353  15.105  0.00  0.00    +0.000 HD
ENDBRANCH   1  26
BRANCH  18  28
ATOM     28  O   UNL     1      -1.874  13.361  20.677  0.00  0.00    +0.000 OA
ATOM     29  C   UNL     1      -2.690  12.770  21.682  0.00  0.00    +0.000 C 
ENDBRANCH  18  28
TORSDOF 3
ENDMDL
MODEL 7
REMARK VINA RESULT:      -7.2      3.378      5.051
REMARK  Name = 
REMARK  5 active torsions:
REMARK  status: ('A' for Active; 'I' for Inactive)
REMARK    1  A    between atoms: C_1  and  C_2
REMARK    2  A    between atoms: C_2  and  C_3
REMARK    3  A    between atoms: C_3  and  O_4
REMARK    4  A    between atoms: C_21  and  O_22
REMARK    5  A    between atoms: O_22  and  C_23
REMARK                            x       y       z     vdW  Elec       q    Type
REMARK                         _______ _______ _______ _____ _____    ______ ____
ROOT
ATOM      1  C   UNL     1       2.925   5.015  17.907  0.00  0.00    +0.000 C 
ATOM      2  C   UNL     1       3.383   4.250  19.186  0.00  0.00    +0.000 C 
ATOM      3  O   UNL     1       4.558   3.965  19.477  0.00  0.00    +0.000 OA
ATOM      4  O   UNL     1       2.412   4.207  20.123  0.00  0.00    +0.000 OA
ATOM      5  C   UNL     1       2.628   5.428  20.798  0.00  0.00    +0.000 C 
ATOM      6  C   UNL     1       2.560   6.580  19.819  0.00  0.00    +0.000 A 
ATOM      7  C   UNL     1       2.970   6.567  18.505  0.00  0.00    +0.000 A 
ATOM      8  C   UNL     1       2.942   8.000  17.861  0.00  0.00    +0.000 A 
ATOM      9  C   UNL     1       2.256   9.057  18.446  0.00  0.00    +0.000 A 
ATOM     10  N   UNL     1       1.429   8.670  19.502  0.00  0.00    +0.000 N 
ATOM     11  C   UNL     1       1.509   7.532  20.213  0.00  0.00    +0.000 A 
ATOM     12  O   UNL     1       0.777   7.316  21.182  0.00  0.00    +0.000 OA
ATOM     13  C   UNL     1       0.405   9.603  19.853  0.00  0.00    +0.000 C 
ATOM     14  C   UNL     1       0.830  10.825  19.160  0.00  0.00    +0.000 A 
ATOM     15  C   UNL     1       0.266  12.063  19.415  0.00  0.00    +0.000 A 
ATOM     16  C   UNL     1       0.900  13.187  18.937  0.00  0.00    +0.000 A 
ATOM     17  C   UNL     1       0.292  14.444  19.219  0.00  0.00    +0.000 A 
ATOM     18  C   UNL     1       0.905  15.629  18.845  0.00  0.00    +0.000 A 
ATOM     19  C   UNL     1       2.153  15.519  18.248  0.00  0.00    +0.000 A 
ATOM     20  C   UNL     1       2.736  14.243  17.959  0.00  0.00    +0.000 A 
ATOM     21  C   UNL     1       2.126  13.001  18.241  0.00  0.00    +0.000 A 
ATOM     22  N   UNL     1       2.642  11.705  17.934  0.00  0.00    +0.000 NA
ATOM     23  C   UNL     1       1.956  10.608  18.354  0.00  0.00    +0.000 A 
ENDROOT
BRANCH   1  25
ATOM     24  C   UNL     1       4.857   4.038  16.091  0.00  0.00    +0.000 C 
ATOM     25  C   UNL     1       3.486   3.948  16.819  0.00  0.00    +0.000 C 
ENDBRANCH   1  25
BRANCH   1  26
ATOM     26  O   UNL     1       1.506   5.006  17.590  0.00  0.00    +0.000 OA
ATOM     27  H   UNL     1       1.293   4.288  16.972  0.00  0.00    +0.000 HD
ENDBRANCH   1  26
BRANCH  18  28
ATOM     28  O   UNL     1       0.411  16.893  19.031  0.00  0.00    +0.000 OA
ATOM     29  C   UNL     1      -0.819  17.246  18.405  0.00  0.00    +0.000 C 
ENDBRANCH  18  28
TORSDOF 3
ENDMDL
MODEL 8
REMARK VINA RESULT:      -7.0      1.889      2.978
REMARK  Name = 
REMARK  5 active torsions:
REMARK  status: ('A' for Active; 'I' for Inactive)
REMARK    1  A    between atoms: C_1  and  C_2
REMARK    2  A    between atoms: C_2  and  C_3
REMARK    3  A    between atoms: C_3  and  O_4
REMARK    4  A    between atoms: C_21  and  O_22
REMARK    5  A    between atoms: O_22  and  C_23
REMARK                            x       y       z     vdW  Elec       q    Type
REMARK                         _______ _______ _______ _____ _____    ______ ____
ROOT
ATOM      1  C   UNL     1       4.132   4.750  17.269  0.00  0.00    +0.000 C 
ATOM      2  C   UNL     1       5.146   3.882  18.074  0.00  0.00    +0.000 C 
ATOM      3  O   UNL     1       6.377   4.055  18.111  0.00  0.00    +0.000 OA
ATOM      4  O   UNL     1       4.532   3.114  18.998  0.00  0.00    +0.000 OA
ATOM      5  C   UNL     1       4.455   4.006  20.090  0.00  0.00    +0.000 C 
ATOM      6  C   UNL     1       3.728   5.267  19.678  0.00  0.00    +0.000 A 
ATOM      7  C   UNL     1       3.763   5.870  18.441  0.00  0.00    +0.000 A 
ATOM      8  C   UNL     1       3.055   7.273  18.445  0.00  0.00    +0.000 A 
ATOM      9  C   UNL     1       2.207   7.667  19.472  0.00  0.00    +0.000 A 
ATOM     10  N   UNL     1       1.875   6.634  20.350  0.00  0.00    +0.000 N 
ATOM     11  C   UNL     1       2.541   5.478  20.524  0.00  0.00    +0.000 A 
ATOM     12  O   UNL     1       2.212   4.659  21.384  0.00  0.00    +0.000 OA
ATOM     13  C   UNL     1       0.710   6.855  21.147  0.00  0.00    +0.000 C 
ATOM     14  C   UNL     1       0.472   8.293  20.977  0.00  0.00    +0.000 A 
ATOM     15  C   UNL     1      -0.417   9.002  21.767  0.00  0.00    +0.000 A 
ATOM     16  C   UNL     1      -0.378  10.377  21.733  0.00  0.00    +0.000 A 
ATOM     17  C   UNL     1      -1.306  11.074  22.560  0.00  0.00    +0.000 A 
ATOM     18  C   UNL     1      -1.281  12.456  22.647  0.00  0.00    +0.000 A 
ATOM     19  C   UNL     1      -0.275  13.102  21.943  0.00  0.00    +0.000 A 
ATOM     20  C   UNL     1       0.636  12.382  21.104  0.00  0.00    +0.000 A 
ATOM     21  C   UNL     1       0.610  10.983  20.910  0.00  0.00    +0.000 A 
ATOM     22  N   UNL     1       1.463  10.223  20.053  0.00  0.00    +0.000 NA
ATOM     23  C   UNL     1       1.353   8.867  20.051  0.00  0.00    +0.000 A 
ENDROOT
BRANCH   1  25
ATOM     24  C   UNL     1       5.587   5.460  14.953  0.00  0.00    +0.000 C 
ATOM     25  C   UNL     1       4.742   4.460  15.791  0.00  0.00    +0.000 C 
ENDBRANCH   1  25
BRANCH   1  26
ATOM     26  O   UNL     1       2.782   4.232  17.110  0.00  0.00    +0.000 OA
ATOM     27  H   UNL     1       2.358   4.602  16.319  0.00  0.00    +0.000 HD
ENDBRANCH   1  26
BRANCH  18  28
ATOM     28  O   UNL     1      -2.133  13.239  23.379  0.00  0.00    +0.000 OA
ATOM     29  C   UNL     1      -3.357  12.674  23.838  0.00  0.00    +0.000 C 
ENDBRANCH  18  28
TORSDOF 3
ENDMDL
MODEL 9
REMARK VINA RESULT:      -6.9      3.559     11.510
REMARK  Name = 
REMARK  5 active torsions:
REMARK  status: ('A' for Active; 'I' for Inactive)
REMARK    1  A    between atoms: C_1  and  C_2
REMARK    2  A    between atoms: C_2  and  C_3
REMARK    3  A    between atoms: C_3  and  O_4
REMARK    4  A    between atoms: C_21  and  O_22
REMARK    5  A    between atoms: O_22  and  C_23
REMARK                            x       y       z     vdW  Elec       q    Type
REMARK                         _______ _______ _______ _____ _____    ______ ____
ROOT
ATOM      1  C   UNL     1      -3.178  15.917  22.551  0.00  0.00    +0.000 C 
ATOM      2  C   UNL     1      -4.698  15.731  22.843  0.00  0.00    +0.000 C 
ATOM      3  O   UNL     1      -5.625  16.030  22.070  0.00  0.00    +0.000 OA
ATOM      4  O   UNL     1      -4.914  14.908  23.890  0.00  0.00    +0.000 OA
ATOM      5  C   UNL     1      -4.900  13.647  23.255  0.00  0.00    +0.000 C 
ATOM      6  C   UNL     1      -3.596  13.455  22.513  0.00  0.00    +0.000 A 
ATOM      7  C   UNL     1      -2.861  14.430  21.876  0.00  0.00    +0.000 A 
ATOM      8  C   UNL     1      -1.677  13.827  21.037  0.00  0.00    +0.000 A 
ATOM      9  C   UNL     1      -1.237  12.522  21.217  0.00  0.00    +0.000 A 
ATOM     10  N   UNL     1      -1.779  11.900  22.343  0.00  0.00    +0.000 N 
ATOM     11  C   UNL     1      -2.891  12.261  23.007  0.00  0.00    +0.000 A 
ATOM     12  O   UNL     1      -3.333  11.597  23.947  0.00  0.00    +0.000 OA
ATOM     13  C   UNL     1      -1.066  10.753  22.813  0.00  0.00    +0.000 C 
ATOM     14  C   UNL     1      -0.174  10.445  21.690  0.00  0.00    +0.000 A 
ATOM     15  C   UNL     1       0.532   9.258  21.601  0.00  0.00    +0.000 A 
ATOM     16  C   UNL     1       1.120   8.928  20.402  0.00  0.00    +0.000 A 
ATOM     17  C   UNL     1       1.838   7.698  20.346  0.00  0.00    +0.000 A 
ATOM     18  C   UNL     1       2.390   7.252  19.158  0.00  0.00    +0.000 A 
ATOM     19  C   UNL     1       2.150   8.028  18.033  0.00  0.00    +0.000 A 
ATOM     20  C   UNL     1       1.440   9.269  18.116  0.00  0.00    +0.000 A 
ATOM     21  C   UNL     1       0.924   9.818  19.310  0.00  0.00    +0.000 A 
ATOM     22  N   UNL     1       0.250  11.069  19.456  0.00  0.00    +0.000 NA
ATOM     23  C   UNL     1      -0.257  11.405  20.673  0.00  0.00    +0.000 A 
ENDROOT
BRANCH   1  25
ATOM     24  C   UNL     1      -3.050  18.286  21.015  0.00  0.00    +0.000 C 
ATOM     25  C   UNL     1      -3.200  17.531  22.366  0.00  0.00    +0.000 C 
ENDBRANCH   1  25
BRANCH   1  26
ATOM     26  O   UNL     1      -2.257  15.785  23.670  0.00  0.00    +0.000 OA
ATOM     27  H   UNL     1      -2.378  14.934  24.121  0.00  0.00    +0.000 HD
ENDBRANCH   1  26
BRANCH  18  28
ATOM     28  O   UNL     1       3.125   6.108  18.982  0.00  0.00    +0.000 OA
ATOM     29  C   UNL     1       4.241   6.141  18.098  0.00  0.00    +0.000 C 
ENDBRANCH  18  28
TORSDOF 3
ENDMDL
