MODEL 1
REMARK VINA RESULT:      -9.3      0.000      0.000
REMARK  Name = 
REMARK  2 active torsions:
REMARK  status: ('A' for Active; 'I' for Inactive)
REMARK    1  A    between atoms: C_2  and  C_3
REMARK    2  A    between atoms: C_21  and  C_22
REMARK                            x       y       z     vdW  Elec       q    Type
REMARK                         _______ _______ _______ _____ _____    ______ ____
ROOT
ATOM      1  O   UNL     1       2.778   5.334  20.302  0.00  0.00    +0.000 OA
ATOM      2  C   UNL     1       3.110   6.122  19.418  0.00  0.00    +0.000 C 
ATOM      3  N   UNL     1       4.188   5.880  18.567  0.00  0.00    +0.000 N 
ATOM      4  C   UNL     1       4.960   4.657  18.768  0.00  0.00    +0.000 C 
ATOM      5  C   UNL     1       6.444   4.873  18.449  0.00  0.00    +0.000 C 
ATOM      6  C   UNL     1       6.686   5.538  17.071  0.00  0.00    +0.000 C 
ATOM      7  C   UNL     1       5.808   6.803  16.993  0.00  0.00    +0.000 C 
ATOM      8  C   UNL     1       4.343   6.464  17.234  0.00  0.00    +0.000 C 
ENDROOT
BRANCH   2   9
ATOM      9  C   UNL     1       2.376   7.362  19.241  0.00  0.00    +0.000 A 
ATOM     10  C   UNL     1       2.205   8.166  18.095  0.00  0.00    +0.000 A 
ATOM     11  N   UNL     1       1.418   9.216  18.307  0.00  0.00    +0.000 NA
ATOM     12  N   UNL     1       1.166   9.175  19.649  0.00  0.00    +0.000 N 
ATOM     13  C   UNL     1       0.434  10.209  20.261  0.00  0.00    +0.000 A 
ATOM     14  N   UNL     1       0.026  10.166  21.499  0.00  0.00    +0.000 NA
ATOM     15  C   UNL     1      -0.617  11.345  21.888  0.00  0.00    +0.000 A 
ATOM     16  C   UNL     1      -1.461  11.498  23.005  0.00  0.00    +0.000 A 
ATOM     17  C   UNL     1      -1.927  12.799  23.097  0.00  0.00    +0.000 A 
ATOM     18  S   UNL     1      -1.277  13.816  21.864  0.00  0.00    +0.000 S 
ATOM     19  C   UNL     1      -0.496  12.503  21.160  0.00  0.00    +0.000 A 
ATOM     20  C   UNL     1       0.185  12.507  19.903  0.00  0.00    +0.000 A 
ATOM     21  O   UNL     1       0.712  13.474  19.368  0.00  0.00    +0.000 OA
ATOM     22  N   UNL     1       0.233  11.246  19.368  0.00  0.00    +0.000 N 
ATOM     23  C   UNL     1       1.727   8.068  20.235  0.00  0.00    +0.000 A 
ATOM     24  H   UNL     1      -0.670  11.071  18.941  0.00  0.00    +0.000 HD
ENDBRANCH   2   9
BRANCH   6  25
ATOM     25  C   UNL     1       6.459   4.610  15.890  0.00  0.00    +0.000 A 
ATOM     26  C   UNL     1       5.676   3.468  15.866  0.00  0.00    +0.000 A 
ATOM     27  N   UNL     1       5.626   2.993  14.588  0.00  0.00    +0.000 N 
ATOM     28  C   UNL     1       6.362   3.797  13.755  0.00  0.00    +0.000 A 
ATOM     29  C   UNL     1       6.520   3.740  12.365  0.00  0.00    +0.000 A 
ATOM     30  C   UNL     1       7.358   4.684  11.769  0.00  0.00    +0.000 A 
ATOM     31  C   UNL     1       8.051   5.609  12.538  0.00  0.00    +0.000 A 
ATOM     32  C   UNL     1       7.883   5.651  13.928  0.00  0.00    +0.000 A 
ATOM     33  C   UNL     1       6.982   4.759  14.553  0.00  0.00    +0.000 A 
ATOM     34  H   UNL     1       5.103   2.183  14.287  0.00  0.00    +0.000 HD
ENDBRANCH   6  25
TORSDOF 2
ENDMDL
MODEL 2
REMARK VINA RESULT:      -9.0      4.664     11.018
REMARK  Name = 
REMARK  2 active torsions:
REMARK  status: ('A' for Active; 'I' for Inactive)
REMARK    1  A    between atoms: C_2  and  C_3
REMARK    2  A    between atoms: C_21  and  C_22
REMARK                            x       y       z     vdW  Elec       q    Type
REMARK                         _______ _______ _______ _____ _____    ______ ____
ROOT
ATOM      1  O   UNL     1       2.094  12.406  18.577  0.00  0.00    +0.000 OA
ATOM      2  C   UNL     1       1.492  11.476  19.109  0.00  0.00    +0.000 C 
ATOM      3  N   UNL     1       0.530  11.674  20.099  0.00  0.00    +0.000 N 
ATOM      4  C   UNL     1       0.265  13.043  20.532  0.00  0.00    +0.000 C 
ATOM      5  C   UNL     1      -0.077  13.101  22.025  0.00  0.00    +0.000 C 
ATOM      6  C   UNL     1      -1.177  12.095  22.444  0.00  0.00    +0.000 C 
ATOM      7  C   UNL     1      -0.774  10.703  21.918  0.00  0.00    +0.000 C 
ATOM      8  C   UNL     1      -0.547  10.736  20.413  0.00  0.00    +0.000 C 
ENDROOT
BRANCH   2   9
ATOM      9  C   UNL     1       1.783  10.108  18.716  0.00  0.00    +0.000 A 
ATOM     10  C   UNL     1       2.105   9.569  17.454  0.00  0.00    +0.000 A 
ATOM     11  N   UNL     1       2.355   8.264  17.492  0.00  0.00    +0.000 NA
ATOM     12  N   UNL     1       2.069   7.909  18.780  0.00  0.00    +0.000 N 
ATOM     13  C   UNL     1       2.123   6.559  19.168  0.00  0.00    +0.000 A 
ATOM     14  N   UNL     1       2.013   6.161  20.406  0.00  0.00    +0.000 NA
ATOM     15  C   UNL     1       2.028   4.767  20.519  0.00  0.00    +0.000 A 
ATOM     16  C   UNL     1       2.275   4.036  21.696  0.00  0.00    +0.000 A 
ATOM     17  C   UNL     1       2.211   2.674  21.453  0.00  0.00    +0.000 A 
ATOM     18  S   UNL     1       1.789   2.319  19.819  0.00  0.00    +0.000 S 
ATOM     19  C   UNL     1       1.820   3.956  19.431  0.00  0.00    +0.000 A 
ATOM     20  C   UNL     1       1.715   4.509  18.117  0.00  0.00    +0.000 A 
ATOM     21  O   UNL     1       1.146   4.000  17.160  0.00  0.00    +0.000 OA
ATOM     22  N   UNL     1       2.296   5.749  18.060  0.00  0.00    +0.000 N 
ATOM     23  C   UNL     1       1.727   9.000  19.539  0.00  0.00    +0.000 A 
ATOM     24  H   UNL     1       3.297   5.604  17.979  0.00  0.00    +0.000 HD
ENDBRANCH   2   9
BRANCH   6  25
ATOM     25  C   UNL     1      -2.575  12.491  22.002  0.00  0.00    +0.000 A 
ATOM     26  C   UNL     1      -2.993  12.771  20.711  0.00  0.00    +0.000 A 
ATOM     27  N   UNL     1      -4.345  12.954  20.715  0.00  0.00    +0.000 N 
ATOM     28  C   UNL     1      -4.840  12.802  21.985  0.00  0.00    +0.000 A 
ATOM     29  C   UNL     1      -6.165  12.817  22.436  0.00  0.00    +0.000 A 
ATOM     30  C   UNL     1      -6.386  12.657  23.805  0.00  0.00    +0.000 A 
ATOM     31  C   UNL     1      -5.322  12.544  24.690  0.00  0.00    +0.000 A 
ATOM     32  C   UNL     1      -4.002  12.533  24.222  0.00  0.00    +0.000 A 
ATOM     33  C   UNL     1      -3.749  12.615  22.833  0.00  0.00    +0.000 A 
ATOM     34  H   UNL     1      -4.909  13.147  19.900  0.00  0.00    +0.000 HD
ENDBRANCH   6  25
TORSDOF 2
ENDMDL
MODEL 3
REMARK VINA RESULT:      -8.5      6.822     10.733
REMARK  Name = 
REMARK  2 active torsions:
REMARK  status: ('A' for Active; 'I' for Inactive)
REMARK    1  A    between atoms: C_2  and  C_3
REMARK    2  A    between atoms: C_21  and  C_22
REMARK                            x       y       z     vdW  Elec       q    Type
REMARK                         _______ _______ _______ _____ _____    ______ ____
ROOT
ATOM      1  O   UNL     1       2.401  17.139  18.045  0.00  0.00    +0.000 OA
ATOM      2  C   UNL     1       2.953  16.186  18.591  0.00  0.00    +0.000 C 
ATOM      3  N   UNL     1       2.248  15.073  19.046  0.00  0.00    +0.000 N 
ATOM      4  C   UNL     1       0.796  15.071  18.892  0.00  0.00    +0.000 C 
ATOM      5  C   UNL     1       0.110  14.349  20.057  0.00  0.00    +0.000 C 
ATOM      6  C   UNL     1       0.703  12.948  20.348  0.00  0.00    +0.000 C 
ATOM      7  C   UNL     1       2.233  13.097  20.478  0.00  0.00    +0.000 C 
ATOM      8  C   UNL     1       2.824  13.741  19.232  0.00  0.00    +0.000 C 
ENDROOT
BRANCH   2   9
ATOM      9  C   UNL     1       4.392  16.200  18.790  0.00  0.00    +0.000 A 
ATOM     10  C   UNL     1       5.230  17.199  19.327  0.00  0.00    +0.000 A 
ATOM     11  N   UNL     1       6.505  16.830  19.394  0.00  0.00    +0.000 NA
ATOM     12  N   UNL     1       6.531  15.614  18.774  0.00  0.00    +0.000 N 
ATOM     13  C   UNL     1       7.755  14.955  18.564  0.00  0.00    +0.000 A 
ATOM     14  N   UNL     1       7.848  13.732  18.119  0.00  0.00    +0.000 NA
ATOM     15  C   UNL     1       9.175  13.334  17.931  0.00  0.00    +0.000 A 
ATOM     16  C   UNL     1       9.630  12.008  17.801  0.00  0.00    +0.000 A 
ATOM     17  C   UNL     1      11.003  11.973  17.624  0.00  0.00    +0.000 A 
ATOM     18  S   UNL     1      11.695  13.552  17.554  0.00  0.00    +0.000 S 
ATOM     19  C   UNL     1      10.199  14.247  17.882  0.00  0.00    +0.000 A 
ATOM     20  C   UNL     1       9.958  15.629  18.158  0.00  0.00    +0.000 A 
ATOM     21  O   UNL     1      10.633  16.573  17.769  0.00  0.00    +0.000 OA
ATOM     22  N   UNL     1       8.810  15.790  18.888  0.00  0.00    +0.000 N 
ATOM     23  C   UNL     1       5.273  15.209  18.404  0.00  0.00    +0.000 A 
ATOM     24  H   UNL     1       9.041  15.581  19.853  0.00  0.00    +0.000 HD
ENDBRANCH   2   9
BRANCH   6  25
ATOM     25  C   UNL     1       0.317  11.891  19.328  0.00  0.00    +0.000 A 
ATOM     26  C   UNL     1       1.153  10.959  18.736  0.00  0.00    +0.000 A 
ATOM     27  N   UNL     1       0.400  10.107  17.980  0.00  0.00    +0.000 N 
ATOM     28  C   UNL     1      -0.925  10.452  18.057  0.00  0.00    +0.000 A 
ATOM     29  C   UNL     1      -2.049   9.812  17.519  0.00  0.00    +0.000 A 
ATOM     30  C   UNL     1      -3.295  10.402  17.735  0.00  0.00    +0.000 A 
ATOM     31  C   UNL     1      -3.406  11.609  18.412  0.00  0.00    +0.000 A 
ATOM     32  C   UNL     1      -2.271  12.237  18.942  0.00  0.00    +0.000 A 
ATOM     33  C   UNL     1      -1.003  11.626  18.807  0.00  0.00    +0.000 A 
ATOM     34  H   UNL     1       0.758   9.319  17.460  0.00  0.00    +0.000 HD
ENDBRANCH   6  25
TORSDOF 2
ENDMDL
MODEL 4
REMARK VINA RESULT:      -8.4      7.003     11.159
REMARK  Name = 
REMARK  2 active torsions:
REMARK  status: ('A' for Active; 'I' for Inactive)
REMARK    1  A    between atoms: C_2  and  C_3
REMARK    2  A    between atoms: C_21  and  C_22
REMARK                            x       y       z     vdW  Elec       q    Type
REMARK                         _______ _______ _______ _____ _____    ______ ____
ROOT
ATOM      1  O   UNL     1       2.945  16.606  17.225  0.00  0.00    +0.000 OA
ATOM      2  C   UNL     1       3.380  15.995  18.199  0.00  0.00    +0.000 C 
ATOM      3  N   UNL     1       2.564  15.220  19.023  0.00  0.00    +0.000 N 
ATOM      4  C   UNL     1       1.136  15.171  18.722  0.00  0.00    +0.000 C 
ATOM      5  C   UNL     1       0.299  15.066  20.002  0.00  0.00    +0.000 C 
ATOM      6  C   UNL     1       0.770  13.941  20.955  0.00  0.00    +0.000 C 
ATOM      7  C   UNL     1       2.287  14.108  21.177  0.00  0.00    +0.000 C 
ATOM      8  C   UNL     1       3.033  14.108  19.850  0.00  0.00    +0.000 C 
ENDROOT
BRANCH   2   9
ATOM      9  C   UNL     1       4.792  16.076  18.532  0.00  0.00    +0.000 A 
ATOM     10  C   UNL     1       5.516  17.082  19.202  0.00  0.00    +0.000 A 
ATOM     11  N   UNL     1       6.800  16.781  19.366  0.00  0.00    +0.000 NA
ATOM     12  N   UNL     1       6.955  15.610  18.680  0.00  0.00    +0.000 N 
ATOM     13  C   UNL     1       8.231  15.034  18.547  0.00  0.00    +0.000 A 
ATOM     14  N   UNL     1       8.437  13.849  18.041  0.00  0.00    +0.000 NA
ATOM     15  C   UNL     1       9.798  13.538  17.954  0.00  0.00    +0.000 A 
ATOM     16  C   UNL     1      10.342  12.250  17.789  0.00  0.00    +0.000 A 
ATOM     17  C   UNL     1      11.725  12.302  17.739  0.00  0.00    +0.000 A 
ATOM     18  S   UNL     1      12.323  13.918  17.827  0.00  0.00    +0.000 S 
ATOM     19  C   UNL     1      10.765  14.507  18.055  0.00  0.00    +0.000 A 
ATOM     20  C   UNL     1      10.417  15.853  18.388  0.00  0.00    +0.000 A 
ATOM     21  O   UNL     1      11.065  16.856  18.120  0.00  0.00    +0.000 OA
ATOM     22  N   UNL     1       9.200  15.903  19.016  0.00  0.00    +0.000 N 
ATOM     23  C   UNL     1       5.762  15.161  18.171  0.00  0.00    +0.000 A 
ATOM     24  H   UNL     1       9.356  15.646  19.985  0.00  0.00    +0.000 HD
ENDBRANCH   2   9
BRANCH   6  25
ATOM     25  C   UNL     1       0.412  12.542  20.482  0.00  0.00    +0.000 A 
ATOM     26  C   UNL     1       0.485  12.057  19.187  0.00  0.00    +0.000 A 
ATOM     27  N   UNL     1       0.205  10.721  19.199  0.00  0.00    +0.000 N 
ATOM     28  C   UNL     1      -0.051  10.303  20.480  0.00  0.00    +0.000 A 
ATOM     29  C   UNL     1      -0.297   9.014  20.968  0.00  0.00    +0.000 A 
ATOM     30  C   UNL     1      -0.554   8.876  22.333  0.00  0.00    +0.000 A 
ATOM     31  C   UNL     1      -0.619   9.988  23.162  0.00  0.00    +0.000 A 
ATOM     32  C   UNL     1      -0.374  11.271  22.657  0.00  0.00    +0.000 A 
ATOM     33  C   UNL     1      -0.033  11.436  21.294  0.00  0.00    +0.000 A 
ATOM     34  H   UNL     1       0.213  10.117  18.390  0.00  0.00    +0.000 HD
ENDBRANCH   6  25
TORSDOF 2
ENDMDL
MODEL 5
REMARK VINA RESULT:      -8.3      3.521     10.059
REMARK  Name = 
REMARK  2 active torsions:
REMARK  status: ('A' for Active; 'I' for Inactive)
REMARK    1  A    between atoms: C_2  and  C_3
REMARK    2  A    between atoms: C_21  and  C_22
REMARK                            x       y       z     vdW  Elec       q    Type
REMARK                         _______ _______ _______ _____ _____    ______ ____
ROOT
ATOM      1  O   UNL     1       0.598   9.224  22.688  0.00  0.00    +0.000 OA
ATOM      2  C   UNL     1       0.796   9.182  21.476  0.00  0.00    +0.000 C 
ATOM      3  N   UNL     1       0.519  10.260  20.635  0.00  0.00    +0.000 N 
ATOM      4  C   UNL     1      -0.061  11.462  21.228  0.00  0.00    +0.000 C 
ATOM      5  C   UNL     1      -1.037  12.147  20.266  0.00  0.00    +0.000 C 
ATOM      6  C   UNL     1      -0.447  12.377  18.852  0.00  0.00    +0.000 C 
ATOM      7  C   UNL     1       0.133  11.037  18.354  0.00  0.00    +0.000 C 
ATOM      8  C   UNL     1       1.157  10.490  19.339  0.00  0.00    +0.000 C 
ENDROOT
BRANCH   2   9
ATOM      9  C   UNL     1       1.330   7.975  20.871  0.00  0.00    +0.000 A 
ATOM     10  C   UNL     1       1.178   6.623  21.243  0.00  0.00    +0.000 A 
ATOM     11  N   UNL     1       1.782   5.782  20.411  0.00  0.00    +0.000 NA
ATOM     12  N   UNL     1       2.453   6.598  19.543  0.00  0.00    +0.000 N 
ATOM     13  C   UNL     1       3.301   6.045  18.568  0.00  0.00    +0.000 A 
ATOM     14  N   UNL     1       3.852   6.744  17.614  0.00  0.00    +0.000 NA
ATOM     15  C   UNL     1       4.706   5.975  16.817  0.00  0.00    +0.000 A 
ATOM     16  C   UNL     1       5.173   6.319  15.534  0.00  0.00    +0.000 A 
ATOM     17  C   UNL     1       6.004   5.332  15.031  0.00  0.00    +0.000 A 
ATOM     18  S   UNL     1       6.249   4.046  16.154  0.00  0.00    +0.000 S 
ATOM     19  C   UNL     1       5.161   4.747  17.229  0.00  0.00    +0.000 A 
ATOM     20  C   UNL     1       4.668   4.152  18.432  0.00  0.00    +0.000 A 
ATOM     21  O   UNL     1       5.243   3.314  19.113  0.00  0.00    +0.000 OA
ATOM     22  N   UNL     1       3.456   4.687  18.782  0.00  0.00    +0.000 N 
ATOM     23  C   UNL     1       2.194   7.922  19.795  0.00  0.00    +0.000 A 
ATOM     24  H   UNL     1       2.755   4.235  18.205  0.00  0.00    +0.000 HD
ENDBRANCH   2   9
BRANCH   6  25
ATOM     25  C   UNL     1       0.571  13.501  18.785  0.00  0.00    +0.000 A 
ATOM     26  C   UNL     1       1.929  13.382  18.539  0.00  0.00    +0.000 A 
ATOM     27  N   UNL     1       2.470  14.631  18.429  0.00  0.00    +0.000 N 
ATOM     28  C   UNL     1       1.498  15.583  18.597  0.00  0.00    +0.000 A 
ATOM     29  C   UNL     1       1.581  16.976  18.483  0.00  0.00    +0.000 A 
ATOM     30  C   UNL     1       0.425  17.718  18.734  0.00  0.00    +0.000 A 
ATOM     31  C   UNL     1      -0.749  17.094  19.136  0.00  0.00    +0.000 A 
ATOM     32  C   UNL     1      -0.814  15.699  19.248  0.00  0.00    +0.000 A 
ATOM     33  C   UNL     1       0.317  14.915  18.925  0.00  0.00    +0.000 A 
ATOM     34  H   UNL     1       3.438  14.830  18.227  0.00  0.00    +0.000 HD
ENDBRANCH   6  25
TORSDOF 2
ENDMDL
MODEL 6
REMARK VINA RESULT:      -8.3      7.502     10.509
REMARK  Name = 
REMARK  2 active torsions:
REMARK  status: ('A' for Active; 'I' for Inactive)
REMARK    1  A    between atoms: C_2  and  C_3
REMARK    2  A    between atoms: C_21  and  C_22
REMARK                            x       y       z     vdW  Elec       q    Type
REMARK                         _______ _______ _______ _____ _____    ______ ____
ROOT
ATOM      1  O   UNL     1       1.142  16.980  20.310  0.00  0.00    +0.000 OA
ATOM      2  C   UNL     1       1.430  15.839  19.957  0.00  0.00    +0.000 C 
ATOM      3  N   UNL     1       0.595  14.748  20.196  0.00  0.00    +0.000 N 
ATOM      4  C   UNL     1      -0.650  14.984  20.923  0.00  0.00    +0.000 C 
ATOM      5  C   UNL     1      -1.013  13.790  21.813  0.00  0.00    +0.000 C 
ATOM      6  C   UNL     1      -0.980  12.433  21.066  0.00  0.00    +0.000 C 
ATOM      7  C   UNL     1       0.377  12.322  20.342  0.00  0.00    +0.000 C 
ATOM      8  C   UNL     1       0.598  13.511  19.416  0.00  0.00    +0.000 C 
ENDROOT
BRANCH   2   9
ATOM      9  C   UNL     1       2.688  15.588  19.274  0.00  0.00    +0.000 A 
ATOM     10  C   UNL     1       2.965  15.431  17.901  0.00  0.00    +0.000 A 
ATOM     11  N   UNL     1       4.258  15.259  17.646  0.00  0.00    +0.000 NA
ATOM     12  N   UNL     1       4.831  15.175  18.883  0.00  0.00    +0.000 N 
ATOM     13  C   UNL     1       6.202  14.886  19.007  0.00  0.00    +0.000 A 
ATOM     14  N   UNL     1       6.849  14.939  20.139  0.00  0.00    +0.000 NA
ATOM     15  C   UNL     1       8.182  14.540  20.007  0.00  0.00    +0.000 A 
ATOM     16  C   UNL     1       9.219  14.802  20.924  0.00  0.00    +0.000 A 
ATOM     17  C   UNL     1      10.414  14.260  20.485  0.00  0.00    +0.000 A 
ATOM     18  S   UNL     1      10.236  13.391  19.005  0.00  0.00    +0.000 S 
ATOM     19  C   UNL     1       8.620  13.848  18.905  0.00  0.00    +0.000 A 
ATOM     20  C   UNL     1       7.754  13.629  17.789  0.00  0.00    +0.000 A 
ATOM     21  O   UNL     1       7.848  12.729  16.965  0.00  0.00    +0.000 OA
ATOM     22  N   UNL     1       6.732  14.542  17.777  0.00  0.00    +0.000 N 
ATOM     23  C   UNL     1       3.910  15.373  19.880  0.00  0.00    +0.000 A 
ATOM     24  H   UNL     1       7.107  15.400  17.388  0.00  0.00    +0.000 HD
ENDBRANCH   2   9
BRANCH   6  25
ATOM     25  C   UNL     1      -2.151  12.221  20.123  0.00  0.00    +0.000 A 
ATOM     26  C   UNL     1      -3.382  12.853  20.167  0.00  0.00    +0.000 A 
ATOM     27  N   UNL     1      -4.108  12.485  19.071  0.00  0.00    +0.000 N 
ATOM     28  C   UNL     1      -3.384  11.618  18.294  0.00  0.00    +0.000 A 
ATOM     29  C   UNL     1      -3.695  11.059  17.049  0.00  0.00    +0.000 A 
ATOM     30  C   UNL     1      -2.773  10.175  16.485  0.00  0.00    +0.000 A 
ATOM     31  C   UNL     1      -1.614   9.825  17.166  0.00  0.00    +0.000 A 
ATOM     32  C   UNL     1      -1.319  10.392  18.412  0.00  0.00    +0.000 A 
ATOM     33  C   UNL     1      -2.195  11.348  18.974  0.00  0.00    +0.000 A 
ATOM     34  H   UNL     1      -5.033  12.820  18.846  0.00  0.00    +0.000 HD
ENDBRANCH   6  25
TORSDOF 2
ENDMDL
MODEL 7
REMARK VINA RESULT:      -8.3      3.333     11.175
REMARK  Name = 
REMARK  2 active torsions:
REMARK  status: ('A' for Active; 'I' for Inactive)
REMARK    1  A    between atoms: C_2  and  C_3
REMARK    2  A    between atoms: C_21  and  C_22
REMARK                            x       y       z     vdW  Elec       q    Type
REMARK                         _______ _______ _______ _____ _____    ______ ____
ROOT
ATOM      1  O   UNL     1      -0.534   9.946  17.569  0.00  0.00    +0.000 OA
ATOM      2  C   UNL     1       0.301  10.030  18.467  0.00  0.00    +0.000 C 
ATOM      3  N   UNL     1       0.410  11.154  19.286  0.00  0.00    +0.000 N 
ATOM      4  C   UNL     1      -0.487  12.278  19.030  0.00  0.00    +0.000 C 
ATOM      5  C   UNL     1       0.198  13.618  19.321  0.00  0.00    +0.000 C 
ATOM      6  C   UNL     1       0.878  13.672  20.711  0.00  0.00    +0.000 C 
ATOM      7  C   UNL     1       1.783  12.431  20.847  0.00  0.00    +0.000 C 
ATOM      8  C   UNL     1       0.986  11.151  20.631  0.00  0.00    +0.000 C 
ENDROOT
BRANCH   2   9
ATOM      9  C   UNL     1       1.227   8.935  18.698  0.00  0.00    +0.000 A 
ATOM     10  C   UNL     1       1.476   8.180  19.863  0.00  0.00    +0.000 A 
ATOM     11  N   UNL     1       2.373   7.217  19.679  0.00  0.00    +0.000 NA
ATOM     12  N   UNL     1       2.819   7.419  18.403  0.00  0.00    +0.000 N 
ATOM     13  C   UNL     1       3.867   6.635  17.890  0.00  0.00    +0.000 A 
ATOM     14  N   UNL     1       4.243   6.664  16.641  0.00  0.00    +0.000 NA
ATOM     15  C   UNL     1       5.351   5.846  16.400  0.00  0.00    +0.000 A 
ATOM     16  C   UNL     1       5.782   5.387  15.141  0.00  0.00    +0.000 A 
ATOM     17  C   UNL     1       6.914   4.599  15.264  0.00  0.00    +0.000 A 
ATOM     18  S   UNL     1       7.462   4.491  16.896  0.00  0.00    +0.000 S 
ATOM     19  C   UNL     1       6.134   5.376  17.425  0.00  0.00    +0.000 A 
ATOM     20  C   UNL     1       5.762   5.598  18.788  0.00  0.00    +0.000 A 
ATOM     21  O   UNL     1       6.517   5.612  19.751  0.00  0.00    +0.000 OA
ATOM     22  N   UNL     1       4.421   5.860  18.893  0.00  0.00    +0.000 N 
ATOM     23  C   UNL     1       2.143   8.444  17.789  0.00  0.00    +0.000 A 
ATOM     24  H   UNL     1       3.940   4.968  18.849  0.00  0.00    +0.000 HD
ENDBRANCH   2   9
BRANCH   6  25
ATOM     25  C   UNL     1      -0.096  13.800  21.869  0.00  0.00    +0.000 A 
ATOM     26  C   UNL     1      -0.967  12.830  22.336  0.00  0.00    +0.000 A 
ATOM     27  N   UNL     1      -1.573  13.289  23.470  0.00  0.00    +0.000 N 
ATOM     28  C   UNL     1      -1.123  14.549  23.770  0.00  0.00    +0.000 A 
ATOM     29  C   UNL     1      -1.404  15.360  24.876  0.00  0.00    +0.000 A 
ATOM     30  C   UNL     1      -0.818  16.627  24.917  0.00  0.00    +0.000 A 
ATOM     31  C   UNL     1      -0.030  17.082  23.868  0.00  0.00    +0.000 A 
ATOM     32  C   UNL     1       0.239  16.258  22.768  0.00  0.00    +0.000 A 
ATOM     33  C   UNL     1      -0.276  14.942  22.733  0.00  0.00    +0.000 A 
ATOM     34  H   UNL     1      -2.237  12.770  24.026  0.00  0.00    +0.000 HD
ENDBRANCH   6  25
TORSDOF 2
ENDMDL
MODEL 8
REMARK VINA RESULT:      -8.2      7.656      9.967
REMARK  Name = 
REMARK  2 active torsions:
REMARK  status: ('A' for Active; 'I' for Inactive)
REMARK    1  A    between atoms: C_2  and  C_3
REMARK    2  A    between atoms: C_21  and  C_22
REMARK                            x       y       z     vdW  Elec       q    Type
REMARK                         _______ _______ _______ _____ _____    ______ ____
ROOT
ATOM      1  O   UNL     1       0.917  14.554  22.688  0.00  0.00    +0.000 OA
ATOM      2  C   UNL     1       1.241  14.124  21.583  0.00  0.00    +0.000 C 
ATOM      3  N   UNL     1       0.523  13.122  20.930  0.00  0.00    +0.000 N 
ATOM      4  C   UNL     1      -0.635  12.551  21.614  0.00  0.00    +0.000 C 
ATOM      5  C   UNL     1      -0.796  11.061  21.292  0.00  0.00    +0.000 C 
ATOM      6  C   UNL     1      -0.758  10.752  19.775  0.00  0.00    +0.000 C 
ATOM      7  C   UNL     1       0.502  11.417  19.185  0.00  0.00    +0.000 C 
ATOM      8  C   UNL     1       0.518  12.910  19.483  0.00  0.00    +0.000 C 
ENDROOT
BRANCH   2   9
ATOM      9  C   UNL     1       2.418  14.654  20.917  0.00  0.00    +0.000 A 
ATOM     10  C   UNL     1       2.529  15.473  19.775  0.00  0.00    +0.000 A 
ATOM     11  N   UNL     1       3.785  15.797  19.485  0.00  0.00    +0.000 NA
ATOM     12  N   UNL     1       4.527  15.075  20.376  0.00  0.00    +0.000 N 
ATOM     13  C   UNL     1       5.931  15.088  20.299  0.00  0.00    +0.000 A 
ATOM     14  N   UNL     1       6.707  14.551  21.200  0.00  0.00    +0.000 NA
ATOM     15  C   UNL     1       8.059  14.637  20.857  0.00  0.00    +0.000 A 
ATOM     16  C   UNL     1       9.147  14.478  21.736  0.00  0.00    +0.000 A 
ATOM     17  C   UNL     1      10.349  14.624  21.064  0.00  0.00    +0.000 A 
ATOM     18  S   UNL     1      10.127  14.884  19.373  0.00  0.00    +0.000 S 
ATOM     19  C   UNL     1       8.458  14.925  19.575  0.00  0.00    +0.000 A 
ATOM     20  C   UNL     1       7.500  15.281  18.575  0.00  0.00    +0.000 A 
ATOM     21  O   UNL     1       7.639  15.162  17.365  0.00  0.00    +0.000 OA
ATOM     22  N   UNL     1       6.341  15.736  19.148  0.00  0.00    +0.000 N 
ATOM     23  C   UNL     1       3.730  14.381  21.251  0.00  0.00    +0.000 A 
ATOM     24  H   UNL     1       6.502  16.701  19.416  0.00  0.00    +0.000 HD
ENDBRANCH   2   9
BRANCH   6  25
ATOM     25  C   UNL     1      -2.020  11.156  19.032  0.00  0.00    +0.000 A 
ATOM     26  C   UNL     1      -2.974  12.070  19.447  0.00  0.00    +0.000 A 
ATOM     27  N   UNL     1      -3.880  12.250  18.441  0.00  0.00    +0.000 N 
ATOM     28  C   UNL     1      -3.547  11.474  17.360  0.00  0.00    +0.000 A 
ATOM     29  C   UNL     1      -4.137  11.406  16.092  0.00  0.00    +0.000 A 
ATOM     30  C   UNL     1      -3.602  10.498  15.176  0.00  0.00    +0.000 A 
ATOM     31  C   UNL     1      -2.557   9.656  15.534  0.00  0.00    +0.000 A 
ATOM     32  C   UNL     1      -1.980   9.736  16.808  0.00  0.00    +0.000 A 
ATOM     33  C   UNL     1      -2.448  10.698  17.732  0.00  0.00    +0.000 A 
ATOM     34  H   UNL     1      -4.666  12.882  18.472  0.00  0.00    +0.000 HD
ENDBRANCH   6  25
TORSDOF 2
ENDMDL
MODEL 9
REMARK VINA RESULT:      -8.2      4.809      9.462
REMARK  Name = 
REMARK  2 active torsions:
REMARK  status: ('A' for Active; 'I' for Inactive)
REMARK    1  A    between atoms: C_2  and  C_3
REMARK    2  A    between atoms: C_21  and  C_22
REMARK                            x       y       z     vdW  Elec       q    Type
REMARK                         _______ _______ _______ _____ _____    ______ ____
ROOT
ATOM      1  O   UNL     1      -0.306  11.331  20.825  0.00  0.00    +0.000 OA
ATOM      2  C   UNL     1       0.608  11.341  20.003  0.00  0.00    +0.000 C 
ATOM      3  N   UNL     1       1.192  12.522  19.547  0.00  0.00    +0.000 N 
ATOM      4  C   UNL     1       0.662  13.787  20.048  0.00  0.00    +0.000 C 
ATOM      5  C   UNL     1       0.723  14.883  18.978  0.00  0.00    +0.000 C 
ATOM      6  C   UNL     1       2.114  15.016  18.312  0.00  0.00    +0.000 C 
ATOM      7  C   UNL     1       2.552  13.614  17.840  0.00  0.00    +0.000 C 
ATOM      8  C   UNL     1       2.544  12.624  18.997  0.00  0.00    +0.000 C 
ENDROOT
BRANCH   2   9
ATOM      9  C   UNL     1       1.111  10.089  19.464  0.00  0.00    +0.000 A 
ATOM     10  C   UNL     1       1.554   9.766  18.166  0.00  0.00    +0.000 A 
ATOM     11  N   UNL     1       1.991   8.516  18.059  0.00  0.00    +0.000 NA
ATOM     12  N   UNL     1       1.713   7.962  19.277  0.00  0.00    +0.000 N 
ATOM     13  C   UNL     1       1.949   6.595  19.501  0.00  0.00    +0.000 A 
ATOM     14  N   UNL     1       1.854   6.030  20.673  0.00  0.00    +0.000 NA
ATOM     15  C   UNL     1       2.068   4.650  20.617  0.00  0.00    +0.000 A 
ATOM     16  C   UNL     1       2.376   3.815  21.709  0.00  0.00    +0.000 A 
ATOM     17  C   UNL     1       2.521   2.501  21.300  0.00  0.00    +0.000 A 
ATOM     18  S   UNL     1       2.216   2.302  19.613  0.00  0.00    +0.000 S 
ATOM     19  C   UNL     1       2.022   3.963  19.429  0.00  0.00    +0.000 A 
ATOM     20  C   UNL     1       1.885   4.659  18.188  0.00  0.00    +0.000 A 
ATOM     21  O   UNL     1       1.433   4.201  17.147  0.00  0.00    +0.000 OA
ATOM     22  N   UNL     1       2.280   5.965  18.314  0.00  0.00    +0.000 N 
ATOM     23  C   UNL     1       1.187   8.888  20.143  0.00  0.00    +0.000 A 
ATOM     24  H   UNL     1       3.294   5.974  18.271  0.00  0.00    +0.000 HD
ENDBRANCH   2   9
BRANCH   6  25
ATOM     25  C   UNL     1       3.161  15.674  19.194  0.00  0.00    +0.000 A 
ATOM     26  C   UNL     1       2.936  16.406  20.348  0.00  0.00    +0.000 A 
ATOM     27  N   UNL     1       4.138  16.713  20.918  0.00  0.00    +0.000 N 
ATOM     28  C   UNL     1       5.163  16.197  20.166  0.00  0.00    +0.000 A 
ATOM     29  C   UNL     1       6.541  16.194  20.415  0.00  0.00    +0.000 A 
ATOM     30  C   UNL     1       7.371  15.612  19.455  0.00  0.00    +0.000 A 
ATOM     31  C   UNL     1       6.849  15.105  18.273  0.00  0.00    +0.000 A 
ATOM     32  C   UNL     1       5.468  15.119  18.039  0.00  0.00    +0.000 A 
ATOM     33  C   UNL     1       4.593  15.631  19.026  0.00  0.00    +0.000 A 
ATOM     34  H   UNL     1       4.260  17.221  21.782  0.00  0.00    +0.000 HD
ENDBRANCH   6  25
TORSDOF 2
ENDMDL
