MODEL 1
REMARK VINA RESULT:      -6.4      0.000      0.000
REMARK  Name = 
REMARK  2 active torsions:
REMARK  status: ('A' for Active; 'I' for Inactive)
REMARK    1  A    between atoms: C_2  and  C_3
REMARK    2  A    between atoms: C_4  and  N_5
REMARK                            x       y       z     vdW  Elec       q    Type
REMARK                         _______ _______ _______ _____ _____    ______ ____
ROOT
ATOM      1  C   UNL     1       8.011  15.276  18.315  0.00  0.00    +0.000 C 
ATOM      2  C   UNL     1       7.392  14.179  17.840  0.00  0.00    +0.000 C 
ATOM      3  O   UNL     1       8.097  12.925  17.825  0.00  0.00    +0.000 OA
ATOM      4  C   UNL     1       9.505  12.941  17.859  0.00  0.00    +0.000 C 
ATOM      5  C   UNL     1      10.146  14.090  18.059  0.00  0.00    +0.000 C 
ATOM      6  C   UNL     1      11.605  14.052  17.919  0.00  0.00    +0.000 C 
ATOM      7  O   UNL     1      12.187  14.600  16.998  0.00  0.00    +0.000 OA
ATOM      8  C   UNL     1      12.251  13.162  18.913  0.00  0.00    +0.000 C 
ATOM      9  C   UNL     1      11.700  11.759  18.651  0.00  0.00    +0.000 C 
ATOM     10  C   UNL     1      10.298  11.653  17.931  0.00  0.00    +0.000 C 
ATOM     11  C   UNL     1       9.440  15.183  18.751  0.00  0.00    +0.000 C 
ATOM     12  C   UNL     1      10.272  16.477  18.489  0.00  0.00    +0.000 C 
ATOM     13  O   UNL     1      10.398  17.069  17.428  0.00  0.00    +0.000 OA
ATOM     14  N   UNL     1      10.861  16.806  19.707  0.00  0.00    +0.000 N 
ATOM     15  C   UNL     1      11.846  17.820  19.884  0.00  0.00    +0.000 C 
ATOM     16  C   UNL     1      12.328  18.041  21.317  0.00  0.00    +0.000 C 
ATOM     17  C   UNL     1      11.654  17.271  22.466  0.00  0.00    +0.000 C 
ATOM     18  C   UNL     1      10.726  16.172  22.062  0.00  0.00    +0.000 A 
ATOM     19  C   UNL     1      10.095  15.305  22.973  0.00  0.00    +0.000 A 
ATOM     20  C   UNL     1       9.196  14.317  22.521  0.00  0.00    +0.000 A 
ATOM     21  C   UNL     1       8.915  14.170  21.158  0.00  0.00    +0.000 A 
ATOM     22  C   UNL     1       9.530  15.045  20.272  0.00  0.00    +0.000 A 
ATOM     23  C   UNL     1      10.404  16.014  20.740  0.00  0.00    +0.000 A 
ENDROOT
BRANCH   2  24
ATOM     24  N   UNL     1       6.101  14.126  17.382  0.00  0.00    +0.000 N 
ATOM     25  H   UNL     1       5.808  13.206  17.058  0.00  0.00    +0.000 HD
ATOM     26  H   UNL     1       5.445  14.514  18.057  0.00  0.00    +0.000 HD
ENDBRANCH   2  24
BRANCH   1  28
ATOM     27  N   UNL     1       7.133  17.886  18.701  0.00  0.00    +0.000 NA
ATOM     28  C   UNL     1       7.531  16.702  18.526  0.00  0.00    +0.000 C 
ENDBRANCH   1  28
TORSDOF 2
ENDMDL
MODEL 2
REMARK VINA RESULT:      -6.2      2.277      4.060
REMARK  Name = 
REMARK  2 active torsions:
REMARK  status: ('A' for Active; 'I' for Inactive)
REMARK    1  A    between atoms: C_2  and  C_3
REMARK    2  A    between atoms: C_4  and  N_5
REMARK                            x       y       z     vdW  Elec       q    Type
REMARK                         _______ _______ _______ _____ _____    ______ ____
ROOT
ATOM      1  C   UNL     1      10.409  15.578  18.482  0.00  0.00    +0.000 C 
ATOM      2  C   UNL     1      11.038  15.117  17.385  0.00  0.00    +0.000 C 
ATOM      3  O   UNL     1      10.921  13.726  17.039  0.00  0.00    +0.000 OA
ATOM      4  C   UNL     1      10.565  12.807  18.046  0.00  0.00    +0.000 C 
ATOM      5  C   UNL     1      10.197  13.253  19.245  0.00  0.00    +0.000 C 
ATOM      6  C   UNL     1      10.000  12.238  20.283  0.00  0.00    +0.000 C 
ATOM      7  O   UNL     1      10.750  12.126  21.238  0.00  0.00    +0.000 OA
ATOM      8  C   UNL     1       8.906  11.292  19.957  0.00  0.00    +0.000 C 
ATOM      9  C   UNL     1       9.320  10.591  18.662  0.00  0.00    +0.000 C 
ATOM     10  C   UNL     1      10.345  11.344  17.724  0.00  0.00    +0.000 C 
ATOM     11  C   UNL     1       9.659  14.621  19.355  0.00  0.00    +0.000 C 
ATOM     12  C   UNL     1       9.693  14.984  20.873  0.00  0.00    +0.000 C 
ATOM     13  O   UNL     1      10.682  15.188  21.559  0.00  0.00    +0.000 OA
ATOM     14  N   UNL     1       8.364  15.003  21.291  0.00  0.00    +0.000 N 
ATOM     15  C   UNL     1       7.942  15.118  22.647  0.00  0.00    +0.000 C 
ATOM     16  C   UNL     1       6.433  15.158  22.876  0.00  0.00    +0.000 C 
ATOM     17  C   UNL     1       5.487  15.199  21.663  0.00  0.00    +0.000 C 
ATOM     18  C   UNL     1       6.119  14.951  20.332  0.00  0.00    +0.000 A 
ATOM     19  C   UNL     1       5.398  14.859  19.127  0.00  0.00    +0.000 A 
ATOM     20  C   UNL     1       6.067  14.668  17.901  0.00  0.00    +0.000 A 
ATOM     21  C   UNL     1       7.461  14.558  17.852  0.00  0.00    +0.000 A 
ATOM     22  C   UNL     1       8.161  14.670  19.046  0.00  0.00    +0.000 A 
ATOM     23  C   UNL     1       7.483  14.867  20.239  0.00  0.00    +0.000 A 
ENDROOT
BRANCH   2  24
ATOM     24  N   UNL     1      11.781  15.873  16.514  0.00  0.00    +0.000 N 
ATOM     25  H   UNL     1      11.447  16.828  16.398  0.00  0.00    +0.000 HD
ATOM     26  H   UNL     1      12.773  15.847  16.744  0.00  0.00    +0.000 HD
ENDBRANCH   2  24
BRANCH   1  28
ATOM     27  N   UNL     1      10.172  18.132  19.555  0.00  0.00    +0.000 NA
ATOM     28  C   UNL     1      10.279  16.974  19.068  0.00  0.00    +0.000 C 
ENDBRANCH   1  28
TORSDOF 2
ENDMDL
MODEL 3
REMARK VINA RESULT:      -6.1      9.421     12.197
REMARK  Name = 
REMARK  2 active torsions:
REMARK  status: ('A' for Active; 'I' for Inactive)
REMARK    1  A    between atoms: C_2  and  C_3
REMARK    2  A    between atoms: C_4  and  N_5
REMARK                            x       y       z     vdW  Elec       q    Type
REMARK                         _______ _______ _______ _____ _____    ______ ____
ROOT
ATOM      1  C   UNL     1       0.576  12.968  18.978  0.00  0.00    +0.000 C 
ATOM      2  C   UNL     1       1.615  12.271  18.483  0.00  0.00    +0.000 C 
ATOM      3  O   UNL     1       1.751  10.879  18.818  0.00  0.00    +0.000 OA
ATOM      4  C   UNL     1       1.108  10.395  19.974  0.00  0.00    +0.000 C 
ATOM      5  C   UNL     1       0.270  11.186  20.641  0.00  0.00    +0.000 C 
ATOM      6  C   UNL     1      -0.233  10.671  21.917  0.00  0.00    +0.000 C 
ATOM      7  O   UNL     1       0.095  11.150  22.990  0.00  0.00    +0.000 OA
ATOM      8  C   UNL     1      -1.036   9.435  21.757  0.00  0.00    +0.000 C 
ATOM      9  C   UNL     1      -0.099   8.393  21.146  0.00  0.00    +0.000 C 
ATOM     10  C   UNL     1       1.145   8.924  20.330  0.00  0.00    +0.000 C 
ATOM     11  C   UNL     1      -0.375  12.299  19.921  0.00  0.00    +0.000 C 
ATOM     12  C   UNL     1      -0.960  13.247  21.014  0.00  0.00    +0.000 C 
ATOM     13  O   UNL     1      -0.333  13.952  21.789  0.00  0.00    +0.000 OA
ATOM     14  N   UNL     1      -2.344  13.105  20.943  0.00  0.00    +0.000 N 
ATOM     15  C   UNL     1      -3.266  13.657  21.879  0.00  0.00    +0.000 C 
ATOM     16  C   UNL     1      -4.744  13.411  21.585  0.00  0.00    +0.000 C 
ATOM     17  C   UNL     1      -5.147  12.716  20.273  0.00  0.00    +0.000 C 
ATOM     18  C   UNL     1      -4.032  12.111  19.484  0.00  0.00    +0.000 A 
ATOM     19  C   UNL     1      -4.221  11.358  18.310  0.00  0.00    +0.000 A 
ATOM     20  C   UNL     1      -3.116  10.855  17.593  0.00  0.00    +0.000 A 
ATOM     21  C   UNL     1      -1.808  11.084  18.033  0.00  0.00    +0.000 A 
ATOM     22  C   UNL     1      -1.635  11.844  19.182  0.00  0.00    +0.000 A 
ATOM     23  C   UNL     1      -2.735  12.337  19.866  0.00  0.00    +0.000 A 
ENDROOT
BRANCH   2  24
ATOM     24  N   UNL     1       2.575  12.763  17.635  0.00  0.00    +0.000 N 
ATOM     25  H   UNL     1       2.484  13.757  17.431  0.00  0.00    +0.000 HD
ATOM     26  H   UNL     1       3.513  12.528  17.952  0.00  0.00    +0.000 HD
ENDBRANCH   2  24
BRANCH   1  28
ATOM     27  N   UNL     1      -0.260  15.592  18.587  0.00  0.00    +0.000 NA
ATOM     28  C   UNL     1       0.119  14.402  18.764  0.00  0.00    +0.000 C 
ENDBRANCH   1  28
TORSDOF 2
ENDMDL
MODEL 4
REMARK VINA RESULT:      -6.1      9.750     12.240
REMARK  Name = 
REMARK  2 active torsions:
REMARK  status: ('A' for Active; 'I' for Inactive)
REMARK    1  A    between atoms: C_2  and  C_3
REMARK    2  A    between atoms: C_4  and  N_5
REMARK                            x       y       z     vdW  Elec       q    Type
REMARK                         _______ _______ _______ _____ _____    ______ ____
ROOT
ATOM      1  C   UNL     1      -1.219  12.937  22.551  0.00  0.00    +0.000 C 
ATOM      2  C   UNL     1      -1.704  14.040  23.151  0.00  0.00    +0.000 C 
ATOM      3  O   UNL     1      -1.807  15.262  22.399  0.00  0.00    +0.000 OA
ATOM      4  C   UNL     1      -1.007  15.418  21.249  0.00  0.00    +0.000 C 
ATOM      5  C   UNL     1      -0.296  14.388  20.797  0.00  0.00    +0.000 C 
ATOM      6  C   UNL     1       0.631  14.672  19.699  0.00  0.00    +0.000 C 
ATOM      7  O   UNL     1       1.842  14.649  19.844  0.00  0.00    +0.000 OA
ATOM      8  C   UNL     1      -0.061  15.132  18.471  0.00  0.00    +0.000 C 
ATOM      9  C   UNL     1      -0.781  16.427  18.847  0.00  0.00    +0.000 C 
ATOM     10  C   UNL     1      -1.135  16.645  20.371  0.00  0.00    +0.000 C 
ATOM     11  C   UNL     1      -0.735  13.022  21.137  0.00  0.00    +0.000 C 
ATOM     12  C   UNL     1       0.470  12.083  20.819  0.00  0.00    +0.000 C 
ATOM     13  O   UNL     1       1.533  12.021  21.417  0.00  0.00    +0.000 OA
ATOM     14  N   UNL     1       0.096  11.348  19.697  0.00  0.00    +0.000 N 
ATOM     15  C   UNL     1       0.966  10.493  18.959  0.00  0.00    +0.000 C 
ATOM     16  C   UNL     1       0.335   9.750  17.784  0.00  0.00    +0.000 C 
ATOM     17  C   UNL     1      -1.181   9.863  17.547  0.00  0.00    +0.000 C 
ATOM     18  C   UNL     1      -1.895  10.898  18.355  0.00  0.00    +0.000 A 
ATOM     19  C   UNL     1      -3.259  11.205  18.206  0.00  0.00    +0.000 A 
ATOM     20  C   UNL     1      -3.876  12.164  19.035  0.00  0.00    +0.000 A 
ATOM     21  C   UNL     1      -3.146  12.838  20.020  0.00  0.00    +0.000 A 
ATOM     22  C   UNL     1      -1.805  12.511  20.170  0.00  0.00    +0.000 A 
ATOM     23  C   UNL     1      -1.221  11.559  19.349  0.00  0.00    +0.000 A 
ENDROOT
BRANCH   2  24
ATOM     24  N   UNL     1      -2.153  14.113  24.445  0.00  0.00    +0.000 N 
ATOM     25  H   UNL     1      -2.941  14.746  24.580  0.00  0.00    +0.000 HD
ATOM     26  H   UNL     1      -2.342  13.190  24.831  0.00  0.00    +0.000 HD
ENDBRANCH   2  24
BRANCH   1  28
ATOM     27  N   UNL     1      -0.911  10.320  23.439  0.00  0.00    +0.000 NA
ATOM     28  C   UNL     1      -1.051  11.507  23.036  0.00  0.00    +0.000 C 
ENDBRANCH   1  28
TORSDOF 2
ENDMDL
MODEL 5
REMARK VINA RESULT:      -6.0      2.237      4.195
REMARK  Name = 
REMARK  2 active torsions:
REMARK  status: ('A' for Active; 'I' for Inactive)
REMARK    1  A    between atoms: C_2  and  C_3
REMARK    2  A    between atoms: C_4  and  N_5
REMARK                            x       y       z     vdW  Elec       q    Type
REMARK                         _______ _______ _______ _____ _____    ______ ____
ROOT
ATOM      1  C   UNL     1      10.728  14.972  17.976  0.00  0.00    +0.000 C 
ATOM      2  C   UNL     1      11.392  13.832  17.710  0.00  0.00    +0.000 C 
ATOM      3  O   UNL     1      11.119  12.660  18.496  0.00  0.00    +0.000 OA
ATOM      4  C   UNL     1      10.543  12.820  19.772  0.00  0.00    +0.000 C 
ATOM      5  C   UNL     1      10.124  14.022  20.159  0.00  0.00    +0.000 C 
ATOM      6  C   UNL     1       9.688  14.140  21.553  0.00  0.00    +0.000 C 
ATOM      7  O   UNL     1      10.319  14.774  22.383  0.00  0.00    +0.000 OA
ATOM      8  C   UNL     1       8.512  13.291  21.858  0.00  0.00    +0.000 C 
ATOM      9  C   UNL     1       8.951  11.848  21.605  0.00  0.00    +0.000 C 
ATOM     10  C   UNL     1      10.156  11.619  20.609  0.00  0.00    +0.000 C 
ATOM     11  C   UNL     1       9.771  15.014  19.127  0.00  0.00    +0.000 C 
ATOM     12  C   UNL     1       9.706  16.395  19.851  0.00  0.00    +0.000 C 
ATOM     13  O   UNL     1      10.642  17.030  20.312  0.00  0.00    +0.000 OA
ATOM     14  N   UNL     1       8.358  16.745  19.885  0.00  0.00    +0.000 N 
ATOM     15  C   UNL     1       7.825  17.850  20.611  0.00  0.00    +0.000 C 
ATOM     16  C   UNL     1       6.321  18.074  20.476  0.00  0.00    +0.000 C 
ATOM     17  C   UNL     1       5.513  17.203  19.498  0.00  0.00    +0.000 C 
ATOM     18  C   UNL     1       6.232  16.027  18.922  0.00  0.00    +0.000 A 
ATOM     19  C   UNL     1       5.627  15.071  18.086  0.00  0.00    +0.000 A 
ATOM     20  C   UNL     1       6.380  14.010  17.543  0.00  0.00    +0.000 A 
ATOM     21  C   UNL     1       7.744  13.877  17.827  0.00  0.00    +0.000 A 
ATOM     22  C   UNL     1       8.332  14.838  18.638  0.00  0.00    +0.000 A 
ATOM     23  C   UNL     1       7.574  15.878  19.154  0.00  0.00    +0.000 A 
ENDROOT
BRANCH   2  24
ATOM     24  N   UNL     1      12.314  13.661  16.709  0.00  0.00    +0.000 N 
ATOM     25  H   UNL     1      12.294  14.385  15.992  0.00  0.00    +0.000 HD
ATOM     26  H   UNL     1      13.252  13.524  17.079  0.00  0.00    +0.000 HD
ENDBRANCH   2  24
BRANCH   1  28
ATOM     27  N   UNL     1      10.741  17.464  16.741  0.00  0.00    +0.000 NA
ATOM     28  C   UNL     1      10.735  16.334  17.301  0.00  0.00    +0.000 C 
ENDBRANCH   1  28
TORSDOF 2
ENDMDL
MODEL 6
REMARK VINA RESULT:      -6.0      8.790     11.574
REMARK  Name = 
REMARK  2 active torsions:
REMARK  status: ('A' for Active; 'I' for Inactive)
REMARK    1  A    between atoms: C_2  and  C_3
REMARK    2  A    between atoms: C_4  and  N_5
REMARK                            x       y       z     vdW  Elec       q    Type
REMARK                         _______ _______ _______ _____ _____    ______ ____
ROOT
ATOM      1  C   UNL     1       0.337  13.425  21.015  0.00  0.00    +0.000 C 
ATOM      2  C   UNL     1      -0.634  14.170  21.575  0.00  0.00    +0.000 C 
ATOM      3  O   UNL     1      -2.009  13.843  21.313  0.00  0.00    +0.000 OA
ATOM      4  C   UNL     1      -2.319  13.089  20.164  0.00  0.00    +0.000 C 
ATOM      5  C   UNL     1      -1.336  12.567  19.435  0.00  0.00    +0.000 C 
ATOM      6  C   UNL     1      -1.728  11.936  18.172  0.00  0.00    +0.000 C 
ATOM      7  O   UNL     1      -1.445  12.416  17.086  0.00  0.00    +0.000 OA
ATOM      8  C   UNL     1      -2.620  10.768  18.369  0.00  0.00    +0.000 C 
ATOM      9  C   UNL     1      -3.876  11.302  19.058  0.00  0.00    +0.000 C 
ATOM     10  C   UNL     1      -3.738  12.643  19.883  0.00  0.00    +0.000 C 
ATOM     11  C   UNL     1      -0.034  12.317  20.079  0.00  0.00    +0.000 C 
ATOM     12  C   UNL     1       0.991  12.090  18.924  0.00  0.00    +0.000 C 
ATOM     13  O   UNL     1       1.406  12.923  18.133  0.00  0.00    +0.000 OA
ATOM     14  N   UNL     1       1.316  10.736  18.962  0.00  0.00    +0.000 N 
ATOM     15  C   UNL     1       2.086  10.058  17.973  0.00  0.00    +0.000 C 
ATOM     16  C   UNL     1       2.358   8.578  18.235  0.00  0.00    +0.000 C 
ATOM     17  C   UNL     1       1.909   7.954  19.569  0.00  0.00    +0.000 C 
ATOM     18  C   UNL     1       1.016   8.798  20.419  0.00  0.00    +0.000 A 
ATOM     19  C   UNL     1       0.435   8.359  21.622  0.00  0.00    +0.000 A 
ATOM     20  C   UNL     1      -0.363   9.227  22.395  0.00  0.00    +0.000 A 
ATOM     21  C   UNL     1      -0.602  10.543  21.983  0.00  0.00    +0.000 A 
ATOM     22  C   UNL     1      -0.007  10.969  20.803  0.00  0.00    +0.000 A 
ATOM     23  C   UNL     1       0.781  10.101  20.063  0.00  0.00    +0.000 A 
ENDROOT
BRANCH   2  24
ATOM     24  N   UNL     1      -0.438  15.229  22.424  0.00  0.00    +0.000 N 
ATOM     25  H   UNL     1       0.092  15.000  23.264  0.00  0.00    +0.000 HD
ATOM     26  H   UNL     1      -0.046  16.033  21.940  0.00  0.00    +0.000 HD
ENDBRANCH   2  24
BRANCH   1  28
ATOM     27  N   UNL     1       3.107  13.498  21.252  0.00  0.00    +0.000 NA
ATOM     28  C   UNL     1       1.851  13.465  21.144  0.00  0.00    +0.000 C 
ENDBRANCH   1  28
TORSDOF 2
ENDMDL
MODEL 7
REMARK VINA RESULT:      -5.9     10.680     12.756
REMARK  Name = 
REMARK  2 active torsions:
REMARK  status: ('A' for Active; 'I' for Inactive)
REMARK    1  A    between atoms: C_2  and  C_3
REMARK    2  A    between atoms: C_4  and  N_5
REMARK                            x       y       z     vdW  Elec       q    Type
REMARK                         _______ _______ _______ _____ _____    ______ ____
ROOT
ATOM      1  C   UNL     1       2.708   6.063  19.164  0.00  0.00    +0.000 C 
ATOM      2  C   UNL     1       2.254   6.078  20.431  0.00  0.00    +0.000 C 
ATOM      3  O   UNL     1       2.518   4.953  21.286  0.00  0.00    +0.000 OA
ATOM      4  C   UNL     1       2.819   3.709  20.695  0.00  0.00    +0.000 C 
ATOM      5  C   UNL     1       3.004   3.634  19.379  0.00  0.00    +0.000 C 
ATOM      6  C   UNL     1       3.151   2.288  18.821  0.00  0.00    +0.000 C 
ATOM      7  O   UNL     1       2.302   1.779  18.108  0.00  0.00    +0.000 OA
ATOM      8  C   UNL     1       4.346   1.580  19.341  0.00  0.00    +0.000 C 
ATOM      9  C   UNL     1       4.147   1.462  20.853  0.00  0.00    +0.000 C 
ATOM     10  C   UNL     1       3.189   2.512  21.544  0.00  0.00    +0.000 C 
ATOM     11  C   UNL     1       3.418   4.848  18.652  0.00  0.00    +0.000 C 
ATOM     12  C   UNL     1       3.172   4.557  17.139  0.00  0.00    +0.000 C 
ATOM     13  O   UNL     1       2.094   4.442  16.577  0.00  0.00    +0.000 OA
ATOM     14  N   UNL     1       4.435   4.431  16.564  0.00  0.00    +0.000 N 
ATOM     15  C   UNL     1       4.679   3.990  15.232  0.00  0.00    +0.000 C 
ATOM     16  C   UNL     1       6.142   3.965  14.794  0.00  0.00    +0.000 C 
ATOM     17  C   UNL     1       7.222   4.518  15.740  0.00  0.00    +0.000 C 
ATOM     18  C   UNL     1       6.777   4.824  17.133  0.00  0.00    +0.000 A 
ATOM     19  C   UNL     1       7.644   5.247  18.157  0.00  0.00    +0.000 A 
ATOM     20  C   UNL     1       7.145   5.560  19.438  0.00  0.00    +0.000 A 
ATOM     21  C   UNL     1       5.780   5.451  19.725  0.00  0.00    +0.000 A 
ATOM     22  C   UNL     1       4.934   5.050  18.700  0.00  0.00    +0.000 A 
ATOM     23  C   UNL     1       5.445   4.756  17.445  0.00  0.00    +0.000 A 
ENDROOT
BRANCH   2  24
ATOM     24  N   UNL     1       1.566   7.108  21.020  0.00  0.00    +0.000 N 
ATOM     25  H   UNL     1       2.054   8.002  21.002  0.00  0.00    +0.000 HD
ATOM     26  H   UNL     1       0.620   7.189  20.653  0.00  0.00    +0.000 HD
ENDBRANCH   2  24
BRANCH   1  28
ATOM     27  N   UNL     1       2.616   7.959  17.132  0.00  0.00    +0.000 NA
ATOM     28  C   UNL     1       2.658   7.099  18.054  0.00  0.00    +0.000 C 
ENDBRANCH   1  28
TORSDOF 2
ENDMDL
MODEL 8
REMARK VINA RESULT:      -5.9     13.872     16.345
REMARK  Name = 
REMARK  2 active torsions:
REMARK  status: ('A' for Active; 'I' for Inactive)
REMARK    1  A    between atoms: C_2  and  C_3
REMARK    2  A    between atoms: C_4  and  N_5
REMARK                            x       y       z     vdW  Elec       q    Type
REMARK                         _______ _______ _______ _____ _____    ______ ____
ROOT
ATOM      1  C   UNL     1      -3.774  13.812  23.517  0.00  0.00    +0.000 C 
ATOM      2  C   UNL     1      -3.852  14.699  24.525  0.00  0.00    +0.000 C 
ATOM      3  O   UNL     1      -4.799  15.778  24.440  0.00  0.00    +0.000 OA
ATOM      4  C   UNL     1      -5.279  16.159  23.171  0.00  0.00    +0.000 C 
ATOM      5  C   UNL     1      -4.973  15.424  22.105  0.00  0.00    +0.000 C 
ATOM      6  C   UNL     1      -5.371  15.970  20.804  0.00  0.00    +0.000 C 
ATOM      7  O   UNL     1      -4.559  16.376  19.990  0.00  0.00    +0.000 OA
ATOM      8  C   UNL     1      -6.841  16.112  20.670  0.00  0.00    +0.000 C 
ATOM      9  C   UNL     1      -7.277  17.090  21.763  0.00  0.00    +0.000 C 
ATOM     10  C   UNL     1      -6.340  17.229  23.028  0.00  0.00    +0.000 C 
ATOM     11  C   UNL     1      -4.624  14.005  22.299  0.00  0.00    +0.000 C 
ATOM     12  C   UNL     1      -3.952  13.533  20.972  0.00  0.00    +0.000 C 
ATOM     13  O   UNL     1      -2.860  13.867  20.540  0.00  0.00    +0.000 OA
ATOM     14  N   UNL     1      -4.864  12.670  20.368  0.00  0.00    +0.000 N 
ATOM     15  C   UNL     1      -4.733  12.145  19.050  0.00  0.00    +0.000 C 
ATOM     16  C   UNL     1      -5.832  11.183  18.602  0.00  0.00    +0.000 C 
ATOM     17  C   UNL     1      -6.913  10.752  19.609  0.00  0.00    +0.000 C 
ATOM     18  C   UNL     1      -6.943  11.504  20.900  0.00  0.00    +0.000 A 
ATOM     19  C   UNL     1      -7.916  11.311  21.896  0.00  0.00    +0.000 A 
ATOM     20  C   UNL     1      -7.856  12.026  23.110  0.00  0.00    +0.000 A 
ATOM     21  C   UNL     1      -6.832  12.950  23.349  0.00  0.00    +0.000 A 
ATOM     22  C   UNL     1      -5.868  13.117  22.365  0.00  0.00    +0.000 A 
ATOM     23  C   UNL     1      -5.942  12.396  21.183  0.00  0.00    +0.000 A 
ENDROOT
BRANCH   2  24
ATOM     24  N   UNL     1      -3.115  14.661  25.682  0.00  0.00    +0.000 N 
ATOM     25  H   UNL     1      -2.332  15.312  25.701  0.00  0.00    +0.000 HD
ATOM     26  H   UNL     1      -3.704  14.755  26.507  0.00  0.00    +0.000 HD
ENDBRANCH   2  24
BRANCH   1  28
ATOM     27  N   UNL     1      -2.261  11.502  23.185  0.00  0.00    +0.000 NA
ATOM     28  C   UNL     1      -2.947  12.549  23.335  0.00  0.00    +0.000 C 
ENDBRANCH   1  28
TORSDOF 2
ENDMDL
MODEL 9
REMARK VINA RESULT:      -5.9      1.858      2.685
REMARK  Name = 
REMARK  2 active torsions:
REMARK  status: ('A' for Active; 'I' for Inactive)
REMARK    1  A    between atoms: C_2  and  C_3
REMARK    2  A    between atoms: C_4  and  N_5
REMARK                            x       y       z     vdW  Elec       q    Type
REMARK                         _______ _______ _______ _____ _____    ______ ____
ROOT
ATOM      1  C   UNL     1       7.689  15.173  20.647  0.00  0.00    +0.000 C 
ATOM      2  C   UNL     1       7.346  14.152  21.454  0.00  0.00    +0.000 C 
ATOM      3  O   UNL     1       8.250  13.044  21.608  0.00  0.00    +0.000 OA
ATOM      4  C   UNL     1       9.217  12.816  20.608  0.00  0.00    +0.000 C 
ATOM      5  C   UNL     1       9.377  13.707  19.632  0.00  0.00    +0.000 C 
ATOM      6  C   UNL     1      10.284  13.324  18.547  0.00  0.00    +0.000 C 
ATOM      7  O   UNL     1       9.886  13.080  17.419  0.00  0.00    +0.000 OA
ATOM      8  C   UNL     1      11.677  13.120  19.010  0.00  0.00    +0.000 C 
ATOM      9  C   UNL     1      11.626  11.979  20.027  0.00  0.00    +0.000 C 
ATOM     10  C   UNL     1      10.249  11.718  20.757  0.00  0.00    +0.000 C 
ATOM     11  C   UNL     1       8.969  15.102  19.874  0.00  0.00    +0.000 C 
ATOM     12  C   UNL     1       8.906  15.790  18.475  0.00  0.00    +0.000 C 
ATOM     13  O   UNL     1       8.096  15.579  17.586  0.00  0.00    +0.000 OA
ATOM     14  N   UNL     1       9.981  16.675  18.436  0.00  0.00    +0.000 N 
ATOM     15  C   UNL     1      10.407  17.384  17.276  0.00  0.00    +0.000 C 
ATOM     16  C   UNL     1      11.585  18.336  17.468  0.00  0.00    +0.000 C 
ATOM     17  C   UNL     1      12.147  18.564  18.883  0.00  0.00    +0.000 C 
ATOM     18  C   UNL     1      11.643  17.640  19.944  0.00  0.00    +0.000 A 
ATOM     19  C   UNL     1      12.112  17.640  21.270  0.00  0.00    +0.000 A 
ATOM     20  C   UNL     1      11.558  16.768  22.229  0.00  0.00    +0.000 A 
ATOM     21  C   UNL     1      10.534  15.878  21.885  0.00  0.00    +0.000 A 
ATOM     22  C   UNL     1      10.067  15.903  20.578  0.00  0.00    +0.000 A 
ATOM     23  C   UNL     1      10.621  16.774  19.654  0.00  0.00    +0.000 A 
ENDROOT
BRANCH   2  24
ATOM     24  N   UNL     1       6.195  14.071  22.196  0.00  0.00    +0.000 N 
ATOM     25  H   UNL     1       5.434  14.656  21.853  0.00  0.00    +0.000 HD
ATOM     26  H   UNL     1       5.898  13.107  22.327  0.00  0.00    +0.000 HD
ENDBRANCH   2  24
BRANCH   1  28
ATOM     27  N   UNL     1       6.434  17.587  20.069  0.00  0.00    +0.000 NA
ATOM     28  C   UNL     1       7.003  16.492  20.331  0.00  0.00    +0.000 C 
ENDBRANCH   1  28
TORSDOF 2
ENDMDL
