MODEL 1
REMARK VINA RESULT:      -6.6      0.000      0.000
REMARK  Name = 
REMARK  15 active torsions:
REMARK  status: ('A' for Active; 'I' for Inactive)
REMARK    1  A    between atoms: C_1  and  C_2
REMARK    2  A    between atoms: C_2  and  C_3
REMARK    3  A    between atoms: C_3  and  C_4
REMARK    4  A    between atoms: C_4  and  C_5
REMARK    5  A    between atoms: C_5  and  C_6
REMARK    6  A    between atoms: C_6  and  C_7
REMARK    7  A    between atoms: C_7  and  C_8
REMARK    8  A    between atoms: C_8  and  C_9
REMARK    9  A    between atoms: C_9  and  C_10
REMARK   10  A    between atoms: C_10  and  C_11
REMARK   11  A    between atoms: C_11  and  C_12
REMARK   12  A    between atoms: C_12  and  O_13
REMARK   13  A    between atoms: C_18  and  C_19
REMARK   14  A    between atoms: C_19  and  C_20
REMARK   15  A    between atoms: C_20  and  O_21
REMARK                            x       y       z     vdW  Elec       q    Type
REMARK                         _______ _______ _______ _____ _____    ______ ____
ROOT
ATOM      1  C   UNL     1       4.925   4.177  17.918  0.00  0.00    +0.000 C 
ATOM      2  C   UNL     1       3.937   3.468  18.491  0.00  0.00    +0.000 C 
ATOM      3  C   UNL     1       4.106   2.377  19.477  0.00  0.00    +0.000 C 
ATOM      4  O   UNL     1       5.104   2.025  20.077  0.00  0.00    +0.000 OA
ATOM      5  N   UNL     1       2.877   1.759  19.575  0.00  0.00    +0.000 N 
ATOM      6  C   UNL     1       1.769   2.382  18.868  0.00  0.00    +0.000 C 
ATOM      7  C   UNL     1       2.486   3.529  18.171  0.00  0.00    +0.000 C 
ATOM      8  O   UNL     1       1.947   4.362  17.459  0.00  0.00    +0.000 OA
ATOM      9  H   UNL     1       2.792   0.939  20.163  0.00  0.00    +0.000 HD
ENDROOT
BRANCH   1  10
ATOM     10  O   UNL     1       6.241   4.006  18.314  0.00  0.00    +0.000 OA
ATOM     11  H   UNL     1       6.836   4.180  17.566  0.00  0.00    +0.000 HD
ENDBRANCH   1  10
BRANCH   1  12
ATOM     12  C   UNL     1       4.731   5.077  16.723  0.00  0.00    +0.000 C 
BRANCH  12  13
ATOM     13  C   UNL     1       6.030   5.649  16.154  0.00  0.00    +0.000 C 
BRANCH  13  14
ATOM     14  C   UNL     1       6.205   5.306  14.668  0.00  0.00    +0.000 C 
BRANCH  14  15
ATOM     15  C   UNL     1       7.645   4.917  14.328  0.00  0.00    +0.000 C 
BRANCH  15  16
ATOM     16  C   UNL     1       7.901   4.886  12.826  0.00  0.00    +0.000 C 
BRANCH  16  17
ATOM     17  C   UNL     1       6.660   4.371  12.099  0.00  0.00    +0.000 C 
BRANCH  17  18
ATOM     18  C   UNL     1       6.832   2.918  11.673  0.00  0.00    +0.000 C 
BRANCH  18  19
ATOM     19  C   UNL     1       5.476   2.255  11.433  0.00  0.00    +0.000 C 
BRANCH  19  20
ATOM     20  C   UNL     1       4.344   3.254  11.642  0.00  0.00    +0.000 C 
BRANCH  20  22
ATOM     21  C   UNL     1       3.051   4.225   9.722  0.00  0.00    +0.000 C 
ATOM     22  C   UNL     1       3.209   3.030  10.646  0.00  0.00    +0.000 C 
ENDBRANCH  20  22
ENDBRANCH  19  20
ENDBRANCH  18  19
ENDBRANCH  17  18
ENDBRANCH  16  17
ENDBRANCH  15  16
ENDBRANCH  14  15
ENDBRANCH  13  14
ENDBRANCH  12  13
ENDBRANCH   1  12
BRANCH   6  23
ATOM     23  C   UNL     1       0.699   2.823  19.856  0.00  0.00    +0.000 C 
BRANCH  23  24
ATOM     24  C   UNL     1       1.232   3.682  20.995  0.00  0.00    +0.000 C 
BRANCH  24  25
ATOM     25  O   UNL     1       1.714   2.836  22.033  0.00  0.00    +0.000 OA
ATOM     26  H   UNL     1       0.979   2.654  22.643  0.00  0.00    +0.000 HD
ENDBRANCH  24  25
ENDBRANCH  23  24
ENDBRANCH   6  23
TORSDOF 14
ENDMDL
MODEL 2
REMARK VINA RESULT:      -6.5      1.931      2.499
REMARK  Name = 
REMARK  15 active torsions:
REMARK  status: ('A' for Active; 'I' for Inactive)
REMARK    1  A    between atoms: C_1  and  C_2
REMARK    2  A    between atoms: C_2  and  C_3
REMARK    3  A    between atoms: C_3  and  C_4
REMARK    4  A    between atoms: C_4  and  C_5
REMARK    5  A    between atoms: C_5  and  C_6
REMARK    6  A    between atoms: C_6  and  C_7
REMARK    7  A    between atoms: C_7  and  C_8
REMARK    8  A    between atoms: C_8  and  C_9
REMARK    9  A    between atoms: C_9  and  C_10
REMARK   10  A    between atoms: C_10  and  C_11
REMARK   11  A    between atoms: C_11  and  C_12
REMARK   12  A    between atoms: C_12  and  O_13
REMARK   13  A    between atoms: C_18  and  C_19
REMARK   14  A    between atoms: C_19  and  C_20
REMARK   15  A    between atoms: C_20  and  O_21
REMARK                            x       y       z     vdW  Elec       q    Type
REMARK                         _______ _______ _______ _____ _____    ______ ____
ROOT
ATOM      1  C   UNL     1       4.343   5.825  18.045  0.00  0.00    +0.000 C 
ATOM      2  C   UNL     1       3.478   5.486  19.016  0.00  0.00    +0.000 C 
ATOM      3  C   UNL     1       2.506   6.389  19.673  0.00  0.00    +0.000 C 
ATOM      4  O   UNL     1       2.180   7.522  19.373  0.00  0.00    +0.000 OA
ATOM      5  N   UNL     1       2.037   5.707  20.776  0.00  0.00    +0.000 N 
ATOM      6  C   UNL     1       2.455   4.320  20.918  0.00  0.00    +0.000 C 
ATOM      7  C   UNL     1       3.393   4.183  19.729  0.00  0.00    +0.000 C 
ATOM      8  O   UNL     1       3.984   3.160  19.418  0.00  0.00    +0.000 OA
ATOM      9  H   UNL     1       1.396   6.178  21.402  0.00  0.00    +0.000 HD
ENDROOT
BRANCH   1  10
ATOM     10  O   UNL     1       4.310   7.088  17.477  0.00  0.00    +0.000 OA
ATOM     11  H   UNL     1       3.396   7.418  17.461  0.00  0.00    +0.000 HD
ENDBRANCH   1  10
BRANCH   1  12
ATOM     12  C   UNL     1       5.496   4.958  17.605  0.00  0.00    +0.000 C 
BRANCH  12  13
ATOM     13  C   UNL     1       5.147   3.974  16.487  0.00  0.00    +0.000 C 
BRANCH  13  14
ATOM     14  C   UNL     1       5.350   4.591  15.096  0.00  0.00    +0.000 C 
BRANCH  14  15
ATOM     15  C   UNL     1       6.660   4.143  14.447  0.00  0.00    +0.000 C 
BRANCH  15  16
ATOM     16  C   UNL     1       7.026   4.983  13.231  0.00  0.00    +0.000 C 
BRANCH  16  17
ATOM     17  C   UNL     1       6.998   4.115  11.973  0.00  0.00    +0.000 C 
BRANCH  17  18
ATOM     18  C   UNL     1       6.474   2.717  12.279  0.00  0.00    +0.000 C 
BRANCH  18  19
ATOM     19  C   UNL     1       5.304   2.360  11.362  0.00  0.00    +0.000 C 
BRANCH  19  20
ATOM     20  C   UNL     1       4.164   3.358  11.532  0.00  0.00    +0.000 C 
BRANCH  20  22
ATOM     21  C   UNL     1       3.109   4.327   9.471  0.00  0.00    +0.000 C 
ATOM     22  C   UNL     1       3.095   3.173  10.459  0.00  0.00    +0.000 C 
ENDBRANCH  20  22
ENDBRANCH  19  20
ENDBRANCH  18  19
ENDBRANCH  17  18
ENDBRANCH  16  17
ENDBRANCH  15  16
ENDBRANCH  14  15
ENDBRANCH  13  14
ENDBRANCH  12  13
ENDBRANCH   1  12
BRANCH   6  23
ATOM     23  C   UNL     1       1.243   3.401  20.867  0.00  0.00    +0.000 C 
BRANCH  23  24
ATOM     24  C   UNL     1       0.727   3.145  19.458  0.00  0.00    +0.000 C 
BRANCH  24  25
ATOM     25  O   UNL     1       1.244   1.905  18.987  0.00  0.00    +0.000 OA
ATOM     26  H   UNL     1       0.950   1.782  18.069  0.00  0.00    +0.000 HD
ENDBRANCH  24  25
ENDBRANCH  23  24
ENDBRANCH   6  23
TORSDOF 14
ENDMDL
MODEL 3
REMARK VINA RESULT:      -6.5      4.336      7.082
REMARK  Name = 
REMARK  15 active torsions:
REMARK  status: ('A' for Active; 'I' for Inactive)
REMARK    1  A    between atoms: C_1  and  C_2
REMARK    2  A    between atoms: C_2  and  C_3
REMARK    3  A    between atoms: C_3  and  C_4
REMARK    4  A    between atoms: C_4  and  C_5
REMARK    5  A    between atoms: C_5  and  C_6
REMARK    6  A    between atoms: C_6  and  C_7
REMARK    7  A    between atoms: C_7  and  C_8
REMARK    8  A    between atoms: C_8  and  C_9
REMARK    9  A    between atoms: C_9  and  C_10
REMARK   10  A    between atoms: C_10  and  C_11
REMARK   11  A    between atoms: C_11  and  C_12
REMARK   12  A    between atoms: C_12  and  O_13
REMARK   13  A    between atoms: C_18  and  C_19
REMARK   14  A    between atoms: C_19  and  C_20
REMARK   15  A    between atoms: C_20  and  O_21
REMARK                            x       y       z     vdW  Elec       q    Type
REMARK                         _______ _______ _______ _____ _____    ______ ____
ROOT
ATOM      1  C   UNL     1       4.657   5.658  16.946  0.00  0.00    +0.000 C 
ATOM      2  C   UNL     1       3.825   5.636  18.001  0.00  0.00    +0.000 C 
ATOM      3  C   UNL     1       3.040   6.779  18.517  0.00  0.00    +0.000 C 
ATOM      4  O   UNL     1       2.855   7.875  18.022  0.00  0.00    +0.000 OA
ATOM      5  N   UNL     1       2.561   6.388  19.749  0.00  0.00    +0.000 N 
ATOM      6  C   UNL     1       2.790   5.004  20.135  0.00  0.00    +0.000 C 
ATOM      7  C   UNL     1       3.611   4.512  18.953  0.00  0.00    +0.000 C 
ATOM      8  O   UNL     1       4.029   3.373  18.817  0.00  0.00    +0.000 OA
ATOM      9  H   UNL     1       2.039   7.057  20.302  0.00  0.00    +0.000 HD
ENDROOT
BRANCH   1  10
ATOM     10  O   UNL     1       4.761   6.786  16.150  0.00  0.00    +0.000 OA
ATOM     11  H   UNL     1       3.876   7.067  15.861  0.00  0.00    +0.000 HD
ENDBRANCH   1  10
BRANCH   1  12
ATOM     12  C   UNL     1       5.642   4.561  16.627  0.00  0.00    +0.000 C 
BRANCH  12  13
ATOM     13  C   UNL     1       7.106   4.955  16.833  0.00  0.00    +0.000 C 
BRANCH  13  14
ATOM     14  C   UNL     1       7.431   5.201  18.313  0.00  0.00    +0.000 C 
BRANCH  14  15
ATOM     15  C   UNL     1       7.837   6.649  18.586  0.00  0.00    +0.000 C 
BRANCH  15  16
ATOM     16  C   UNL     1       7.673   7.542  17.362  0.00  0.00    +0.000 C 
BRANCH  16  17
ATOM     17  C   UNL     1       7.939   8.998  17.744  0.00  0.00    +0.000 C 
BRANCH  17  18
ATOM     18  C   UNL     1       8.896   9.093  18.925  0.00  0.00    +0.000 C 
BRANCH  18  19
ATOM     19  C   UNL     1       9.533  10.481  19.002  0.00  0.00    +0.000 C 
BRANCH  19  20
ATOM     20  C   UNL     1       9.548  10.987  20.441  0.00  0.00    +0.000 C 
BRANCH  20  22
ATOM     21  C   UNL     1       9.634  13.286  21.444  0.00  0.00    +0.000 C 
ATOM     22  C   UNL     1      10.357  12.274  20.572  0.00  0.00    +0.000 C 
ENDBRANCH  20  22
ENDBRANCH  19  20
ENDBRANCH  18  19
ENDBRANCH  17  18
ENDBRANCH  16  17
ENDBRANCH  15  16
ENDBRANCH  14  15
ENDBRANCH  13  14
ENDBRANCH  12  13
ENDBRANCH   1  12
BRANCH   6  23
ATOM     23  C   UNL     1       1.461   4.284  20.314  0.00  0.00    +0.000 C 
BRANCH  23  24
ATOM     24  C   UNL     1       1.551   3.035  21.179  0.00  0.00    +0.000 C 
BRANCH  24  25
ATOM     25  O   UNL     1       2.466   3.268  22.244  0.00  0.00    +0.000 OA
ATOM     26  H   UNL     1       3.043   2.490  22.326  0.00  0.00    +0.000 HD
ENDBRANCH  24  25
ENDBRANCH  23  24
ENDBRANCH   6  23
TORSDOF 14
ENDMDL
MODEL 4
REMARK VINA RESULT:      -6.4      1.627      2.378
REMARK  Name = 
REMARK  15 active torsions:
REMARK  status: ('A' for Active; 'I' for Inactive)
REMARK    1  A    between atoms: C_1  and  C_2
REMARK    2  A    between atoms: C_2  and  C_3
REMARK    3  A    between atoms: C_3  and  C_4
REMARK    4  A    between atoms: C_4  and  C_5
REMARK    5  A    between atoms: C_5  and  C_6
REMARK    6  A    between atoms: C_6  and  C_7
REMARK    7  A    between atoms: C_7  and  C_8
REMARK    8  A    between atoms: C_8  and  C_9
REMARK    9  A    between atoms: C_9  and  C_10
REMARK   10  A    between atoms: C_10  and  C_11
REMARK   11  A    between atoms: C_11  and  C_12
REMARK   12  A    between atoms: C_12  and  O_13
REMARK   13  A    between atoms: C_18  and  C_19
REMARK   14  A    between atoms: C_19  and  C_20
REMARK   15  A    between atoms: C_20  and  O_21
REMARK                            x       y       z     vdW  Elec       q    Type
REMARK                         _______ _______ _______ _____ _____    ______ ____
ROOT
ATOM      1  C   UNL     1       5.333   4.378  18.856  0.00  0.00    +0.000 C 
ATOM      2  C   UNL     1       4.022   4.090  18.920  0.00  0.00    +0.000 C 
ATOM      3  C   UNL     1       3.350   2.935  18.283  0.00  0.00    +0.000 C 
ATOM      4  O   UNL     1       3.837   1.961  17.742  0.00  0.00    +0.000 OA
ATOM      5  N   UNL     1       1.997   3.186  18.370  0.00  0.00    +0.000 N 
ATOM      6  C   UNL     1       1.592   4.347  19.147  0.00  0.00    +0.000 C 
ATOM      7  C   UNL     1       2.948   4.923  19.524  0.00  0.00    +0.000 C 
ATOM      8  O   UNL     1       3.119   5.918  20.212  0.00  0.00    +0.000 OA
ATOM      9  H   UNL     1       1.353   2.535  17.936  0.00  0.00    +0.000 HD
ENDROOT
BRANCH   1  10
ATOM     10  O   UNL     1       6.220   3.504  18.249  0.00  0.00    +0.000 OA
ATOM     11  H   UNL     1       6.671   3.952  17.513  0.00  0.00    +0.000 HD
ENDBRANCH   1  10
BRANCH   1  12
ATOM     12  C   UNL     1       5.927   5.699  19.276  0.00  0.00    +0.000 C 
BRANCH  12  13
ATOM     13  C   UNL     1       7.199   6.083  18.519  0.00  0.00    +0.000 C 
BRANCH  13  14
ATOM     14  C   UNL     1       6.885   6.787  17.191  0.00  0.00    +0.000 C 
BRANCH  14  15
ATOM     15  C   UNL     1       6.923   5.828  16.002  0.00  0.00    +0.000 C 
BRANCH  15  16
ATOM     16  C   UNL     1       5.562   5.669  15.336  0.00  0.00    +0.000 C 
BRANCH  16  17
ATOM     17  C   UNL     1       5.557   4.416  14.461  0.00  0.00    +0.000 C 
BRANCH  17  18
ATOM     18  C   UNL     1       6.870   4.266  13.703  0.00  0.00    +0.000 C 
BRANCH  18  19
ATOM     19  C   UNL     1       6.617   4.004  12.218  0.00  0.00    +0.000 C 
BRANCH  19  20
ATOM     20  C   UNL     1       5.343   3.189  12.025  0.00  0.00    +0.000 C 
BRANCH  20  22
ATOM     21  C   UNL     1       7.104   1.693  11.044  0.00  0.00    +0.000 C 
ATOM     22  C   UNL     1       5.645   1.807  11.452  0.00  0.00    +0.000 C 
ENDBRANCH  20  22
ENDBRANCH  19  20
ENDBRANCH  18  19
ENDBRANCH  17  18
ENDBRANCH  16  17
ENDBRANCH  15  16
ENDBRANCH  14  15
ENDBRANCH  13  14
ENDBRANCH  12  13
ENDBRANCH   1  12
BRANCH   6  23
ATOM     23  C   UNL     1       0.746   3.912  20.335  0.00  0.00    +0.000 C 
BRANCH  23  24
ATOM     24  C   UNL     1       1.273   2.672  21.042  0.00  0.00    +0.000 C 
BRANCH  24  25
ATOM     25  O   UNL     1       2.061   3.068  22.160  0.00  0.00    +0.000 OA
ATOM     26  H   UNL     1       1.496   3.580  22.763  0.00  0.00    +0.000 HD
ENDBRANCH  24  25
ENDBRANCH  23  24
ENDBRANCH   6  23
TORSDOF 14
ENDMDL
MODEL 5
REMARK VINA RESULT:      -6.2      4.290      6.830
REMARK  Name = 
REMARK  15 active torsions:
REMARK  status: ('A' for Active; 'I' for Inactive)
REMARK    1  A    between atoms: C_1  and  C_2
REMARK    2  A    between atoms: C_2  and  C_3
REMARK    3  A    between atoms: C_3  and  C_4
REMARK    4  A    between atoms: C_4  and  C_5
REMARK    5  A    between atoms: C_5  and  C_6
REMARK    6  A    between atoms: C_6  and  C_7
REMARK    7  A    between atoms: C_7  and  C_8
REMARK    8  A    between atoms: C_8  and  C_9
REMARK    9  A    between atoms: C_9  and  C_10
REMARK   10  A    between atoms: C_10  and  C_11
REMARK   11  A    between atoms: C_11  and  C_12
REMARK   12  A    between atoms: C_12  and  O_13
REMARK   13  A    between atoms: C_18  and  C_19
REMARK   14  A    between atoms: C_19  and  C_20
REMARK   15  A    between atoms: C_20  and  O_21
REMARK                            x       y       z     vdW  Elec       q    Type
REMARK                         _______ _______ _______ _____ _____    ______ ____
ROOT
ATOM      1  C   UNL     1       4.516   4.078  17.223  0.00  0.00    +0.000 C 
ATOM      2  C   UNL     1       3.432   3.620  17.874  0.00  0.00    +0.000 C 
ATOM      3  C   UNL     1       3.078   2.199  18.087  0.00  0.00    +0.000 C 
ATOM      4  O   UNL     1       3.741   1.199  17.884  0.00  0.00    +0.000 OA
ATOM      5  N   UNL     1       1.776   2.195  18.539  0.00  0.00    +0.000 N 
ATOM      6  C   UNL     1       1.174   3.488  18.827  0.00  0.00    +0.000 C 
ATOM      7  C   UNL     1       2.296   4.423  18.401  0.00  0.00    +0.000 C 
ATOM      8  O   UNL     1       2.259   5.641  18.479  0.00  0.00    +0.000 OA
ATOM      9  H   UNL     1       1.318   1.304  18.693  0.00  0.00    +0.000 HD
ENDROOT
BRANCH   1  10
ATOM     10  O   UNL     1       5.494   3.205  16.777  0.00  0.00    +0.000 OA
ATOM     11  H   UNL     1       5.334   2.978  15.846  0.00  0.00    +0.000 HD
ENDBRANCH   1  10
BRANCH   1  12
ATOM     12  C   UNL     1       4.693   5.510  16.787  0.00  0.00    +0.000 C 
BRANCH  12  13
ATOM     13  C   UNL     1       5.502   6.366  17.763  0.00  0.00    +0.000 C 
BRANCH  13  14
ATOM     14  C   UNL     1       6.965   5.910  17.849  0.00  0.00    +0.000 C 
BRANCH  14  15
ATOM     15  C   UNL     1       7.895   7.029  18.319  0.00  0.00    +0.000 C 
BRANCH  15  16
ATOM     16  C   UNL     1       8.001   8.163  17.308  0.00  0.00    +0.000 C 
BRANCH  16  17
ATOM     17  C   UNL     1       7.891   9.509  18.026  0.00  0.00    +0.000 C 
BRANCH  17  18
ATOM     18  C   UNL     1       9.146   9.807  18.835  0.00  0.00    +0.000 C 
BRANCH  18  19
ATOM     19  C   UNL     1       9.434  11.308  18.863  0.00  0.00    +0.000 C 
BRANCH  19  20
ATOM     20  C   UNL     1      10.876  11.587  18.450  0.00  0.00    +0.000 C 
BRANCH  20  22
ATOM     21  C   UNL     1      12.245  13.374  19.560  0.00  0.00    +0.000 C 
ATOM     22  C   UNL     1      11.743  11.943  19.654  0.00  0.00    +0.000 C 
ENDBRANCH  20  22
ENDBRANCH  19  20
ENDBRANCH  18  19
ENDBRANCH  17  18
ENDBRANCH  16  17
ENDBRANCH  15  16
ENDBRANCH  14  15
ENDBRANCH  13  14
ENDBRANCH  12  13
ENDBRANCH   1  12
BRANCH   6  23
ATOM     23  C   UNL     1       0.812   3.579  20.303  0.00  0.00    +0.000 C 
BRANCH  23  24
ATOM     24  C   UNL     1       2.019   3.687  21.225  0.00  0.00    +0.000 C 
BRANCH  24  25
ATOM     25  O   UNL     1       2.296   5.061  21.474  0.00  0.00    +0.000 OA
ATOM     26  H   UNL     1       2.838   5.121  22.279  0.00  0.00    +0.000 HD
ENDBRANCH  24  25
ENDBRANCH  23  24
ENDBRANCH   6  23
TORSDOF 14
ENDMDL
MODEL 6
REMARK VINA RESULT:      -6.2      3.546      7.809
REMARK  Name = 
REMARK  15 active torsions:
REMARK  status: ('A' for Active; 'I' for Inactive)
REMARK    1  A    between atoms: C_1  and  C_2
REMARK    2  A    between atoms: C_2  and  C_3
REMARK    3  A    between atoms: C_3  and  C_4
REMARK    4  A    between atoms: C_4  and  C_5
REMARK    5  A    between atoms: C_5  and  C_6
REMARK    6  A    between atoms: C_6  and  C_7
REMARK    7  A    between atoms: C_7  and  C_8
REMARK    8  A    between atoms: C_8  and  C_9
REMARK    9  A    between atoms: C_9  and  C_10
REMARK   10  A    between atoms: C_10  and  C_11
REMARK   11  A    between atoms: C_11  and  C_12
REMARK   12  A    between atoms: C_12  and  O_13
REMARK   13  A    between atoms: C_18  and  C_19
REMARK   14  A    between atoms: C_19  and  C_20
REMARK   15  A    between atoms: C_20  and  O_21
REMARK                            x       y       z     vdW  Elec       q    Type
REMARK                         _______ _______ _______ _____ _____    ______ ____
ROOT
ATOM      1  C   UNL     1       6.627   5.256  15.460  0.00  0.00    +0.000 C 
ATOM      2  C   UNL     1       6.850   4.784  14.221  0.00  0.00    +0.000 C 
ATOM      3  C   UNL     1       7.913   5.233  13.295  0.00  0.00    +0.000 C 
ATOM      4  O   UNL     1       8.865   5.960  13.506  0.00  0.00    +0.000 OA
ATOM      5  N   UNL     1       7.599   4.695  12.065  0.00  0.00    +0.000 N 
ATOM      6  C   UNL     1       6.484   3.761  12.020  0.00  0.00    +0.000 C 
ATOM      7  C   UNL     1       6.012   3.815  13.465  0.00  0.00    +0.000 C 
ATOM      8  O   UNL     1       5.085   3.163  13.923  0.00  0.00    +0.000 OA
ATOM      9  H   UNL     1       8.178   4.932  11.269  0.00  0.00    +0.000 HD
ENDROOT
BRANCH   1  10
ATOM     10  O   UNL     1       7.494   6.169  16.036  0.00  0.00    +0.000 OA
ATOM     11  H   UNL     1       7.534   6.974  15.492  0.00  0.00    +0.000 HD
ENDBRANCH   1  10
BRANCH   1  12
ATOM     12  C   UNL     1       5.377   4.976  16.255  0.00  0.00    +0.000 C 
BRANCH  12  13
ATOM     13  C   UNL     1       5.637   4.504  17.687  0.00  0.00    +0.000 C 
BRANCH  13  14
ATOM     14  C   UNL     1       4.997   5.437  18.724  0.00  0.00    +0.000 C 
BRANCH  14  15
ATOM     15  C   UNL     1       3.861   6.271  18.131  0.00  0.00    +0.000 C 
BRANCH  15  16
ATOM     16  C   UNL     1       2.486   5.754  18.534  0.00  0.00    +0.000 C 
BRANCH  16  17
ATOM     17  C   UNL     1       2.174   6.177  19.970  0.00  0.00    +0.000 C 
BRANCH  17  18
ATOM     18  C   UNL     1       2.049   4.967  20.887  0.00  0.00    +0.000 C 
BRANCH  18  19
ATOM     19  C   UNL     1       0.979   4.002  20.376  0.00  0.00    +0.000 C 
BRANCH  19  20
ATOM     20  C   UNL     1       1.589   2.641  20.060  0.00  0.00    +0.000 C 
BRANCH  20  22
ATOM     21  C   UNL     1       2.657   2.081  17.858  0.00  0.00    +0.000 C 
ATOM     22  C   UNL     1       1.345   2.243  18.607  0.00  0.00    +0.000 C 
ENDBRANCH  20  22
ENDBRANCH  19  20
ENDBRANCH  18  19
ENDBRANCH  17  18
ENDBRANCH  16  17
ENDBRANCH  15  16
ENDBRANCH  14  15
ENDBRANCH  13  14
ENDBRANCH  12  13
ENDBRANCH   1  12
BRANCH   6  23
ATOM     23  C   UNL     1       6.967   2.390  11.572  0.00  0.00    +0.000 C 
BRANCH  23  24
ATOM     24  C   UNL     1       5.842   1.434  11.199  0.00  0.00    +0.000 C 
BRANCH  24  25
ATOM     25  O   UNL     1       6.232   0.104  11.521  0.00  0.00    +0.000 OA
ATOM     26  H   UNL     1       5.429  -0.414  11.699  0.00  0.00    +0.000 HD
ENDBRANCH  24  25
ENDBRANCH  23  24
ENDBRANCH   6  23
TORSDOF 14
ENDMDL
MODEL 7
REMARK VINA RESULT:      -6.2      5.281      7.843
REMARK  Name = 
REMARK  15 active torsions:
REMARK  status: ('A' for Active; 'I' for Inactive)
REMARK    1  A    between atoms: C_1  and  C_2
REMARK    2  A    between atoms: C_2  and  C_3
REMARK    3  A    between atoms: C_3  and  C_4
REMARK    4  A    between atoms: C_4  and  C_5
REMARK    5  A    between atoms: C_5  and  C_6
REMARK    6  A    between atoms: C_6  and  C_7
REMARK    7  A    between atoms: C_7  and  C_8
REMARK    8  A    between atoms: C_8  and  C_9
REMARK    9  A    between atoms: C_9  and  C_10
REMARK   10  A    between atoms: C_10  and  C_11
REMARK   11  A    between atoms: C_11  and  C_12
REMARK   12  A    between atoms: C_12  and  O_13
REMARK   13  A    between atoms: C_18  and  C_19
REMARK   14  A    between atoms: C_19  and  C_20
REMARK   15  A    between atoms: C_20  and  O_21
REMARK                            x       y       z     vdW  Elec       q    Type
REMARK                         _______ _______ _______ _____ _____    ______ ____
ROOT
ATOM      1  C   UNL     1       6.515   5.229  18.211  0.00  0.00    +0.000 C 
ATOM      2  C   UNL     1       5.215   4.981  18.447  0.00  0.00    +0.000 C 
ATOM      3  C   UNL     1       4.647   3.710  18.948  0.00  0.00    +0.000 C 
ATOM      4  O   UNL     1       5.217   2.732  19.393  0.00  0.00    +0.000 OA
ATOM      5  N   UNL     1       3.283   3.807  18.774  0.00  0.00    +0.000 N 
ATOM      6  C   UNL     1       2.766   5.092  18.329  0.00  0.00    +0.000 C 
ATOM      7  C   UNL     1       4.061   5.867  18.138  0.00  0.00    +0.000 C 
ATOM      8  O   UNL     1       4.132   7.034  17.783  0.00  0.00    +0.000 OA
ATOM      9  H   UNL     1       2.706   3.007  19.004  0.00  0.00    +0.000 HD
ENDROOT
BRANCH   1  10
ATOM     10  O   UNL     1       7.485   4.299  18.545  0.00  0.00    +0.000 OA
ATOM     11  H   UNL     1       8.267   4.422  17.981  0.00  0.00    +0.000 HD
ENDBRANCH   1  10
BRANCH   1  12
ATOM     12  C   UNL     1       7.017   6.426  17.443  0.00  0.00    +0.000 C 
BRANCH  12  13
ATOM     13  C   UNL     1       7.988   7.311  18.227  0.00  0.00    +0.000 C 
BRANCH  13  14
ATOM     14  C   UNL     1       7.998   8.754  17.705  0.00  0.00    +0.000 C 
BRANCH  14  15
ATOM     15  C   UNL     1       8.847   9.681  18.576  0.00  0.00    +0.000 C 
BRANCH  15  16
ATOM     16  C   UNL     1       8.872  11.111  18.054  0.00  0.00    +0.000 C 
BRANCH  16  17
ATOM     17  C   UNL     1      10.316  11.545  17.802  0.00  0.00    +0.000 C 
BRANCH  17  18
ATOM     18  C   UNL     1      11.163  11.404  19.060  0.00  0.00    +0.000 C 
BRANCH  18  19
ATOM     19  C   UNL     1      10.864  12.531  20.049  0.00  0.00    +0.000 C 
BRANCH  19  20
ATOM     20  C   UNL     1      10.059  12.006  21.234  0.00  0.00    +0.000 C 
BRANCH  20  22
ATOM     21  C   UNL     1       8.643  12.662  23.200  0.00  0.00    +0.000 C 
ATOM     22  C   UNL     1       9.207  13.106  21.861  0.00  0.00    +0.000 C 
ENDBRANCH  20  22
ENDBRANCH  19  20
ENDBRANCH  18  19
ENDBRANCH  17  18
ENDBRANCH  16  17
ENDBRANCH  15  16
ENDBRANCH  14  15
ENDBRANCH  13  14
ENDBRANCH  12  13
ENDBRANCH   1  12
BRANCH   6  23
ATOM     23  C   UNL     1       1.838   5.676  19.384  0.00  0.00    +0.000 C 
BRANCH  23  24
ATOM     24  C   UNL     1       1.689   4.803  20.622  0.00  0.00    +0.000 C 
BRANCH  24  25
ATOM     25  O   UNL     1       0.625   3.879  20.419  0.00  0.00    +0.000 OA
ATOM     26  H   UNL     1      -0.181   4.254  20.812  0.00  0.00    +0.000 HD
ENDBRANCH  24  25
ENDBRANCH  23  24
ENDBRANCH   6  23
TORSDOF 14
ENDMDL
MODEL 8
REMARK VINA RESULT:      -6.1      4.345      7.011
REMARK  Name = 
REMARK  15 active torsions:
REMARK  status: ('A' for Active; 'I' for Inactive)
REMARK    1  A    between atoms: C_1  and  C_2
REMARK    2  A    between atoms: C_2  and  C_3
REMARK    3  A    between atoms: C_3  and  C_4
REMARK    4  A    between atoms: C_4  and  C_5
REMARK    5  A    between atoms: C_5  and  C_6
REMARK    6  A    between atoms: C_6  and  C_7
REMARK    7  A    between atoms: C_7  and  C_8
REMARK    8  A    between atoms: C_8  and  C_9
REMARK    9  A    between atoms: C_9  and  C_10
REMARK   10  A    between atoms: C_10  and  C_11
REMARK   11  A    between atoms: C_11  and  C_12
REMARK   12  A    between atoms: C_12  and  O_13
REMARK   13  A    between atoms: C_18  and  C_19
REMARK   14  A    between atoms: C_19  and  C_20
REMARK   15  A    between atoms: C_20  and  O_21
REMARK                            x       y       z     vdW  Elec       q    Type
REMARK                         _______ _______ _______ _____ _____    ______ ____
ROOT
ATOM      1  C   UNL     1       4.499   4.043  17.139  0.00  0.00    +0.000 C 
ATOM      2  C   UNL     1       3.438   3.549  17.800  0.00  0.00    +0.000 C 
ATOM      3  C   UNL     1       3.165   2.119  18.066  0.00  0.00    +0.000 C 
ATOM      4  O   UNL     1       3.886   1.152  17.906  0.00  0.00    +0.000 OA
ATOM      5  N   UNL     1       1.861   2.056  18.511  0.00  0.00    +0.000 N 
ATOM      6  C   UNL     1       1.184   3.322  18.745  0.00  0.00    +0.000 C 
ATOM      7  C   UNL     1       2.254   4.304  18.289  0.00  0.00    +0.000 C 
ATOM      8  O   UNL     1       2.146   5.520  18.320  0.00  0.00    +0.000 OA
ATOM      9  H   UNL     1       1.455   1.147  18.696  0.00  0.00    +0.000 HD
ENDROOT
BRANCH   1  10
ATOM     10  O   UNL     1       5.530   3.212  16.733  0.00  0.00    +0.000 OA
ATOM     11  H   UNL     1       5.407   2.965  15.801  0.00  0.00    +0.000 HD
ENDBRANCH   1  10
BRANCH   1  12
ATOM     12  C   UNL     1       4.597   5.465  16.648  0.00  0.00    +0.000 C 
BRANCH  12  13
ATOM     13  C   UNL     1       5.126   6.452  17.691  0.00  0.00    +0.000 C 
BRANCH  13  14
ATOM     14  C   UNL     1       6.590   6.170  18.057  0.00  0.00    +0.000 C 
BRANCH  14  15
ATOM     15  C   UNL     1       7.569   6.946  17.176  0.00  0.00    +0.000 C 
BRANCH  15  16
ATOM     16  C   UNL     1       7.598   8.433  17.506  0.00  0.00    +0.000 C 
BRANCH  16  17
ATOM     17  C   UNL     1       8.613   8.697  18.618  0.00  0.00    +0.000 C 
BRANCH  17  18
ATOM     18  C   UNL     1       9.021  10.164  18.658  0.00  0.00    +0.000 C 
BRANCH  18  19
ATOM     19  C   UNL     1       9.460  10.571  20.064  0.00  0.00    +0.000 C 
BRANCH  19  20
ATOM     20  C   UNL     1      10.009  11.995  20.064  0.00  0.00    +0.000 C 
BRANCH  20  22
ATOM     21  C   UNL     1      10.220  14.131  21.366  0.00  0.00    +0.000 C 
ATOM     22  C   UNL     1       9.545  12.772  21.293  0.00  0.00    +0.000 C 
ENDBRANCH  20  22
ENDBRANCH  19  20
ENDBRANCH  18  19
ENDBRANCH  17  18
ENDBRANCH  16  17
ENDBRANCH  15  16
ENDBRANCH  14  15
ENDBRANCH  13  14
ENDBRANCH  12  13
ENDBRANCH   1  12
BRANCH   6  23
ATOM     23  C   UNL     1       0.805   3.449  20.213  0.00  0.00    +0.000 C 
BRANCH  23  24
ATOM     24  C   UNL     1       1.605   2.538  21.134  0.00  0.00    +0.000 C 
BRANCH  24  25
ATOM     25  O   UNL     1       2.178   3.316  22.180  0.00  0.00    +0.000 OA
ATOM     26  H   UNL     1       2.618   4.085  21.780  0.00  0.00    +0.000 HD
ENDBRANCH  24  25
ENDBRANCH  23  24
ENDBRANCH   6  23
TORSDOF 14
ENDMDL
MODEL 9
REMARK VINA RESULT:      -6.1      1.712      2.337
REMARK  Name = 
REMARK  15 active torsions:
REMARK  status: ('A' for Active; 'I' for Inactive)
REMARK    1  A    between atoms: C_1  and  C_2
REMARK    2  A    between atoms: C_2  and  C_3
REMARK    3  A    between atoms: C_3  and  C_4
REMARK    4  A    between atoms: C_4  and  C_5
REMARK    5  A    between atoms: C_5  and  C_6
REMARK    6  A    between atoms: C_6  and  C_7
REMARK    7  A    between atoms: C_7  and  C_8
REMARK    8  A    between atoms: C_8  and  C_9
REMARK    9  A    between atoms: C_9  and  C_10
REMARK   10  A    between atoms: C_10  and  C_11
REMARK   11  A    between atoms: C_11  and  C_12
REMARK   12  A    between atoms: C_12  and  O_13
REMARK   13  A    between atoms: C_18  and  C_19
REMARK   14  A    between atoms: C_19  and  C_20
REMARK   15  A    between atoms: C_20  and  O_21
REMARK                            x       y       z     vdW  Elec       q    Type
REMARK                         _______ _______ _______ _____ _____    ______ ____
ROOT
ATOM      1  C   UNL     1       3.932   6.220  17.456  0.00  0.00    +0.000 C 
ATOM      2  C   UNL     1       3.529   5.253  18.298  0.00  0.00    +0.000 C 
ATOM      3  C   UNL     1       2.833   5.455  19.588  0.00  0.00    +0.000 C 
ATOM      4  O   UNL     1       2.349   6.469  20.055  0.00  0.00    +0.000 OA
ATOM      5  N   UNL     1       2.867   4.237  20.233  0.00  0.00    +0.000 N 
ATOM      6  C   UNL     1       3.390   3.107  19.480  0.00  0.00    +0.000 C 
ATOM      7  C   UNL     1       3.804   3.796  18.188  0.00  0.00    +0.000 C 
ATOM      8  O   UNL     1       4.290   3.232  17.220  0.00  0.00    +0.000 OA
ATOM      9  H   UNL     1       2.489   4.173  21.171  0.00  0.00    +0.000 HD
ENDROOT
BRANCH   1  10
ATOM     10  O   UNL     1       3.607   7.546  17.693  0.00  0.00    +0.000 OA
ATOM     11  H   UNL     1       3.366   7.980  16.858  0.00  0.00    +0.000 HD
ENDBRANCH   1  10
BRANCH   1  12
ATOM     12  C   UNL     1       4.876   5.993  16.302  0.00  0.00    +0.000 C 
BRANCH  12  13
ATOM     13  C   UNL     1       6.296   5.608  16.721  0.00  0.00    +0.000 C 
BRANCH  13  14
ATOM     14  C   UNL     1       6.958   4.666  15.707  0.00  0.00    +0.000 C 
BRANCH  14  15
ATOM     15  C   UNL     1       6.478   4.921  14.277  0.00  0.00    +0.000 C 
BRANCH  15  16
ATOM     16  C   UNL     1       5.612   3.788  13.743  0.00  0.00    +0.000 C 
BRANCH  16  17
ATOM     17  C   UNL     1       6.381   3.007  12.678  0.00  0.00    +0.000 C 
BRANCH  17  18
ATOM     18  C   UNL     1       5.460   2.554  11.551  0.00  0.00    +0.000 C 
BRANCH  18  19
ATOM     19  C   UNL     1       4.552   3.696  11.096  0.00  0.00    +0.000 C 
BRANCH  19  20
ATOM     20  C   UNL     1       3.193   3.159  10.656  0.00  0.00    +0.000 C 
BRANCH  20  22
ATOM     21  C   UNL     1       2.298   5.001   9.205  0.00  0.00    +0.000 C 
ATOM     22  C   UNL     1       2.858   3.588   9.231  0.00  0.00    +0.000 C 
ENDBRANCH  20  22
ENDBRANCH  19  20
ENDBRANCH  18  19
ENDBRANCH  17  18
ENDBRANCH  16  17
ENDBRANCH  15  16
ENDBRANCH  14  15
ENDBRANCH  13  14
ENDBRANCH  12  13
ENDBRANCH   1  12
BRANCH   6  23
ATOM     23  C   UNL     1       2.309   2.050  19.305  0.00  0.00    +0.000 C 
BRANCH  23  24
ATOM     24  C   UNL     1       0.933   2.624  18.997  0.00  0.00    +0.000 C 
BRANCH  24  25
ATOM     25  O   UNL     1       0.252   2.889  20.218  0.00  0.00    +0.000 OA
ATOM     26  H   UNL     1       0.217   2.065  20.732  0.00  0.00    +0.000 HD
ENDBRANCH  24  25
ENDBRANCH  23  24
ENDBRANCH   6  23
TORSDOF 14
ENDMDL
