MODEL 1
REMARK VINA RESULT:      -7.1      0.000      0.000
REMARK  Name = 
REMARK  4 active torsions:
REMARK  status: ('A' for Active; 'I' for Inactive)
REMARK    1  A    between atoms: C_1  and  C_2
REMARK    2  A    between atoms: C_2  and  C_4
REMARK    3  A    between atoms: C_4  and  C_5
REMARK    4  A    between atoms: N_14  and  C_15
REMARK                            x       y       z     vdW  Elec       q    Type
REMARK                         _______ _______ _______ _____ _____    ______ ____
ROOT
ATOM      1  C   UNL     1       4.606   4.567  18.575  0.00  0.00    +0.000 C 
ATOM      2  C   UNL     1       4.471   3.801  17.230  0.00  0.00    +0.000 C 
ATOM      3  C   UNL     1       3.120   3.151  16.924  0.00  0.00    +0.000 C 
ATOM      4  C   UNL     1       2.815   1.939  17.792  0.00  0.00    +0.000 C 
ATOM      5  N   UNL     1       2.181   2.211  19.077  0.00  0.00    +0.000 NA
ATOM      6  C   UNL     1       0.734   2.410  18.947  0.00  0.00    +0.000 C 
ATOM      7  C   UNL     1       2.758   3.273  19.906  0.00  0.00    +0.000 C 
ATOM      8  C   UNL     1       4.254   3.587  19.744  0.00  0.00    +0.000 C 
ENDROOT
BRANCH   1   9
ATOM      9  C   UNL     1       3.779   5.871  18.671  0.00  0.00    +0.000 A 
ATOM     10  C   UNL     1       3.771   6.846  17.659  0.00  0.00    +0.000 A 
ATOM     11  C   UNL     1       2.944   7.969  17.729  0.00  0.00    +0.000 A 
ATOM     12  C   UNL     1       2.132   8.163  18.840  0.00  0.00    +0.000 A 
ATOM     13  C   UNL     1       2.150   7.242  19.880  0.00  0.00    +0.000 A 
ATOM     14  C   UNL     1       2.965   6.105  19.798  0.00  0.00    +0.000 A 
ENDBRANCH   1   9
BRANCH   1  16
ATOM     15  C   UNL     1       6.992   4.862  17.478  0.00  0.00    +0.000 C 
ATOM     16  C   UNL     1       6.113   4.950  18.707  0.00  0.00    +0.000 C 
ATOM     17  O   UNL     1       6.605   5.342  19.779  0.00  0.00    +0.000 OA
ENDBRANCH   1  16
TORSDOF 2
ENDMDL
MODEL 2
REMARK VINA RESULT:      -7.1      2.379      4.061
REMARK  Name = 
REMARK  4 active torsions:
REMARK  status: ('A' for Active; 'I' for Inactive)
REMARK    1  A    between atoms: C_1  and  C_2
REMARK    2  A    between atoms: C_2  and  C_4
REMARK    3  A    between atoms: C_4  and  C_5
REMARK    4  A    between atoms: N_14  and  C_15
REMARK                            x       y       z     vdW  Elec       q    Type
REMARK                         _______ _______ _______ _____ _____    ______ ____
ROOT
ATOM      1  C   UNL     1       3.833   5.006  17.903  0.00  0.00    +0.000 C 
ATOM      2  C   UNL     1       4.800   4.387  18.949  0.00  0.00    +0.000 C 
ATOM      3  C   UNL     1       6.086   5.156  19.259  0.00  0.00    +0.000 C 
ATOM      4  C   UNL     1       7.098   5.138  18.123  0.00  0.00    +0.000 C 
ATOM      5  N   UNL     1       6.945   6.174  17.108  0.00  0.00    +0.000 NA
ATOM      6  C   UNL     1       7.530   7.450  17.531  0.00  0.00    +0.000 C 
ATOM      7  C   UNL     1       5.602   6.397  16.564  0.00  0.00    +0.000 C 
ATOM      8  C   UNL     1       4.615   5.219  16.565  0.00  0.00    +0.000 C 
ENDROOT
BRANCH   1   9
ATOM      9  C   UNL     1       3.131   6.310  18.353  0.00  0.00    +0.000 A 
ATOM     10  C   UNL     1       2.925   7.402  17.493  0.00  0.00    +0.000 A 
ATOM     11  C   UNL     1       2.206   8.528  17.898  0.00  0.00    +0.000 A 
ATOM     12  C   UNL     1       1.711   8.606  19.194  0.00  0.00    +0.000 A 
ATOM     13  C   UNL     1       1.938   7.564  20.084  0.00  0.00    +0.000 A 
ATOM     14  C   UNL     1       2.640   6.425  19.670  0.00  0.00    +0.000 A 
ENDBRANCH   1   9
BRANCH   1  16
ATOM     15  C   UNL     1       3.074   2.476  17.843  0.00  0.00    +0.000 C 
ATOM     16  C   UNL     1       2.726   3.936  17.649  0.00  0.00    +0.000 C 
ATOM     17  O   UNL     1       1.571   4.245  17.312  0.00  0.00    +0.000 OA
ENDBRANCH   1  16
TORSDOF 2
ENDMDL
MODEL 3
REMARK VINA RESULT:      -7.0      0.128      1.172
REMARK  Name = 
REMARK  4 active torsions:
REMARK  status: ('A' for Active; 'I' for Inactive)
REMARK    1  A    between atoms: C_1  and  C_2
REMARK    2  A    between atoms: C_2  and  C_4
REMARK    3  A    between atoms: C_4  and  C_5
REMARK    4  A    between atoms: N_14  and  C_15
REMARK                            x       y       z     vdW  Elec       q    Type
REMARK                         _______ _______ _______ _____ _____    ______ ____
ROOT
ATOM      1  C   UNL     1       4.480   4.579  18.591  0.00  0.00    +0.000 C 
ATOM      2  C   UNL     1       4.371   3.821  17.239  0.00  0.00    +0.000 C 
ATOM      3  C   UNL     1       3.042   3.133  16.923  0.00  0.00    +0.000 C 
ATOM      4  C   UNL     1       2.771   1.904  17.780  0.00  0.00    +0.000 C 
ATOM      5  N   UNL     1       2.126   2.146  19.065  0.00  0.00    +0.000 NA
ATOM      6  C   UNL     1       0.674   2.302  18.932  0.00  0.00    +0.000 C 
ATOM      7  C   UNL     1       2.668   3.218  19.905  0.00  0.00    +0.000 C 
ATOM      8  C   UNL     1       4.153   3.579  19.751  0.00  0.00    +0.000 C 
ENDROOT
BRANCH   1   9
ATOM      9  C   UNL     1       3.612   5.856  18.695  0.00  0.00    +0.000 A 
ATOM     10  C   UNL     1       2.819   6.151  19.817  0.00  0.00    +0.000 A 
ATOM     11  C   UNL     1       2.121   7.355  19.925  0.00  0.00    +0.000 A 
ATOM     12  C   UNL     1       2.167   8.279  18.888  0.00  0.00    +0.000 A 
ATOM     13  C   UNL     1       2.903   7.998  17.744  0.00  0.00    +0.000 A 
ATOM     14  C   UNL     1       3.622   6.799  17.647  0.00  0.00    +0.000 A 
ENDBRANCH   1   9
BRANCH   1  16
ATOM     15  C   UNL     1       6.848   4.992  17.496  0.00  0.00    +0.000 C 
ATOM     16  C   UNL     1       5.973   5.007  18.731  0.00  0.00    +0.000 C 
ATOM     17  O   UNL     1       6.458   5.376  19.814  0.00  0.00    +0.000 OA
ENDBRANCH   1  16
TORSDOF 2
ENDMDL
MODEL 4
REMARK VINA RESULT:      -7.0      2.373      4.213
REMARK  Name = 
REMARK  4 active torsions:
REMARK  status: ('A' for Active; 'I' for Inactive)
REMARK    1  A    between atoms: C_1  and  C_2
REMARK    2  A    between atoms: C_2  and  C_4
REMARK    3  A    between atoms: C_4  and  C_5
REMARK    4  A    between atoms: N_14  and  C_15
REMARK                            x       y       z     vdW  Elec       q    Type
REMARK                         _______ _______ _______ _____ _____    ______ ____
ROOT
ATOM      1  C   UNL     1       4.016   4.794  17.906  0.00  0.00    +0.000 C 
ATOM      2  C   UNL     1       5.059   4.248  18.920  0.00  0.00    +0.000 C 
ATOM      3  C   UNL     1       6.280   5.122  19.212  0.00  0.00    +0.000 C 
ATOM      4  C   UNL     1       7.262   5.206  18.053  0.00  0.00    +0.000 C 
ATOM      5  N   UNL     1       6.996   6.238  17.057  0.00  0.00    +0.000 NA
ATOM      6  C   UNL     1       7.478   7.554  17.485  0.00  0.00    +0.000 C 
ATOM      7  C   UNL     1       5.626   6.350  16.547  0.00  0.00    +0.000 C 
ATOM      8  C   UNL     1       4.745   5.091  16.553  0.00  0.00    +0.000 C 
ENDROOT
BRANCH   1   9
ATOM      9  C   UNL     1       3.215   6.026  18.391  0.00  0.00    +0.000 A 
ATOM     10  C   UNL     1       2.689   6.132  19.689  0.00  0.00    +0.000 A 
ATOM     11  C   UNL     1       2.052   7.293  20.129  0.00  0.00    +0.000 A 
ATOM     12  C   UNL     1       1.889   8.366  19.262  0.00  0.00    +0.000 A 
ATOM     13  C   UNL     1       2.356   8.277  17.957  0.00  0.00    +0.000 A 
ATOM     14  C   UNL     1       3.015   7.119  17.523  0.00  0.00    +0.000 A 
ENDBRANCH   1   9
BRANCH   1  16
ATOM     15  C   UNL     1       3.400   2.229  18.053  0.00  0.00    +0.000 C 
ATOM     16  C   UNL     1       3.001   3.635  17.661  0.00  0.00    +0.000 C 
ATOM     17  O   UNL     1       1.874   3.834  17.175  0.00  0.00    +0.000 OA
ENDBRANCH   1  16
TORSDOF 2
ENDMDL
MODEL 5
REMARK VINA RESULT:      -6.8      1.669      3.576
REMARK  Name = 
REMARK  4 active torsions:
REMARK  status: ('A' for Active; 'I' for Inactive)
REMARK    1  A    between atoms: C_1  and  C_2
REMARK    2  A    between atoms: C_2  and  C_4
REMARK    3  A    between atoms: C_4  and  C_5
REMARK    4  A    between atoms: N_14  and  C_15
REMARK                            x       y       z     vdW  Elec       q    Type
REMARK                         _______ _______ _______ _____ _____    ______ ____
ROOT
ATOM      1  C   UNL     1       2.963   5.777  18.946  0.00  0.00    +0.000 C 
ATOM      2  C   UNL     1       2.717   5.091  20.318  0.00  0.00    +0.000 C 
ATOM      3  C   UNL     1       3.035   3.598  20.424  0.00  0.00    +0.000 C 
ATOM      4  C   UNL     1       2.063   2.711  19.661  0.00  0.00    +0.000 C 
ATOM      5  N   UNL     1       2.368   2.484  18.253  0.00  0.00    +0.000 NA
ATOM      6  C   UNL     1       3.378   1.437  18.070  0.00  0.00    +0.000 C 
ATOM      7  C   UNL     1       2.707   3.653  17.436  0.00  0.00    +0.000 C 
ATOM      8  C   UNL     1       2.139   5.018  17.853  0.00  0.00    +0.000 C 
ENDROOT
BRANCH   1   9
ATOM      9  C   UNL     1       4.450   5.904  18.536  0.00  0.00    +0.000 A 
ATOM     10  C   UNL     1       4.867   6.571  17.372  0.00  0.00    +0.000 A 
ATOM     11  C   UNL     1       6.219   6.751  17.074  0.00  0.00    +0.000 A 
ATOM     12  C   UNL     1       7.190   6.229  17.920  0.00  0.00    +0.000 A 
ATOM     13  C   UNL     1       6.813   5.524  19.055  0.00  0.00    +0.000 A 
ATOM     14  C   UNL     1       5.455   5.362  19.363  0.00  0.00    +0.000 A 
ENDBRANCH   1   9
BRANCH   1  16
ATOM     15  C   UNL     1       2.131   8.011  17.806  0.00  0.00    +0.000 C 
ATOM     16  C   UNL     1       2.382   7.220  19.072  0.00  0.00    +0.000 C 
ATOM     17  O   UNL     1       2.102   7.728  20.171  0.00  0.00    +0.000 OA
ENDBRANCH   1  16
TORSDOF 2
ENDMDL
MODEL 6
REMARK VINA RESULT:      -6.8      1.741      3.830
REMARK  Name = 
REMARK  4 active torsions:
REMARK  status: ('A' for Active; 'I' for Inactive)
REMARK    1  A    between atoms: C_1  and  C_2
REMARK    2  A    between atoms: C_2  and  C_4
REMARK    3  A    between atoms: C_4  and  C_5
REMARK    4  A    between atoms: N_14  and  C_15
REMARK                            x       y       z     vdW  Elec       q    Type
REMARK                         _______ _______ _______ _____ _____    ______ ____
ROOT
ATOM      1  C   UNL     1       2.867   5.755  18.879  0.00  0.00    +0.000 C 
ATOM      2  C   UNL     1       2.576   5.116  20.264  0.00  0.00    +0.000 C 
ATOM      3  C   UNL     1       2.930   3.639  20.445  0.00  0.00    +0.000 C 
ATOM      4  C   UNL     1       2.020   2.693  19.675  0.00  0.00    +0.000 C 
ATOM      5  N   UNL     1       2.397   2.421  18.293  0.00  0.00    +0.000 NA
ATOM      6  C   UNL     1       3.443   1.397  18.199  0.00  0.00    +0.000 C 
ATOM      7  C   UNL     1       2.742   3.566  17.446  0.00  0.00    +0.000 C 
ATOM      8  C   UNL     1       2.117   4.929  17.781  0.00  0.00    +0.000 C 
ENDROOT
BRANCH   1   9
ATOM      9  C   UNL     1       4.368   5.910  18.533  0.00  0.00    +0.000 A 
ATOM     10  C   UNL     1       5.395   5.393  19.340  0.00  0.00    +0.000 A 
ATOM     11  C   UNL     1       6.735   5.464  18.957  0.00  0.00    +0.000 A 
ATOM     12  C   UNL     1       7.084   6.097  17.770  0.00  0.00    +0.000 A 
ATOM     13  C   UNL     1       6.097   6.661  16.971  0.00  0.00    +0.000 A 
ATOM     14  C   UNL     1       4.751   6.568  17.347  0.00  0.00    +0.000 A 
ENDBRANCH   1   9
BRANCH   1  16
ATOM     15  C   UNL     1       1.873   7.775  20.262  0.00  0.00    +0.000 C 
ATOM     16  C   UNL     1       2.240   7.183  18.919  0.00  0.00    +0.000 C 
ATOM     17  O   UNL     1       2.053   7.853  17.888  0.00  0.00    +0.000 OA
ENDBRANCH   1  16
TORSDOF 2
ENDMDL
MODEL 7
REMARK VINA RESULT:      -6.6      1.712      3.847
REMARK  Name = 
REMARK  4 active torsions:
REMARK  status: ('A' for Active; 'I' for Inactive)
REMARK    1  A    between atoms: C_1  and  C_2
REMARK    2  A    between atoms: C_2  and  C_4
REMARK    3  A    between atoms: C_4  and  C_5
REMARK    4  A    between atoms: N_14  and  C_15
REMARK                            x       y       z     vdW  Elec       q    Type
REMARK                         _______ _______ _______ _____ _____    ______ ____
ROOT
ATOM      1  C   UNL     1       2.798   6.021  18.589  0.00  0.00    +0.000 C 
ATOM      2  C   UNL     1       2.423   6.003  20.097  0.00  0.00    +0.000 C 
ATOM      3  C   UNL     1       2.228   4.637  20.756  0.00  0.00    +0.000 C 
ATOM      4  C   UNL     1       0.968   3.914  20.303  0.00  0.00    +0.000 C 
ATOM      5  N   UNL     1       1.090   3.104  19.096  0.00  0.00    +0.000 NA
ATOM      6  C   UNL     1       1.676   1.789  19.371  0.00  0.00    +0.000 C 
ATOM      7  C   UNL     1       1.749   3.712  17.936  0.00  0.00    +0.000 C 
ATOM      8  C   UNL     1       1.699   5.241  17.793  0.00  0.00    +0.000 C 
ENDROOT
BRANCH   1   9
ATOM      9  C   UNL     1       4.212   5.485  18.260  0.00  0.00    +0.000 A 
ATOM     10  C   UNL     1       4.544   4.919  17.018  0.00  0.00    +0.000 A 
ATOM     11  C   UNL     1       5.850   4.530  16.716  0.00  0.00    +0.000 A 
ATOM     12  C   UNL     1       6.851   4.660  17.671  0.00  0.00    +0.000 A 
ATOM     13  C   UNL     1       6.547   5.172  18.925  0.00  0.00    +0.000 A 
ATOM     14  C   UNL     1       5.240   5.583  19.220  0.00  0.00    +0.000 A 
ENDBRANCH   1   9
BRANCH   1  16
ATOM     15  C   UNL     1       1.822   8.458  18.891  0.00  0.00    +0.000 C 
ATOM     16  C   UNL     1       2.743   7.516  18.146  0.00  0.00    +0.000 C 
ATOM     17  O   UNL     1       3.442   7.958  17.217  0.00  0.00    +0.000 OA
ENDBRANCH   1  16
TORSDOF 2
ENDMDL
MODEL 8
REMARK VINA RESULT:      -6.5      1.775      3.980
REMARK  Name = 
REMARK  4 active torsions:
REMARK  status: ('A' for Active; 'I' for Inactive)
REMARK    1  A    between atoms: C_1  and  C_2
REMARK    2  A    between atoms: C_2  and  C_4
REMARK    3  A    between atoms: C_4  and  C_5
REMARK    4  A    between atoms: N_14  and  C_15
REMARK                            x       y       z     vdW  Elec       q    Type
REMARK                         _______ _______ _______ _____ _____    ______ ____
ROOT
ATOM      1  C   UNL     1       2.697   6.108  18.654  0.00  0.00    +0.000 C 
ATOM      2  C   UNL     1       2.311   6.015  20.155  0.00  0.00    +0.000 C 
ATOM      3  C   UNL     1       2.167   4.617  20.759  0.00  0.00    +0.000 C 
ATOM      4  C   UNL     1       0.942   3.861  20.266  0.00  0.00    +0.000 C 
ATOM      5  N   UNL     1       1.108   3.105  19.029  0.00  0.00    +0.000 NA
ATOM      6  C   UNL     1       1.746   1.805  19.259  0.00  0.00    +0.000 C 
ATOM      7  C   UNL     1       1.751   3.785  17.901  0.00  0.00    +0.000 C 
ATOM      8  C   UNL     1       1.639   5.315  17.816  0.00  0.00    +0.000 C 
ENDROOT
BRANCH   1   9
ATOM      9  C   UNL     1       4.136   5.644  18.319  0.00  0.00    +0.000 A 
ATOM     10  C   UNL     1       5.173   5.627  19.266  0.00  0.00    +0.000 A 
ATOM     11  C   UNL     1       6.435   5.116  18.963  0.00  0.00    +0.000 A 
ATOM     12  C   UNL     1       6.703   4.645  17.683  0.00  0.00    +0.000 A 
ATOM     13  C   UNL     1       5.714   4.691  16.709  0.00  0.00    +0.000 A 
ATOM     14  C   UNL     1       4.441   5.184  17.021  0.00  0.00    +0.000 A 
ENDBRANCH   1   9
BRANCH   1  16
ATOM     15  C   UNL     1       1.714   8.516  19.119  0.00  0.00    +0.000 C 
ATOM     16  C   UNL     1       2.584   7.615  18.268  0.00  0.00    +0.000 C 
ATOM     17  O   UNL     1       3.198   8.100  17.302  0.00  0.00    +0.000 OA
ENDBRANCH   1  16
TORSDOF 2
ENDMDL
MODEL 9
REMARK VINA RESULT:      -6.5      0.994      1.555
REMARK  Name = 
REMARK  4 active torsions:
REMARK  status: ('A' for Active; 'I' for Inactive)
REMARK    1  A    between atoms: C_1  and  C_2
REMARK    2  A    between atoms: C_2  and  C_4
REMARK    3  A    between atoms: C_4  and  C_5
REMARK    4  A    between atoms: N_14  and  C_15
REMARK                            x       y       z     vdW  Elec       q    Type
REMARK                         _______ _______ _______ _____ _____    ______ ____
ROOT
ATOM      1  C   UNL     1       4.595   4.819  18.069  0.00  0.00    +0.000 C 
ATOM      2  C   UNL     1       4.161   3.960  16.849  0.00  0.00    +0.000 C 
ATOM      3  C   UNL     1       2.888   3.125  16.996  0.00  0.00    +0.000 C 
ATOM      4  C   UNL     1       3.039   1.940  17.938  0.00  0.00    +0.000 C 
ATOM      5  N   UNL     1       2.801   2.208  19.352  0.00  0.00    +0.000 NA
ATOM      6  C   UNL     1       1.372   2.212  19.679  0.00  0.00    +0.000 C 
ATOM      7  C   UNL     1       3.450   3.385  19.937  0.00  0.00    +0.000 C 
ATOM      8  C   UNL     1       4.762   3.877  19.308  0.00  0.00    +0.000 C 
ENDROOT
BRANCH   1   9
ATOM      9  C   UNL     1       3.662   6.010  18.395  0.00  0.00    +0.000 A 
ATOM     10  C   UNL     1       2.934   6.104  19.593  0.00  0.00    +0.000 A 
ATOM     11  C   UNL     1       2.174   7.233  19.902  0.00  0.00    +0.000 A 
ATOM     12  C   UNL     1       2.091   8.283  18.996  0.00  0.00    +0.000 A 
ATOM     13  C   UNL     1       2.761   8.202  17.782  0.00  0.00    +0.000 A 
ATOM     14  C   UNL     1       3.541   7.078  17.482  0.00  0.00    +0.000 A 
ENDBRANCH   1   9
BRANCH   1  16
ATOM     15  C   UNL     1       6.903   5.848  18.841  0.00  0.00    +0.000 C 
ATOM     16  C   UNL     1       5.999   5.400  17.713  0.00  0.00    +0.000 C 
ATOM     17  O   UNL     1       6.402   5.486  16.540  0.00  0.00    +0.000 OA
ENDBRANCH   1  16
TORSDOF 2
ENDMDL
