MODEL 1
REMARK VINA RESULT:      -6.5      0.000      0.000
REMARK  Name = 
REMARK  11 active torsions:
REMARK  status: ('A' for Active; 'I' for Inactive)
REMARK    1  A    between atoms: C_1  and  C_2
REMARK    2  A    between atoms: C_2  and  C_3
REMARK    3  A    between atoms: C_3  and  C_4
REMARK    4  A    between atoms: C_6  and  O_7
REMARK    5  A    between atoms: O_7  and  C_8
REMARK    6  A    between atoms: C_9  and  O_10
REMARK    7  A    between atoms: O_10  and  C_11
REMARK    8  A    between atoms: C_11  and  C_12
REMARK    9  A    between atoms: C_12  and  O_14
REMARK   10  A    between atoms: O_14  and  C_15
REMARK   11  A    between atoms: C_17  and  N_18
REMARK                            x       y       z     vdW  Elec       q    Type
REMARK                         _______ _______ _______ _____ _____    ______ ____
ROOT
ATOM      1  C   UNL     1       2.057   3.994  18.704  0.00  0.00    +0.000 A 
ATOM      2  C   UNL     1       2.344   5.368  18.717  0.00  0.00    +0.000 A 
ATOM      3  C   UNL     1       3.341   5.918  17.910  0.00  0.00    +0.000 A 
ATOM      4  C   UNL     1       4.080   5.073  17.065  0.00  0.00    +0.000 A 
ATOM      5  C   UNL     1       3.791   3.702  17.043  0.00  0.00    +0.000 A 
ATOM      6  C   UNL     1       2.819   3.141  17.892  0.00  0.00    +0.000 A 
ENDROOT
BRANCH   6   7
ATOM      7  N   UNL     1       2.481   1.788  17.730  0.00  0.00    +0.000 N 
ATOM      8  H   UNL     1       1.636   1.629  17.192  0.00  0.00    +0.000 HD
ATOM      9  H   UNL     1       3.246   1.202  17.417  0.00  0.00    +0.000 HD
ENDBRANCH   6   7
BRANCH   3  10
ATOM     10  O   UNL     1       3.645   7.257  17.890  0.00  0.00    +0.000 OA
ATOM     11  C   UNL     1       2.549   8.160  17.796  0.00  0.00    +0.000 C 
ENDBRANCH   3  10
BRANCH   1  12
ATOM     12  C   UNL     1       0.960   3.513  19.626  0.00  0.00    +0.000 C 
BRANCH  12  14
ATOM     13  C   UNL     1       2.392   2.700  21.533  0.00  0.00    +0.000 C 
ATOM     14  C   UNL     1       1.351   3.716  21.090  0.00  0.00    +0.000 C 
ENDBRANCH  12  14
ENDBRANCH   1  12
BRANCH   4  15
ATOM     15  O   UNL     1       5.005   5.674  16.247  0.00  0.00    +0.000 OA
BRANCH  15  16
ATOM     16  C   UNL     1       6.375   5.325  16.432  0.00  0.00    +0.000 C 
BRANCH  16  17
ATOM     17  C   UNL     1       6.983   4.901  15.101  0.00  0.00    +0.000 C 
ATOM     18  O   UNL     1       7.836   5.506  14.469  0.00  0.00    +0.000 OA
BRANCH  17  19
ATOM     19  O   UNL     1       6.410   3.727  14.681  0.00  0.00    +0.000 OA
ATOM     20  C   UNL     1       6.028   3.738  13.303  0.00  0.00    +0.000 C 
ENDBRANCH  17  19
ENDBRANCH  16  17
ENDBRANCH  15  16
ENDBRANCH   4  15
TORSDOF 8
ENDMDL
MODEL 2
REMARK VINA RESULT:      -6.4      1.615      2.362
REMARK  Name = 
REMARK  11 active torsions:
REMARK  status: ('A' for Active; 'I' for Inactive)
REMARK    1  A    between atoms: C_1  and  C_2
REMARK    2  A    between atoms: C_2  and  C_3
REMARK    3  A    between atoms: C_3  and  C_4
REMARK    4  A    between atoms: C_6  and  O_7
REMARK    5  A    between atoms: O_7  and  C_8
REMARK    6  A    between atoms: C_9  and  O_10
REMARK    7  A    between atoms: O_10  and  C_11
REMARK    8  A    between atoms: C_11  and  C_12
REMARK    9  A    between atoms: C_12  and  O_14
REMARK   10  A    between atoms: O_14  and  C_15
REMARK   11  A    between atoms: C_17  and  N_18
REMARK                            x       y       z     vdW  Elec       q    Type
REMARK                         _______ _______ _______ _____ _____    ______ ____
ROOT
ATOM      1  C   UNL     1       2.296   3.815  18.427  0.00  0.00    +0.000 A 
ATOM      2  C   UNL     1       2.460   5.201  18.276  0.00  0.00    +0.000 A 
ATOM      3  C   UNL     1       3.565   5.743  17.617  0.00  0.00    +0.000 A 
ATOM      4  C   UNL     1       4.541   4.878  17.095  0.00  0.00    +0.000 A 
ATOM      5  C   UNL     1       4.376   3.493  17.236  0.00  0.00    +0.000 A 
ATOM      6  C   UNL     1       3.287   2.949  17.942  0.00  0.00    +0.000 A 
ENDROOT
BRANCH   6   7
ATOM      7  N   UNL     1       3.105   1.558  17.936  0.00  0.00    +0.000 N 
ATOM      8  H   UNL     1       3.553   1.073  18.707  0.00  0.00    +0.000 HD
ATOM      9  H   UNL     1       2.142   1.264  17.813  0.00  0.00    +0.000 HD
ENDBRANCH   6   7
BRANCH   3  10
ATOM     10  O   UNL     1       3.756   7.091  17.443  0.00  0.00    +0.000 OA
ATOM     11  C   UNL     1       2.719   7.949  17.906  0.00  0.00    +0.000 C 
ENDBRANCH   3  10
BRANCH   1  12
ATOM     12  C   UNL     1       1.062   3.346  19.165  0.00  0.00    +0.000 C 
BRANCH  12  14
ATOM     13  C   UNL     1       1.880   2.728  21.467  0.00  0.00    +0.000 C 
ATOM     14  C   UNL     1       1.121   3.753  20.638  0.00  0.00    +0.000 C 
ENDBRANCH  12  14
ENDBRANCH   1  12
BRANCH   4  15
ATOM     15  O   UNL     1       5.574   5.459  16.402  0.00  0.00    +0.000 OA
BRANCH  15  16
ATOM     16  C   UNL     1       6.902   5.168  16.830  0.00  0.00    +0.000 C 
BRANCH  16  17
ATOM     17  C   UNL     1       7.418   6.293  17.717  0.00  0.00    +0.000 C 
ATOM     18  O   UNL     1       7.713   6.207  18.899  0.00  0.00    +0.000 OA
BRANCH  17  19
ATOM     19  O   UNL     1       7.482   7.460  16.996  0.00  0.00    +0.000 OA
ATOM     20  C   UNL     1       7.935   8.580  17.762  0.00  0.00    +0.000 C 
ENDBRANCH  17  19
ENDBRANCH  16  17
ENDBRANCH  15  16
ENDBRANCH   4  15
TORSDOF 8
ENDMDL
MODEL 3
REMARK VINA RESULT:      -6.4      1.180      1.564
REMARK  Name = 
REMARK  11 active torsions:
REMARK  status: ('A' for Active; 'I' for Inactive)
REMARK    1  A    between atoms: C_1  and  C_2
REMARK    2  A    between atoms: C_2  and  C_3
REMARK    3  A    between atoms: C_3  and  C_4
REMARK    4  A    between atoms: C_6  and  O_7
REMARK    5  A    between atoms: O_7  and  C_8
REMARK    6  A    between atoms: C_9  and  O_10
REMARK    7  A    between atoms: O_10  and  C_11
REMARK    8  A    between atoms: C_11  and  C_12
REMARK    9  A    between atoms: C_12  and  O_14
REMARK   10  A    between atoms: O_14  and  C_15
REMARK   11  A    between atoms: C_17  and  N_18
REMARK                            x       y       z     vdW  Elec       q    Type
REMARK                         _______ _______ _______ _____ _____    ______ ____
ROOT
ATOM      1  C   UNL     1       2.300   3.203  18.645  0.00  0.00    +0.000 A 
ATOM      2  C   UNL     1       2.022   4.577  18.565  0.00  0.00    +0.000 A 
ATOM      3  C   UNL     1       2.837   5.451  17.844  0.00  0.00    +0.000 A 
ATOM      4  C   UNL     1       3.969   4.942  17.186  0.00  0.00    +0.000 A 
ATOM      5  C   UNL     1       4.246   3.570  17.257  0.00  0.00    +0.000 A 
ATOM      6  C   UNL     1       3.451   2.698  18.023  0.00  0.00    +0.000 A 
ENDROOT
BRANCH   6   7
ATOM      7  N   UNL     1       3.697   1.318  17.949  0.00  0.00    +0.000 N 
ATOM      8  H   UNL     1       4.412   1.056  17.279  0.00  0.00    +0.000 HD
ATOM      9  H   UNL     1       3.839   0.871  18.848  0.00  0.00    +0.000 HD
ENDBRANCH   6   7
BRANCH   3  10
ATOM     10  O   UNL     1       2.594   6.798  17.736  0.00  0.00    +0.000 OA
ATOM     11  C   UNL     1       2.443   7.520  18.953  0.00  0.00    +0.000 C 
ENDBRANCH   3  10
BRANCH   1  12
ATOM     12  C   UNL     1       1.349   2.357  19.461  0.00  0.00    +0.000 C 
BRANCH  12  14
ATOM     13  C   UNL     1       2.221   2.735  21.794  0.00  0.00    +0.000 C 
ATOM     14  C   UNL     1       1.081   2.998  20.823  0.00  0.00    +0.000 C 
ENDBRANCH  12  14
ENDBRANCH   1  12
BRANCH   4  15
ATOM     15  O   UNL     1       4.701   5.833  16.440  0.00  0.00    +0.000 OA
BRANCH  15  16
ATOM     16  C   UNL     1       6.060   6.050  16.816  0.00  0.00    +0.000 C 
BRANCH  16  17
ATOM     17  C   UNL     1       6.985   5.315  15.855  0.00  0.00    +0.000 C 
ATOM     18  O   UNL     1       6.984   5.405  14.638  0.00  0.00    +0.000 OA
BRANCH  17  19
ATOM     19  O   UNL     1       7.829   4.494  16.560  0.00  0.00    +0.000 OA
ATOM     20  C   UNL     1       7.713   4.636  17.979  0.00  0.00    +0.000 C 
ENDBRANCH  17  19
ENDBRANCH  16  17
ENDBRANCH  15  16
ENDBRANCH   4  15
TORSDOF 8
ENDMDL
MODEL 4
REMARK VINA RESULT:      -6.3      1.273      1.854
REMARK  Name = 
REMARK  11 active torsions:
REMARK  status: ('A' for Active; 'I' for Inactive)
REMARK    1  A    between atoms: C_1  and  C_2
REMARK    2  A    between atoms: C_2  and  C_3
REMARK    3  A    between atoms: C_3  and  C_4
REMARK    4  A    between atoms: C_6  and  O_7
REMARK    5  A    between atoms: O_7  and  C_8
REMARK    6  A    between atoms: C_9  and  O_10
REMARK    7  A    between atoms: O_10  and  C_11
REMARK    8  A    between atoms: C_11  and  C_12
REMARK    9  A    between atoms: C_12  and  O_14
REMARK   10  A    between atoms: O_14  and  C_15
REMARK   11  A    between atoms: C_17  and  N_18
REMARK                            x       y       z     vdW  Elec       q    Type
REMARK                         _______ _______ _______ _____ _____    ______ ____
ROOT
ATOM      1  C   UNL     1       1.983   3.531  18.769  0.00  0.00    +0.000 A 
ATOM      2  C   UNL     1       1.979   4.924  18.588  0.00  0.00    +0.000 A 
ATOM      3  C   UNL     1       2.955   5.568  17.827  0.00  0.00    +0.000 A 
ATOM      4  C   UNL     1       3.972   4.803  17.231  0.00  0.00    +0.000 A 
ATOM      5  C   UNL     1       3.975   3.412  17.403  0.00  0.00    +0.000 A 
ATOM      6  C   UNL     1       3.018   2.769  18.210  0.00  0.00    +0.000 A 
ENDROOT
BRANCH   6   7
ATOM      7  N   UNL     1       2.991   1.366  18.237  0.00  0.00    +0.000 N 
ATOM      8  H   UNL     1       3.510   0.952  19.003  0.00  0.00    +0.000 HD
ATOM      9  H   UNL     1       2.064   0.965  18.147  0.00  0.00    +0.000 HD
ENDBRANCH   6   7
BRANCH   3  10
ATOM     10  O   UNL     1       2.980   6.925  17.620  0.00  0.00    +0.000 OA
ATOM     11  C   UNL     1       2.445   7.740  18.658  0.00  0.00    +0.000 C 
ENDBRANCH   3  10
BRANCH   1  12
ATOM     12  C   UNL     1       0.877   2.946  19.619  0.00  0.00    +0.000 C 
BRANCH  12  14
ATOM     13  C   UNL     1       2.171   3.611  21.676  0.00  0.00    +0.000 C 
ATOM     14  C   UNL     1       1.416   2.493  20.976  0.00  0.00    +0.000 C 
ENDBRANCH  12  14
ENDBRANCH   1  12
BRANCH   4  15
ATOM     15  O   UNL     1       4.870   5.479  16.442  0.00  0.00    +0.000 OA
BRANCH  15  16
ATOM     16  C   UNL     1       5.936   4.729  15.864  0.00  0.00    +0.000 C 
BRANCH  16  17
ATOM     17  C   UNL     1       7.250   5.088  16.545  0.00  0.00    +0.000 C 
ATOM     18  O   UNL     1       7.958   4.335  17.195  0.00  0.00    +0.000 OA
BRANCH  17  19
ATOM     19  O   UNL     1       7.527   6.417  16.346  0.00  0.00    +0.000 OA
ATOM     20  C   UNL     1       7.510   7.191  17.550  0.00  0.00    +0.000 C 
ENDBRANCH  17  19
ENDBRANCH  16  17
ENDBRANCH  15  16
ENDBRANCH   4  15
TORSDOF 8
ENDMDL
MODEL 5
REMARK VINA RESULT:      -6.3      1.940      2.269
REMARK  Name = 
REMARK  11 active torsions:
REMARK  status: ('A' for Active; 'I' for Inactive)
REMARK    1  A    between atoms: C_1  and  C_2
REMARK    2  A    between atoms: C_2  and  C_3
REMARK    3  A    between atoms: C_3  and  C_4
REMARK    4  A    between atoms: C_6  and  O_7
REMARK    5  A    between atoms: O_7  and  C_8
REMARK    6  A    between atoms: C_9  and  O_10
REMARK    7  A    between atoms: O_10  and  C_11
REMARK    8  A    between atoms: C_11  and  C_12
REMARK    9  A    between atoms: C_12  and  O_14
REMARK   10  A    between atoms: O_14  and  C_15
REMARK   11  A    between atoms: C_17  and  N_18
REMARK                            x       y       z     vdW  Elec       q    Type
REMARK                         _______ _______ _______ _____ _____    ______ ____
ROOT
ATOM      1  C   UNL     1       3.154   4.576  19.302  0.00  0.00    +0.000 A 
ATOM      2  C   UNL     1       4.548   4.680  19.436  0.00  0.00    +0.000 A 
ATOM      3  C   UNL     1       5.414   4.352  18.392  0.00  0.00    +0.000 A 
ATOM      4  C   UNL     1       4.876   3.899  17.176  0.00  0.00    +0.000 A 
ATOM      5  C   UNL     1       3.485   3.800  17.035  0.00  0.00    +0.000 A 
ATOM      6  C   UNL     1       2.615   4.086  18.103  0.00  0.00    +0.000 A 
ENDROOT
BRANCH   6   7
ATOM      7  N   UNL     1       1.232   4.099  17.863  0.00  0.00    +0.000 N 
ATOM      8  H   UNL     1       0.662   4.009  18.697  0.00  0.00    +0.000 HD
ATOM      9  H   UNL     1       0.919   4.860  17.271  0.00  0.00    +0.000 HD
ENDBRANCH   6   7
BRANCH   3  10
ATOM     10  O   UNL     1       6.780   4.448  18.483  0.00  0.00    +0.000 OA
ATOM     11  C   UNL     1       7.323   5.760  18.582  0.00  0.00    +0.000 C 
ENDBRANCH   3  10
BRANCH   1  12
ATOM     12  C   UNL     1       2.318   4.955  20.503  0.00  0.00    +0.000 C 
BRANCH  12  14
ATOM     13  C   UNL     1       1.266   2.797  21.268  0.00  0.00    +0.000 C 
ATOM     14  C   UNL     1       2.335   3.841  21.551  0.00  0.00    +0.000 C 
ENDBRANCH  12  14
ENDBRANCH   1  12
BRANCH   4  15
ATOM     15  O   UNL     1       5.768   3.648  16.162  0.00  0.00    +0.000 OA
BRANCH  15  16
ATOM     16  C   UNL     1       5.553   4.307  14.916  0.00  0.00    +0.000 C 
BRANCH  16  17
ATOM     17  C   UNL     1       6.868   4.878  14.400  0.00  0.00    +0.000 C 
ATOM     18  O   UNL     1       7.620   5.625  15.006  0.00  0.00    +0.000 OA
BRANCH  17  19
ATOM     19  O   UNL     1       7.087   4.450  13.115  0.00  0.00    +0.000 OA
ATOM     20  C   UNL     1       6.098   3.531  12.641  0.00  0.00    +0.000 C 
ENDBRANCH  17  19
ENDBRANCH  16  17
ENDBRANCH  15  16
ENDBRANCH   4  15
TORSDOF 8
ENDMDL
MODEL 6
REMARK VINA RESULT:      -6.2      1.285      1.470
REMARK  Name = 
REMARK  11 active torsions:
REMARK  status: ('A' for Active; 'I' for Inactive)
REMARK    1  A    between atoms: C_1  and  C_2
REMARK    2  A    between atoms: C_2  and  C_3
REMARK    3  A    between atoms: C_3  and  C_4
REMARK    4  A    between atoms: C_6  and  O_7
REMARK    5  A    between atoms: O_7  and  C_8
REMARK    6  A    between atoms: C_9  and  O_10
REMARK    7  A    between atoms: O_10  and  C_11
REMARK    8  A    between atoms: C_11  and  C_12
REMARK    9  A    between atoms: C_12  and  O_14
REMARK   10  A    between atoms: O_14  and  C_15
REMARK   11  A    between atoms: C_17  and  N_18
REMARK                            x       y       z     vdW  Elec       q    Type
REMARK                         _______ _______ _______ _____ _____    ______ ____
ROOT
ATOM      1  C   UNL     1       3.371   4.369  19.694  0.00  0.00    +0.000 A 
ATOM      2  C   UNL     1       3.072   5.641  19.180  0.00  0.00    +0.000 A 
ATOM      3  C   UNL     1       3.844   6.227  18.176  0.00  0.00    +0.000 A 
ATOM      4  C   UNL     1       4.953   5.527  17.670  0.00  0.00    +0.000 A 
ATOM      5  C   UNL     1       5.249   4.254  18.175  0.00  0.00    +0.000 A 
ATOM      6  C   UNL     1       4.499   3.684  19.221  0.00  0.00    +0.000 A 
ENDROOT
BRANCH   6   7
ATOM      7  N   UNL     1       4.759   2.356  19.593  0.00  0.00    +0.000 N 
ATOM      8  H   UNL     1       4.196   1.667  19.105  0.00  0.00    +0.000 HD
ATOM      9  H   UNL     1       5.742   2.108  19.595  0.00  0.00    +0.000 HD
ENDBRANCH   6   7
BRANCH   3  10
ATOM     10  O   UNL     1       3.580   7.464  17.643  0.00  0.00    +0.000 OA
ATOM     11  C   UNL     1       2.374   8.096  18.060  0.00  0.00    +0.000 C 
ENDBRANCH   3  10
BRANCH   1  12
ATOM     12  C   UNL     1       2.466   3.840  20.785  0.00  0.00    +0.000 C 
BRANCH  12  14
ATOM     13  C   UNL     1       0.913   2.686  19.171  0.00  0.00    +0.000 C 
ATOM     14  C   UNL     1       1.026   3.715  20.284  0.00  0.00    +0.000 C 
ENDBRANCH  12  14
ENDBRANCH   1  12
BRANCH   4  15
ATOM     15  O   UNL     1       5.640   6.122  16.641  0.00  0.00    +0.000 OA
BRANCH  15  16
ATOM     16  C   UNL     1       5.437   5.607  15.327  0.00  0.00    +0.000 C 
BRANCH  16  17
ATOM     17  C   UNL     1       6.716   4.947  14.827  0.00  0.00    +0.000 C 
ATOM     18  O   UNL     1       7.830   5.448  14.809  0.00  0.00    +0.000 OA
BRANCH  17  19
ATOM     19  O   UNL     1       6.437   3.687  14.361  0.00  0.00    +0.000 OA
ATOM     20  C   UNL     1       5.760   3.680  13.101  0.00  0.00    +0.000 C 
ENDBRANCH  17  19
ENDBRANCH  16  17
ENDBRANCH  15  16
ENDBRANCH   4  15
TORSDOF 8
ENDMDL
MODEL 7
REMARK VINA RESULT:      -6.2      0.838      1.153
REMARK  Name = 
REMARK  11 active torsions:
REMARK  status: ('A' for Active; 'I' for Inactive)
REMARK    1  A    between atoms: C_1  and  C_2
REMARK    2  A    between atoms: C_2  and  C_3
REMARK    3  A    between atoms: C_3  and  C_4
REMARK    4  A    between atoms: C_6  and  O_7
REMARK    5  A    between atoms: O_7  and  C_8
REMARK    6  A    between atoms: C_9  and  O_10
REMARK    7  A    between atoms: O_10  and  C_11
REMARK    8  A    between atoms: C_11  and  C_12
REMARK    9  A    between atoms: C_12  and  O_14
REMARK   10  A    between atoms: O_14  and  C_15
REMARK   11  A    between atoms: C_17  and  N_18
REMARK                            x       y       z     vdW  Elec       q    Type
REMARK                         _______ _______ _______ _____ _____    ______ ____
ROOT
ATOM      1  C   UNL     1       2.261   3.777  18.513  0.00  0.00    +0.000 A 
ATOM      2  C   UNL     1       2.403   5.170  18.410  0.00  0.00    +0.000 A 
ATOM      3  C   UNL     1       3.517   5.752  17.801  0.00  0.00    +0.000 A 
ATOM      4  C   UNL     1       4.524   4.921  17.283  0.00  0.00    +0.000 A 
ATOM      5  C   UNL     1       4.381   3.529  17.376  0.00  0.00    +0.000 A 
ATOM      6  C   UNL     1       3.283   2.945  18.032  0.00  0.00    +0.000 A 
ENDROOT
BRANCH   6   7
ATOM      7  N   UNL     1       3.127   1.551  17.978  0.00  0.00    +0.000 N 
ATOM      8  H   UNL     1       2.170   1.241  17.846  0.00  0.00    +0.000 HD
ATOM      9  H   UNL     1       3.766   1.084  17.344  0.00  0.00    +0.000 HD
ENDBRANCH   6   7
BRANCH   3  10
ATOM     10  O   UNL     1       3.688   7.108  17.675  0.00  0.00    +0.000 OA
ATOM     11  C   UNL     1       2.581   7.928  18.035  0.00  0.00    +0.000 C 
ENDBRANCH   3  10
BRANCH   1  12
ATOM     12  C   UNL     1       1.015   3.263  19.198  0.00  0.00    +0.000 C 
BRANCH  12  14
ATOM     13  C   UNL     1       1.942   2.766  21.488  0.00  0.00    +0.000 C 
ATOM     14  C   UNL     1       1.008   3.651  20.677  0.00  0.00    +0.000 C 
ENDBRANCH  12  14
ENDBRANCH   1  12
BRANCH   4  15
ATOM     15  O   UNL     1       5.566   5.542  16.640  0.00  0.00    +0.000 OA
BRANCH  15  16
ATOM     16  C   UNL     1       5.482   5.675  15.222  0.00  0.00    +0.000 C 
BRANCH  16  17
ATOM     17  C   UNL     1       6.496   4.755  14.556  0.00  0.00    +0.000 C 
ATOM     18  O   UNL     1       6.340   3.571  14.299  0.00  0.00    +0.000 OA
BRANCH  17  19
ATOM     19  O   UNL     1       7.653   5.447  14.300  0.00  0.00    +0.000 OA
ATOM     20  C   UNL     1       8.045   5.417  12.925  0.00  0.00    +0.000 C 
ENDBRANCH  17  19
ENDBRANCH  16  17
ENDBRANCH  15  16
ENDBRANCH   4  15
TORSDOF 8
ENDMDL
MODEL 8
REMARK VINA RESULT:      -6.2      2.984      5.737
REMARK  Name = 
REMARK  11 active torsions:
REMARK  status: ('A' for Active; 'I' for Inactive)
REMARK    1  A    between atoms: C_1  and  C_2
REMARK    2  A    between atoms: C_2  and  C_3
REMARK    3  A    between atoms: C_3  and  C_4
REMARK    4  A    between atoms: C_6  and  O_7
REMARK    5  A    between atoms: O_7  and  C_8
REMARK    6  A    between atoms: C_9  and  O_10
REMARK    7  A    between atoms: O_10  and  C_11
REMARK    8  A    between atoms: C_11  and  C_12
REMARK    9  A    between atoms: C_12  and  O_14
REMARK   10  A    between atoms: O_14  and  C_15
REMARK   11  A    between atoms: C_17  and  N_18
REMARK                            x       y       z     vdW  Elec       q    Type
REMARK                         _______ _______ _______ _____ _____    ______ ____
ROOT
ATOM      1  C   UNL     1       6.266   5.782  17.839  0.00  0.00    +0.000 A 
ATOM      2  C   UNL     1       5.003   6.163  18.321  0.00  0.00    +0.000 A 
ATOM      3  C   UNL     1       3.851   5.435  18.018  0.00  0.00    +0.000 A 
ATOM      4  C   UNL     1       3.957   4.296  17.203  0.00  0.00    +0.000 A 
ATOM      5  C   UNL     1       5.217   3.909  16.726  0.00  0.00    +0.000 A 
ATOM      6  C   UNL     1       6.371   4.669  16.993  0.00  0.00    +0.000 A 
ENDROOT
BRANCH   6   7
ATOM      7  N   UNL     1       7.619   4.161  16.602  0.00  0.00    +0.000 N 
ATOM      8  H   UNL     1       7.572   3.418  15.914  0.00  0.00    +0.000 HD
ATOM      9  H   UNL     1       8.297   4.871  16.346  0.00  0.00    +0.000 HD
ENDBRANCH   6   7
BRANCH   3  10
ATOM     10  O   UNL     1       2.601   5.771  18.477  0.00  0.00    +0.000 OA
ATOM     11  C   UNL     1       2.546   6.622  19.617  0.00  0.00    +0.000 C 
ENDBRANCH   3  10
BRANCH   1  12
ATOM     12  C   UNL     1       7.440   6.651  18.230  0.00  0.00    +0.000 C 
BRANCH  12  14
ATOM     13  C   UNL     1       8.255   9.029  18.064  0.00  0.00    +0.000 C 
ATOM     14  C   UNL     1       7.495   7.912  17.367  0.00  0.00    +0.000 C 
ENDBRANCH  12  14
ENDBRANCH   1  12
BRANCH   4  15
ATOM     15  O   UNL     1       2.804   3.583  16.986  0.00  0.00    +0.000 OA
BRANCH  15  16
ATOM     16  C   UNL     1       2.678   2.319  17.635  0.00  0.00    +0.000 C 
BRANCH  16  17
ATOM     17  C   UNL     1       1.573   2.383  18.681  0.00  0.00    +0.000 C 
ATOM     18  O   UNL     1       0.381   2.203  18.486  0.00  0.00    +0.000 OA
BRANCH  17  19
ATOM     19  O   UNL     1       2.109   2.705  19.903  0.00  0.00    +0.000 OA
ATOM     20  C   UNL     1       1.171   3.314  20.795  0.00  0.00    +0.000 C 
ENDBRANCH  17  19
ENDBRANCH  16  17
ENDBRANCH  15  16
ENDBRANCH   4  15
TORSDOF 8
ENDMDL
MODEL 9
REMARK VINA RESULT:      -6.2      1.271      1.898
REMARK  Name = 
REMARK  11 active torsions:
REMARK  status: ('A' for Active; 'I' for Inactive)
REMARK    1  A    between atoms: C_1  and  C_2
REMARK    2  A    between atoms: C_2  and  C_3
REMARK    3  A    between atoms: C_3  and  C_4
REMARK    4  A    between atoms: C_6  and  O_7
REMARK    5  A    between atoms: O_7  and  C_8
REMARK    6  A    between atoms: C_9  and  O_10
REMARK    7  A    between atoms: O_10  and  C_11
REMARK    8  A    between atoms: C_11  and  C_12
REMARK    9  A    between atoms: C_12  and  O_14
REMARK   10  A    between atoms: O_14  and  C_15
REMARK   11  A    between atoms: C_17  and  N_18
REMARK                            x       y       z     vdW  Elec       q    Type
REMARK                         _______ _______ _______ _____ _____    ______ ____
ROOT
ATOM      1  C   UNL     1       2.134   4.321  18.762  0.00  0.00    +0.000 A 
ATOM      2  C   UNL     1       2.423   5.689  18.636  0.00  0.00    +0.000 A 
ATOM      3  C   UNL     1       3.388   6.157  17.742  0.00  0.00    +0.000 A 
ATOM      4  C   UNL     1       4.092   5.234  16.952  0.00  0.00    +0.000 A 
ATOM      5  C   UNL     1       3.800   3.867  17.069  0.00  0.00    +0.000 A 
ATOM      6  C   UNL     1       2.862   3.393  18.004  0.00  0.00    +0.000 A 
ENDROOT
BRANCH   6   7
ATOM      7  N   UNL     1       2.516   2.033  17.983  0.00  0.00    +0.000 N 
ATOM      8  H   UNL     1       1.535   1.848  18.161  0.00  0.00    +0.000 HD
ATOM      9  H   UNL     1       2.855   1.529  17.171  0.00  0.00    +0.000 HD
ENDBRANCH   6   7
BRANCH   3  10
ATOM     10  O   UNL     1       3.693   7.486  17.586  0.00  0.00    +0.000 OA
ATOM     11  C   UNL     1       2.682   8.421  17.947  0.00  0.00    +0.000 C 
ENDBRANCH   3  10
BRANCH   1  12
ATOM     12  C   UNL     1       1.073   3.934  19.768  0.00  0.00    +0.000 C 
BRANCH  12  14
ATOM     13  C   UNL     1       1.592   2.510  21.781  0.00  0.00    +0.000 C 
ATOM     14  C   UNL     1       1.649   3.907  21.184  0.00  0.00    +0.000 C 
ENDBRANCH  12  14
ENDBRANCH   1  12
BRANCH   4  15
ATOM     15  O   UNL     1       4.984   5.751  16.046  0.00  0.00    +0.000 OA
BRANCH  15  16
ATOM     16  C   UNL     1       6.255   5.114  15.933  0.00  0.00    +0.000 C 
BRANCH  16  17
ATOM     17  C   UNL     1       7.288   5.872  16.756  0.00  0.00    +0.000 C 
ATOM     18  O   UNL     1       7.659   7.021  16.572  0.00  0.00    +0.000 OA
BRANCH  17  19
ATOM     19  O   UNL     1       7.780   5.059  17.746  0.00  0.00    +0.000 OA
ATOM     20  C   UNL     1       7.588   5.581  19.064  0.00  0.00    +0.000 C 
ENDBRANCH  17  19
ENDBRANCH  16  17
ENDBRANCH  15  16
ENDBRANCH   4  15
TORSDOF 8
ENDMDL
