MODEL 1
REMARK VINA RESULT:      -7.4      0.000      0.000
REMARK  Name = 
REMARK  12 active torsions:
REMARK  status: ('A' for Active; 'I' for Inactive)
REMARK    1  A    between atoms: C_1  and  C_2
REMARK    2  A    between atoms: C_2  and  C_3
REMARK    3  A    between atoms: C_3  and  O_4
REMARK    4  A    between atoms: O_4  and  C_5
REMARK    5  A    between atoms: C_5  and  C_7
REMARK    6  A    between atoms: C_7  and  C_8
REMARK    7  A    between atoms: C_7  and  N_9
REMARK    8  A    between atoms: C_10  and  C_12
REMARK    9  A    between atoms: C_13  and  C_14
REMARK   10  A    between atoms: C_17  and  C_18
REMARK   11  A    between atoms: C_18  and  C_19
REMARK   12  A    between atoms: C_18  and  C_20
REMARK                            x       y       z     vdW  Elec       q    Type
REMARK                         _______ _______ _______ _____ _____    ______ ____
ROOT
ATOM      1  N   UNL     1       6.774   7.489  16.984  0.00  0.00    +0.000 N 
ATOM      2  C   UNL     1       7.736   7.689  17.940  0.00  0.00    +0.000 C 
ATOM      3  O   UNL     1       8.129   6.816  18.704  0.00  0.00    +0.000 OA
ATOM      4  H   UNL     1       6.505   8.232  16.351  0.00  0.00    +0.000 HD
ENDROOT
BRANCH   1   5
ATOM      5  C   UNL     1       6.104   6.195  16.839  0.00  0.00    +0.000 C 
ATOM      6  C   UNL     1       4.654   6.390  16.414  0.00  0.00    +0.000 C 
BRANCH   5   7
ATOM      7  C   UNL     1       6.808   5.227  15.876  0.00  0.00    +0.000 C 
ATOM      8  O   UNL     1       7.844   4.640  16.142  0.00  0.00    +0.000 OA
BRANCH   7   9
ATOM      9  O   UNL     1       6.172   5.165  14.666  0.00  0.00    +0.000 OA
BRANCH   9  10
ATOM     10  C   UNL     1       6.015   3.842  14.131  0.00  0.00    +0.000 C 
BRANCH  10  12
ATOM     11  C   UNL     1       5.456   3.005  11.844  0.00  0.00    +0.000 C 
ATOM     12  C   UNL     1       6.483   3.752  12.684  0.00  0.00    +0.000 C 
ENDBRANCH  10  12
ENDBRANCH   9  10
ENDBRANCH   7   9
ENDBRANCH   5   7
ENDBRANCH   1   5
BRANCH   2  13
ATOM     13  C   UNL     1       8.247   9.079  17.980  0.00  0.00    +0.000 C 
ATOM     14  C   UNL     1       9.099   9.441  18.950  0.00  0.00    +0.000 C 
BRANCH  14  15
ATOM     15  C   UNL     1       9.563  10.822  19.088  0.00  0.00    +0.000 A 
ATOM     16  C   UNL     1       9.841  11.577  17.947  0.00  0.00    +0.000 A 
ATOM     17  C   UNL     1      10.256  12.909  18.065  0.00  0.00    +0.000 A 
ATOM     18  C   UNL     1      10.394  13.510  19.324  0.00  0.00    +0.000 A 
ATOM     19  C   UNL     1      10.141  12.729  20.464  0.00  0.00    +0.000 A 
ATOM     20  C   UNL     1       9.728  11.398  20.347  0.00  0.00    +0.000 A 
BRANCH  18  21
ATOM     21  C   UNL     1      10.760  14.981  19.430  0.00  0.00    +0.000 C 
ATOM     22  C   UNL     1      12.272  15.166  19.604  0.00  0.00    +0.000 C 
ATOM     23  C   UNL     1      10.260  15.798  18.238  0.00  0.00    +0.000 C 
ENDBRANCH  18  21
ENDBRANCH  14  15
ENDBRANCH   2  13
TORSDOF 8
ENDMDL
MODEL 2
REMARK VINA RESULT:      -7.2      1.009      1.137
REMARK  Name = 
REMARK  12 active torsions:
REMARK  status: ('A' for Active; 'I' for Inactive)
REMARK    1  A    between atoms: C_1  and  C_2
REMARK    2  A    between atoms: C_2  and  C_3
REMARK    3  A    between atoms: C_3  and  O_4
REMARK    4  A    between atoms: O_4  and  C_5
REMARK    5  A    between atoms: C_5  and  C_7
REMARK    6  A    between atoms: C_7  and  C_8
REMARK    7  A    between atoms: C_7  and  N_9
REMARK    8  A    between atoms: C_10  and  C_12
REMARK    9  A    between atoms: C_13  and  C_14
REMARK   10  A    between atoms: C_17  and  C_18
REMARK   11  A    between atoms: C_18  and  C_19
REMARK   12  A    between atoms: C_18  and  C_20
REMARK                            x       y       z     vdW  Elec       q    Type
REMARK                         _______ _______ _______ _____ _____    ______ ____
ROOT
ATOM      1  N   UNL     1       6.689   6.958  17.042  0.00  0.00    +0.000 N 
ATOM      2  C   UNL     1       7.641   7.370  17.938  0.00  0.00    +0.000 C 
ATOM      3  O   UNL     1       8.069   6.672  18.848  0.00  0.00    +0.000 OA
ATOM      4  H   UNL     1       6.390   7.558  16.284  0.00  0.00    +0.000 HD
ENDROOT
BRANCH   1   5
ATOM      5  C   UNL     1       6.075   5.633  17.143  0.00  0.00    +0.000 C 
ATOM      6  C   UNL     1       4.635   5.674  16.646  0.00  0.00    +0.000 C 
BRANCH   5   7
ATOM      7  C   UNL     1       6.850   4.522  16.418  0.00  0.00    +0.000 C 
ATOM      8  O   UNL     1       8.013   4.241  16.655  0.00  0.00    +0.000 OA
BRANCH   7   9
ATOM      9  O   UNL     1       6.100   3.945  15.429  0.00  0.00    +0.000 OA
BRANCH   9  10
ATOM     10  C   UNL     1       6.451   4.338  14.095  0.00  0.00    +0.000 C 
BRANCH  10  12
ATOM     11  C   UNL     1       6.088   3.000  12.016  0.00  0.00    +0.000 C 
ATOM     12  C   UNL     1       5.422   3.872  13.072  0.00  0.00    +0.000 C 
ENDBRANCH  10  12
ENDBRANCH   9  10
ENDBRANCH   7   9
ENDBRANCH   5   7
ENDBRANCH   1   5
BRANCH   2  13
ATOM     13  C   UNL     1       8.094   8.764  17.717  0.00  0.00    +0.000 C 
ATOM     14  C   UNL     1       8.814   9.382  18.664  0.00  0.00    +0.000 C 
BRANCH  14  15
ATOM     15  C   UNL     1       9.208  10.785  18.534  0.00  0.00    +0.000 A 
ATOM     16  C   UNL     1       8.476  11.638  17.707  0.00  0.00    +0.000 A 
ATOM     17  C   UNL     1       8.825  12.989  17.598  0.00  0.00    +0.000 A 
ATOM     18  C   UNL     1       9.908  13.512  18.319  0.00  0.00    +0.000 A 
ATOM     19  C   UNL     1      10.655  12.636  19.123  0.00  0.00    +0.000 A 
ATOM     20  C   UNL     1      10.308  11.285  19.231  0.00  0.00    +0.000 A 
BRANCH  18  21
ATOM     21  C   UNL     1      10.218  14.999  18.257  0.00  0.00    +0.000 C 
ATOM     22  C   UNL     1      11.045  15.342  17.013  0.00  0.00    +0.000 C 
ATOM     23  C   UNL     1       8.958  15.864  18.312  0.00  0.00    +0.000 C 
ENDBRANCH  18  21
ENDBRANCH  14  15
ENDBRANCH   2  13
TORSDOF 8
ENDMDL
MODEL 3
REMARK VINA RESULT:      -7.1      5.324      7.645
REMARK  Name = 
REMARK  12 active torsions:
REMARK  status: ('A' for Active; 'I' for Inactive)
REMARK    1  A    between atoms: C_1  and  C_2
REMARK    2  A    between atoms: C_2  and  C_3
REMARK    3  A    between atoms: C_3  and  O_4
REMARK    4  A    between atoms: O_4  and  C_5
REMARK    5  A    between atoms: C_5  and  C_7
REMARK    6  A    between atoms: C_7  and  C_8
REMARK    7  A    between atoms: C_7  and  N_9
REMARK    8  A    between atoms: C_10  and  C_12
REMARK    9  A    between atoms: C_13  and  C_14
REMARK   10  A    between atoms: C_17  and  C_18
REMARK   11  A    between atoms: C_18  and  C_19
REMARK   12  A    between atoms: C_18  and  C_20
REMARK                            x       y       z     vdW  Elec       q    Type
REMARK                         _______ _______ _______ _____ _____    ______ ____
ROOT
ATOM      1  N   UNL     1       4.802   5.053  16.239  0.00  0.00    +0.000 N 
ATOM      2  C   UNL     1       3.964   4.400  17.107  0.00  0.00    +0.000 C 
ATOM      3  O   UNL     1       3.982   3.190  17.292  0.00  0.00    +0.000 OA
ATOM      4  H   UNL     1       4.774   6.060  16.144  0.00  0.00    +0.000 HD
ENDROOT
BRANCH   1   5
ATOM      5  C   UNL     1       5.772   4.318  15.425  0.00  0.00    +0.000 C 
ATOM      6  C   UNL     1       5.250   4.142  14.005  0.00  0.00    +0.000 C 
BRANCH   5   7
ATOM      7  C   UNL     1       7.173   4.947  15.395  0.00  0.00    +0.000 C 
ATOM      8  O   UNL     1       7.734   5.305  14.372  0.00  0.00    +0.000 OA
BRANCH   7   9
ATOM      9  O   UNL     1       7.738   4.984  16.641  0.00  0.00    +0.000 OA
BRANCH   9  10
ATOM     10  C   UNL     1       7.537   6.209  17.361  0.00  0.00    +0.000 C 
BRANCH  10  12
ATOM     11  C   UNL     1       6.484   5.381  19.471  0.00  0.00    +0.000 C 
ATOM     12  C   UNL     1       7.722   6.026  18.862  0.00  0.00    +0.000 C 
ENDBRANCH  10  12
ENDBRANCH   9  10
ENDBRANCH   7   9
ENDBRANCH   5   7
ENDBRANCH   1   5
BRANCH   2  13
ATOM     13  C   UNL     1       3.006   5.302  17.790  0.00  0.00    +0.000 C 
ATOM     14  C   UNL     1       3.325   6.592  17.966  0.00  0.00    +0.000 C 
BRANCH  14  15
ATOM     15  C   UNL     1       2.456   7.502  18.712  0.00  0.00    +0.000 A 
ATOM     16  C   UNL     1       2.162   7.238  20.051  0.00  0.00    +0.000 A 
ATOM     17  C   UNL     1       1.356   8.118  20.785  0.00  0.00    +0.000 A 
ATOM     18  C   UNL     1       0.835   9.278  20.194  0.00  0.00    +0.000 A 
ATOM     19  C   UNL     1       1.113   9.513  18.837  0.00  0.00    +0.000 A 
ATOM     20  C   UNL     1       1.916   8.635  18.104  0.00  0.00    +0.000 A 
BRANCH  18  21
ATOM     21  C   UNL     1       0.036  10.265  21.028  0.00  0.00    +0.000 C 
ATOM     22  C   UNL     1      -0.035   9.824  22.494  0.00  0.00    +0.000 C 
ATOM     23  C   UNL     1       0.580  11.692  20.930  0.00  0.00    +0.000 C 
ENDBRANCH  18  21
ENDBRANCH  14  15
ENDBRANCH   2  13
TORSDOF 8
ENDMDL
MODEL 4
REMARK VINA RESULT:      -7.0      4.505      7.632
REMARK  Name = 
REMARK  12 active torsions:
REMARK  status: ('A' for Active; 'I' for Inactive)
REMARK    1  A    between atoms: C_1  and  C_2
REMARK    2  A    between atoms: C_2  and  C_3
REMARK    3  A    between atoms: C_3  and  O_4
REMARK    4  A    between atoms: O_4  and  C_5
REMARK    5  A    between atoms: C_5  and  C_7
REMARK    6  A    between atoms: C_7  and  C_8
REMARK    7  A    between atoms: C_7  and  N_9
REMARK    8  A    between atoms: C_10  and  C_12
REMARK    9  A    between atoms: C_13  and  C_14
REMARK   10  A    between atoms: C_17  and  C_18
REMARK   11  A    between atoms: C_18  and  C_19
REMARK   12  A    between atoms: C_18  and  C_20
REMARK                            x       y       z     vdW  Elec       q    Type
REMARK                         _______ _______ _______ _____ _____    ______ ____
ROOT
ATOM      1  N   UNL     1       4.774   5.095  16.517  0.00  0.00    +0.000 N 
ATOM      2  C   UNL     1       3.854   4.577  17.391  0.00  0.00    +0.000 C 
ATOM      3  O   UNL     1       3.846   3.410  17.760  0.00  0.00    +0.000 OA
ATOM      4  H   UNL     1       4.763   6.076  16.267  0.00  0.00    +0.000 HD
ENDROOT
BRANCH   1   5
ATOM      5  C   UNL     1       5.812   4.252  15.919  0.00  0.00    +0.000 C 
ATOM      6  C   UNL     1       5.450   3.904  14.481  0.00  0.00    +0.000 C 
BRANCH   5   7
ATOM      7  C   UNL     1       7.223   4.855  15.975  0.00  0.00    +0.000 C 
ATOM      8  O   UNL     1       7.756   5.422  15.034  0.00  0.00    +0.000 OA
BRANCH   7   9
ATOM      9  O   UNL     1       7.830   4.613  17.177  0.00  0.00    +0.000 OA
BRANCH   9  10
ATOM     10  C   UNL     1       7.281   5.334  18.289  0.00  0.00    +0.000 C 
BRANCH  10  12
ATOM     11  C   UNL     1       7.647   7.727  17.666  0.00  0.00    +0.000 C 
ATOM     12  C   UNL     1       8.074   6.599  18.597  0.00  0.00    +0.000 C 
ENDBRANCH  10  12
ENDBRANCH   9  10
ENDBRANCH   7   9
ENDBRANCH   5   7
ENDBRANCH   1   5
BRANCH   2  13
ATOM     13  C   UNL     1       2.843   5.565  17.836  0.00  0.00    +0.000 C 
ATOM     14  C   UNL     1       3.217   6.831  18.075  0.00  0.00    +0.000 C 
BRANCH  14  15
ATOM     15  C   UNL     1       2.279   7.822  18.601  0.00  0.00    +0.000 A 
ATOM     16  C   UNL     1       1.931   7.798  19.952  0.00  0.00    +0.000 A 
ATOM     17  C   UNL     1       1.057   8.760  20.474  0.00  0.00    +0.000 A 
ATOM     18  C   UNL     1       0.522   9.765  19.655  0.00  0.00    +0.000 A 
ATOM     19  C   UNL     1       0.856   9.757  18.291  0.00  0.00    +0.000 A 
ATOM     20  C   UNL     1       1.727   8.795  17.769  0.00  0.00    +0.000 A 
BRANCH  18  21
ATOM     21  C   UNL     1      -0.354  10.852  20.256  0.00  0.00    +0.000 C 
ATOM     22  C   UNL     1       0.235  11.376  21.570  0.00  0.00    +0.000 C 
ATOM     23  C   UNL     1      -0.601  12.009  19.287  0.00  0.00    +0.000 C 
ENDBRANCH  18  21
ENDBRANCH  14  15
ENDBRANCH   2  13
TORSDOF 8
ENDMDL
MODEL 5
REMARK VINA RESULT:      -7.0      0.954      1.615
REMARK  Name = 
REMARK  12 active torsions:
REMARK  status: ('A' for Active; 'I' for Inactive)
REMARK    1  A    between atoms: C_1  and  C_2
REMARK    2  A    between atoms: C_2  and  C_3
REMARK    3  A    between atoms: C_3  and  O_4
REMARK    4  A    between atoms: O_4  and  C_5
REMARK    5  A    between atoms: C_5  and  C_7
REMARK    6  A    between atoms: C_7  and  C_8
REMARK    7  A    between atoms: C_7  and  N_9
REMARK    8  A    between atoms: C_10  and  C_12
REMARK    9  A    between atoms: C_13  and  C_14
REMARK   10  A    between atoms: C_17  and  C_18
REMARK   11  A    between atoms: C_18  and  C_19
REMARK   12  A    between atoms: C_18  and  C_20
REMARK                            x       y       z     vdW  Elec       q    Type
REMARK                         _______ _______ _______ _____ _____    ______ ____
ROOT
ATOM      1  N   UNL     1       6.940   7.056  16.603  0.00  0.00    +0.000 N 
ATOM      2  C   UNL     1       7.648   7.363  17.736  0.00  0.00    +0.000 C 
ATOM      3  O   UNL     1       7.994   6.535  18.570  0.00  0.00    +0.000 OA
ATOM      4  H   UNL     1       6.706   7.770  15.924  0.00  0.00    +0.000 HD
ENDROOT
BRANCH   1   5
ATOM      5  C   UNL     1       6.503   5.686  16.328  0.00  0.00    +0.000 C 
ATOM      6  C   UNL     1       5.010   5.541  16.591  0.00  0.00    +0.000 C 
BRANCH   5   7
ATOM      7  C   UNL     1       6.839   5.189  14.914  0.00  0.00    +0.000 C 
ATOM      8  O   UNL     1       7.869   5.471  14.323  0.00  0.00    +0.000 OA
BRANCH   7   9
ATOM      9  O   UNL     1       5.814   4.459  14.378  0.00  0.00    +0.000 OA
BRANCH   9  10
ATOM     10  C   UNL     1       6.218   3.422  13.471  0.00  0.00    +0.000 C 
BRANCH  10  12
ATOM     11  C   UNL     1       5.423   2.137  11.481  0.00  0.00    +0.000 C 
ATOM     12  C   UNL     1       5.481   3.508  12.140  0.00  0.00    +0.000 C 
ENDBRANCH  10  12
ENDBRANCH   9  10
ENDBRANCH   7   9
ENDBRANCH   5   7
ENDBRANCH   1   5
BRANCH   2  13
ATOM     13  C   UNL     1       7.940   8.809  17.875  0.00  0.00    +0.000 C 
ATOM     14  C   UNL     1       8.859   9.215  18.763  0.00  0.00    +0.000 C 
BRANCH  14  15
ATOM     15  C   UNL     1       9.120  10.634  19.002  0.00  0.00    +0.000 A 
ATOM     16  C   UNL     1       9.513  11.063  20.271  0.00  0.00    +0.000 A 
ATOM     17  C   UNL     1       9.795  12.414  20.506  0.00  0.00    +0.000 A 
ATOM     18  C   UNL     1       9.696  13.358  19.474  0.00  0.00    +0.000 A 
ATOM     19  C   UNL     1       9.270  12.918  18.210  0.00  0.00    +0.000 A 
ATOM     20  C   UNL     1       8.986  11.569  17.976  0.00  0.00    +0.000 A 
BRANCH  18  21
ATOM     21  C   UNL     1      10.091  14.804  19.723  0.00  0.00    +0.000 C 
ATOM     22  C   UNL     1       8.861  15.718  19.754  0.00  0.00    +0.000 C 
ATOM     23  C   UNL     1      10.911  14.976  21.003  0.00  0.00    +0.000 C 
ENDBRANCH  18  21
ENDBRANCH  14  15
ENDBRANCH   2  13
TORSDOF 8
ENDMDL
MODEL 6
REMARK VINA RESULT:      -6.9      4.851      7.721
REMARK  Name = 
REMARK  12 active torsions:
REMARK  status: ('A' for Active; 'I' for Inactive)
REMARK    1  A    between atoms: C_1  and  C_2
REMARK    2  A    between atoms: C_2  and  C_3
REMARK    3  A    between atoms: C_3  and  O_4
REMARK    4  A    between atoms: O_4  and  C_5
REMARK    5  A    between atoms: C_5  and  C_7
REMARK    6  A    between atoms: C_7  and  C_8
REMARK    7  A    between atoms: C_7  and  N_9
REMARK    8  A    between atoms: C_10  and  C_12
REMARK    9  A    between atoms: C_13  and  C_14
REMARK   10  A    between atoms: C_17  and  C_18
REMARK   11  A    between atoms: C_18  and  C_19
REMARK   12  A    between atoms: C_18  and  C_20
REMARK                            x       y       z     vdW  Elec       q    Type
REMARK                         _______ _______ _______ _____ _____    ______ ____
ROOT
ATOM      1  N   UNL     1       4.829   5.128  16.154  0.00  0.00    +0.000 N 
ATOM      2  C   UNL     1       4.087   4.513  17.130  0.00  0.00    +0.000 C 
ATOM      3  O   UNL     1       4.188   3.328  17.418  0.00  0.00    +0.000 OA
ATOM      4  H   UNL     1       4.736   6.120  15.974  0.00  0.00    +0.000 HD
ENDROOT
BRANCH   1   5
ATOM      5  C   UNL     1       5.788   4.376  15.343  0.00  0.00    +0.000 C 
ATOM      6  C   UNL     1       5.193   4.054  13.978  0.00  0.00    +0.000 C 
BRANCH   5   7
ATOM      7  C   UNL     1       7.149   5.068  15.173  0.00  0.00    +0.000 C 
ATOM      8  O   UNL     1       7.767   5.098  14.121  0.00  0.00    +0.000 OA
BRANCH   7   9
ATOM      9  O   UNL     1       7.610   5.575  16.357  0.00  0.00    +0.000 OA
BRANCH   9  10
ATOM     10  C   UNL     1       7.681   4.629  17.435  0.00  0.00    +0.000 C 
BRANCH  10  12
ATOM     11  C   UNL     1       7.975   6.795  18.647  0.00  0.00    +0.000 C 
ATOM     12  C   UNL     1       7.660   5.312  18.796  0.00  0.00    +0.000 C 
ENDBRANCH  10  12
ENDBRANCH   9  10
ENDBRANCH   7   9
ENDBRANCH   5   7
ENDBRANCH   1   5
BRANCH   2  13
ATOM     13  C   UNL     1       3.123   5.420  17.796  0.00  0.00    +0.000 C 
ATOM     14  C   UNL     1       3.361   6.740  17.813  0.00  0.00    +0.000 C 
BRANCH  14  15
ATOM     15  C   UNL     1       2.489   7.667  18.532  0.00  0.00    +0.000 A 
ATOM     16  C   UNL     1       2.169   7.423  19.869  0.00  0.00    +0.000 A 
ATOM     17  C   UNL     1       1.360   8.319  20.578  0.00  0.00    +0.000 A 
ATOM     18  C   UNL     1       0.862   9.478  19.964  0.00  0.00    +0.000 A 
ATOM     19  C   UNL     1       1.166   9.695  18.610  0.00  0.00    +0.000 A 
ATOM     20  C   UNL     1       1.973   8.799  17.901  0.00  0.00    +0.000 A 
BRANCH  18  21
ATOM     21  C   UNL     1       0.059  10.484  20.772  0.00  0.00    +0.000 C 
ATOM     22  C   UNL     1      -1.097  11.062  19.948  0.00  0.00    +0.000 C 
ATOM     23  C   UNL     1      -0.467   9.897  22.083  0.00  0.00    +0.000 C 
ENDBRANCH  18  21
ENDBRANCH  14  15
ENDBRANCH   2  13
TORSDOF 8
ENDMDL
MODEL 7
REMARK VINA RESULT:      -6.8      1.364      2.036
REMARK  Name = 
REMARK  12 active torsions:
REMARK  status: ('A' for Active; 'I' for Inactive)
REMARK    1  A    between atoms: C_1  and  C_2
REMARK    2  A    between atoms: C_2  and  C_3
REMARK    3  A    between atoms: C_3  and  O_4
REMARK    4  A    between atoms: O_4  and  C_5
REMARK    5  A    between atoms: C_5  and  C_7
REMARK    6  A    between atoms: C_7  and  C_8
REMARK    7  A    between atoms: C_7  and  N_9
REMARK    8  A    between atoms: C_10  and  C_12
REMARK    9  A    between atoms: C_13  and  C_14
REMARK   10  A    between atoms: C_17  and  C_18
REMARK   11  A    between atoms: C_18  and  C_19
REMARK   12  A    between atoms: C_18  and  C_20
REMARK                            x       y       z     vdW  Elec       q    Type
REMARK                         _______ _______ _______ _____ _____    ______ ____
ROOT
ATOM      1  N   UNL     1       7.086   6.104  16.954  0.00  0.00    +0.000 N 
ATOM      2  C   UNL     1       7.729   6.014  18.162  0.00  0.00    +0.000 C 
ATOM      3  O   UNL     1       7.934   4.959  18.748  0.00  0.00    +0.000 OA
ATOM      4  H   UNL     1       6.969   6.996  16.490  0.00  0.00    +0.000 HD
ENDROOT
BRANCH   1   5
ATOM      5  C   UNL     1       6.552   4.915  16.288  0.00  0.00    +0.000 C 
ATOM      6  C   UNL     1       5.034   4.873  16.410  0.00  0.00    +0.000 C 
BRANCH   5   7
ATOM      7  C   UNL     1       6.964   4.780  14.814  0.00  0.00    +0.000 C 
ATOM      8  O   UNL     1       7.671   5.587  14.231  0.00  0.00    +0.000 OA
BRANCH   7   9
ATOM      9  O   UNL     1       6.384   3.691  14.224  0.00  0.00    +0.000 OA
BRANCH   9  10
ATOM     10  C   UNL     1       5.406   3.996  13.218  0.00  0.00    +0.000 C 
BRANCH  10  12
ATOM     11  C   UNL     1       6.888   2.700  11.679  0.00  0.00    +0.000 C 
ATOM     12  C   UNL     1       5.446   3.003  12.064  0.00  0.00    +0.000 C 
ENDBRANCH  10  12
ENDBRANCH   9  10
ENDBRANCH   7   9
ENDBRANCH   5   7
ENDBRANCH   1   5
BRANCH   2  13
ATOM     13  C   UNL     1       8.137   7.329  18.712  0.00  0.00    +0.000 C 
ATOM     14  C   UNL     1       8.170   8.400  17.906  0.00  0.00    +0.000 C 
BRANCH  14  15
ATOM     15  C   UNL     1       8.650   9.699  18.376  0.00  0.00    +0.000 A 
ATOM     16  C   UNL     1       9.282   9.797  19.617  0.00  0.00    +0.000 A 
ATOM     17  C   UNL     1       9.773  11.029  20.065  0.00  0.00    +0.000 A 
ATOM     18  C   UNL     1       9.646  12.183  19.278  0.00  0.00    +0.000 A 
ATOM     19  C   UNL     1       8.980  12.075  18.046  0.00  0.00    +0.000 A 
ATOM     20  C   UNL     1       8.488  10.845  17.598  0.00  0.00    +0.000 A 
BRANCH  18  21
ATOM     21  C   UNL     1      10.262  13.493  19.740  0.00  0.00    +0.000 C 
ATOM     22  C   UNL     1       9.897  13.794  21.198  0.00  0.00    +0.000 C 
ATOM     23  C   UNL     1      11.780  13.525  19.556  0.00  0.00    +0.000 C 
ENDBRANCH  18  21
ENDBRANCH  14  15
ENDBRANCH   2  13
TORSDOF 8
ENDMDL
MODEL 8
REMARK VINA RESULT:      -6.8      1.075      1.523
REMARK  Name = 
REMARK  12 active torsions:
REMARK  status: ('A' for Active; 'I' for Inactive)
REMARK    1  A    between atoms: C_1  and  C_2
REMARK    2  A    between atoms: C_2  and  C_3
REMARK    3  A    between atoms: C_3  and  O_4
REMARK    4  A    between atoms: O_4  and  C_5
REMARK    5  A    between atoms: C_5  and  C_7
REMARK    6  A    between atoms: C_7  and  C_8
REMARK    7  A    between atoms: C_7  and  N_9
REMARK    8  A    between atoms: C_10  and  C_12
REMARK    9  A    between atoms: C_13  and  C_14
REMARK   10  A    between atoms: C_17  and  C_18
REMARK   11  A    between atoms: C_18  and  C_19
REMARK   12  A    between atoms: C_18  and  C_20
REMARK                            x       y       z     vdW  Elec       q    Type
REMARK                         _______ _______ _______ _____ _____    ______ ____
ROOT
ATOM      1  N   UNL     1       7.240   6.493  17.238  0.00  0.00    +0.000 N 
ATOM      2  C   UNL     1       7.854   6.502  18.464  0.00  0.00    +0.000 C 
ATOM      3  O   UNL     1       7.881   5.539  19.219  0.00  0.00    +0.000 OA
ATOM      4  H   UNL     1       7.273   7.303  16.632  0.00  0.00    +0.000 HD
ENDROOT
BRANCH   1   5
ATOM      5  C   UNL     1       6.522   5.311  16.757  0.00  0.00    +0.000 C 
ATOM      6  C   UNL     1       5.025   5.465  16.994  0.00  0.00    +0.000 C 
BRANCH   5   7
ATOM      7  C   UNL     1       6.788   4.969  15.283  0.00  0.00    +0.000 C 
ATOM      8  O   UNL     1       7.594   5.562  14.584  0.00  0.00    +0.000 OA
BRANCH   7   9
ATOM      9  O   UNL     1       5.962   3.974  14.838  0.00  0.00    +0.000 OA
BRANCH   9  10
ATOM     10  C   UNL     1       5.462   4.152  13.504  0.00  0.00    +0.000 C 
BRANCH  10  12
ATOM     11  C   UNL     1       5.265   2.639  11.526  0.00  0.00    +0.000 C 
ATOM     12  C   UNL     1       6.231   3.317  12.489  0.00  0.00    +0.000 C 
ENDBRANCH  10  12
ENDBRANCH   9  10
ENDBRANCH   7   9
ENDBRANCH   5   7
ENDBRANCH   1   5
BRANCH   2  13
ATOM     13  C   UNL     1       8.468   7.806  18.806  0.00  0.00    +0.000 C 
ATOM     14  C   UNL     1       8.134   8.898  18.102  0.00  0.00    +0.000 C 
BRANCH  14  15
ATOM     15  C   UNL     1       8.777  10.190  18.340  0.00  0.00    +0.000 A 
ATOM     16  C   UNL     1       9.719  10.318  19.362  0.00  0.00    +0.000 A 
ATOM     17  C   UNL     1      10.363  11.542  19.580  0.00  0.00    +0.000 A 
ATOM     18  C   UNL     1      10.082  12.656  18.776  0.00  0.00    +0.000 A 
ATOM     19  C   UNL     1       9.109  12.521  17.772  0.00  0.00    +0.000 A 
ATOM     20  C   UNL     1       8.464  11.299  17.555  0.00  0.00    +0.000 A 
BRANCH  18  21
ATOM     21  C   UNL     1      10.854  13.951  18.970  0.00  0.00    +0.000 C 
ATOM     22  C   UNL     1      12.333  13.774  18.607  0.00  0.00    +0.000 C 
ATOM     23  C   UNL     1      10.251  15.117  18.185  0.00  0.00    +0.000 C 
ENDBRANCH  18  21
ENDBRANCH  14  15
ENDBRANCH   2  13
TORSDOF 8
ENDMDL
MODEL 9
REMARK VINA RESULT:      -6.7      5.065      8.091
REMARK  Name = 
REMARK  12 active torsions:
REMARK  status: ('A' for Active; 'I' for Inactive)
REMARK    1  A    between atoms: C_1  and  C_2
REMARK    2  A    between atoms: C_2  and  C_3
REMARK    3  A    between atoms: C_3  and  O_4
REMARK    4  A    between atoms: O_4  and  C_5
REMARK    5  A    between atoms: C_5  and  C_7
REMARK    6  A    between atoms: C_7  and  C_8
REMARK    7  A    between atoms: C_7  and  N_9
REMARK    8  A    between atoms: C_10  and  C_12
REMARK    9  A    between atoms: C_13  and  C_14
REMARK   10  A    between atoms: C_17  and  C_18
REMARK   11  A    between atoms: C_18  and  C_19
REMARK   12  A    between atoms: C_18  and  C_20
REMARK                            x       y       z     vdW  Elec       q    Type
REMARK                         _______ _______ _______ _____ _____    ______ ____
ROOT
ATOM      1  N   UNL     1       4.524   5.262  18.059  0.00  0.00    +0.000 N 
ATOM      2  C   UNL     1       3.326   4.726  18.456  0.00  0.00    +0.000 C 
ATOM      3  O   UNL     1       3.014   3.554  18.285  0.00  0.00    +0.000 OA
ATOM      4  H   UNL     1       4.752   6.229  18.253  0.00  0.00    +0.000 HD
ENDROOT
BRANCH   1   5
ATOM      5  C   UNL     1       5.519   4.457  17.348  0.00  0.00    +0.000 C 
ATOM      6  C   UNL     1       5.247   4.477  15.849  0.00  0.00    +0.000 C 
BRANCH   5   7
ATOM      7  C   UNL     1       6.974   4.864  17.625  0.00  0.00    +0.000 C 
ATOM      8  O   UNL     1       7.659   4.373  18.507  0.00  0.00    +0.000 OA
BRANCH   7   9
ATOM      9  O   UNL     1       7.374   5.890  16.813  0.00  0.00    +0.000 OA
BRANCH   9  10
ATOM     10  C   UNL     1       7.087   7.205  17.312  0.00  0.00    +0.000 C 
BRANCH  10  12
ATOM     11  C   UNL     1       8.298   9.239  18.112  0.00  0.00    +0.000 C 
ATOM     12  C   UNL     1       8.190   7.724  18.226  0.00  0.00    +0.000 C 
ENDBRANCH  10  12
ENDBRANCH   9  10
ENDBRANCH   7   9
ENDBRANCH   5   7
ENDBRANCH   1   5
BRANCH   2  13
ATOM     13  C   UNL     1       2.423   5.710  19.097  0.00  0.00    +0.000 C 
ATOM     14  C   UNL     1       2.689   7.020  18.987  0.00  0.00    +0.000 C 
BRANCH  14  15
ATOM     15  C   UNL     1       1.882   8.027  19.675  0.00  0.00    +0.000 A 
ATOM     16  C   UNL     1       1.530   7.839  21.012  0.00  0.00    +0.000 A 
ATOM     17  C   UNL     1       0.783   8.810  21.690  0.00  0.00    +0.000 A 
ATOM     18  C   UNL     1       0.380   9.988  21.045  0.00  0.00    +0.000 A 
ATOM     19  C   UNL     1       0.714  10.149  19.690  0.00  0.00    +0.000 A 
ATOM     20  C   UNL     1       1.459   9.178  19.012  0.00  0.00    +0.000 A 
BRANCH  18  21
ATOM     21  C   UNL     1      -0.353  11.069  21.819  0.00  0.00    +0.000 C 
ATOM     22  C   UNL     1      -1.358  11.807  20.927  0.00  0.00    +0.000 C 
ATOM     23  C   UNL     1      -1.052  10.526  23.067  0.00  0.00    +0.000 C 
ENDBRANCH  18  21
ENDBRANCH  14  15
ENDBRANCH   2  13
TORSDOF 8
ENDMDL
