MODEL 1
REMARK VINA RESULT:      -9.6      0.000      0.000
REMARK  Name = 
REMARK  5 active torsions:
REMARK  status: ('A' for Active; 'I' for Inactive)
REMARK    1  A    between atoms: C_2  and  C_3
REMARK    2  A    between atoms: C_3  and  C_4
REMARK    3  A    between atoms: C_10  and  N_11
REMARK    4  A    between atoms: C_12  and  C_14
REMARK    5  A    between atoms: C_17  and  C_18
REMARK                            x       y       z     vdW  Elec       q    Type
REMARK                         _______ _______ _______ _____ _____    ______ ____
ROOT
ATOM      1  C   UNL     1       6.593   6.571  17.142  0.00  0.00    +0.000 A 
ATOM      2  C   UNL     1       6.739   5.448  16.318  0.00  0.00    +0.000 A 
ATOM      3  C   UNL     1       5.845   4.384  16.423  0.00  0.00    +0.000 A 
ATOM      4  C   UNL     1       4.780   4.444  17.325  0.00  0.00    +0.000 A 
ATOM      5  C   UNL     1       4.602   5.559  18.144  0.00  0.00    +0.000 A 
ATOM      6  C   UNL     1       5.536   6.605  18.066  0.00  0.00    +0.000 A 
ATOM      7  C   UNL     1       3.435   5.631  19.103  0.00  0.00    +0.000 C 
ATOM      8  C   UNL     1       2.537   4.415  19.019  0.00  0.00    +0.000 A 
ATOM      9  C   UNL     1       1.392   4.298  19.827  0.00  0.00    +0.000 A 
ATOM     10  C   UNL     1       0.593   3.152  19.772  0.00  0.00    +0.000 A 
ATOM     11  C   UNL     1       0.933   2.105  18.918  0.00  0.00    +0.000 A 
ATOM     12  C   UNL     1       2.066   2.209  18.116  0.00  0.00    +0.000 A 
ATOM     13  C   UNL     1       2.861   3.358  18.165  0.00  0.00    +0.000 A 
ATOM     14  O   UNL     1       3.952   3.351  17.335  0.00  0.00    +0.000 OA
ENDROOT
BRANCH   7  15
ATOM     15  N   UNL     1       2.665   6.843  18.862  0.00  0.00    +0.000 N 
ATOM     16  C   UNL     1       2.122   7.603  19.865  0.00  0.00    +0.000 C 
ATOM     17  O   UNL     1       2.259   7.330  21.055  0.00  0.00    +0.000 OA
ATOM     18  H   UNL     1       2.521   7.120  17.891  0.00  0.00    +0.000 HD
BRANCH  16  19
ATOM     19  C   UNL     1       1.310   8.783  19.433  0.00  0.00    +0.000 A 
ATOM     20  C   UNL     1       0.397   9.286  20.287  0.00  0.00    +0.000 A 
ATOM     21  C   UNL     1      -0.521  10.336  19.897  0.00  0.00    +0.000 A 
ATOM     22  C   UNL     1      -0.503  10.824  18.644  0.00  0.00    +0.000 A 
ATOM     23  N   UNL     1       0.466  10.358  17.772  0.00  0.00    +0.000 N 
ATOM     24  C   UNL     1       1.403   9.402  18.080  0.00  0.00    +0.000 A 
ATOM     25  O   UNL     1       2.259   9.071  17.263  0.00  0.00    +0.000 OA
ATOM     26  H   UNL     1       0.514  10.740  16.829  0.00  0.00    +0.000 HD
BRANCH  22  27
ATOM     27  C   UNL     1      -1.506  11.836  18.135  0.00  0.00    +0.000 C 
ATOM     28  F   UNL     1      -2.441  12.125  19.078  0.00  0.00    +0.000 F 
ATOM     29  F   UNL     1      -0.909  13.008  17.802  0.00  0.00    +0.000 F 
ATOM     30  F   UNL     1      -2.169  11.398  17.038  0.00  0.00    +0.000 F 
ENDBRANCH  22  27
ENDBRANCH  16  19
ENDBRANCH   7  15
BRANCH   1  31
ATOM     31  C   UNL     1       7.511   7.762  17.000  0.00  0.00    +0.000 C 
BRANCH  31  33
ATOM     32  C   UNL     1       8.684   9.279  18.629  0.00  0.00    +0.000 C 
ATOM     33  C   UNL     1       8.237   8.064  18.281  0.00  0.00    +0.000 C 
ENDBRANCH  31  33
ENDBRANCH   1  31
TORSDOF 5
ENDMDL
MODEL 2
REMARK VINA RESULT:      -9.3      1.484      2.034
REMARK  Name = 
REMARK  5 active torsions:
REMARK  status: ('A' for Active; 'I' for Inactive)
REMARK    1  A    between atoms: C_2  and  C_3
REMARK    2  A    between atoms: C_3  and  C_4
REMARK    3  A    between atoms: C_10  and  N_11
REMARK    4  A    between atoms: C_12  and  C_14
REMARK    5  A    between atoms: C_17  and  C_18
REMARK                            x       y       z     vdW  Elec       q    Type
REMARK                         _______ _______ _______ _____ _____    ______ ____
ROOT
ATOM      1  C   UNL     1       7.118   6.012  18.295  0.00  0.00    +0.000 A 
ATOM      2  C   UNL     1       7.204   5.096  17.240  0.00  0.00    +0.000 A 
ATOM      3  C   UNL     1       6.196   4.151  17.051  0.00  0.00    +0.000 A 
ATOM      4  C   UNL     1       5.080   4.133  17.892  0.00  0.00    +0.000 A 
ATOM      5  C   UNL     1       4.962   5.046  18.940  0.00  0.00    +0.000 A 
ATOM      6  C   UNL     1       6.006   5.963  19.152  0.00  0.00    +0.000 A 
ATOM      7  C   UNL     1       3.743   5.039  19.833  0.00  0.00    +0.000 C 
ATOM      8  C   UNL     1       2.729   3.991  19.425  0.00  0.00    +0.000 A 
ATOM      9  C   UNL     1       1.523   3.831  20.130  0.00  0.00    +0.000 A 
ATOM     10  C   UNL     1       0.612   2.833  19.771  0.00  0.00    +0.000 A 
ATOM     11  C   UNL     1       0.900   1.974  18.713  0.00  0.00    +0.000 A 
ATOM     12  C   UNL     1       2.094   2.120  18.011  0.00  0.00    +0.000 A 
ATOM     13  C   UNL     1       3.001   3.124  18.364  0.00  0.00    +0.000 A 
ATOM     14  O   UNL     1       4.143   3.174  17.607  0.00  0.00    +0.000 OA
ENDROOT
BRANCH   7  15
ATOM     15  N   UNL     1       3.126   6.357  19.847  0.00  0.00    +0.000 N 
ATOM     16  C   UNL     1       2.484   6.900  18.765  0.00  0.00    +0.000 C 
ATOM     17  O   UNL     1       2.361   6.307  17.697  0.00  0.00    +0.000 OA
ATOM     18  H   UNL     1       3.195   6.896  20.711  0.00  0.00    +0.000 HD
BRANCH  16  19
ATOM     19  C   UNL     1       1.961   8.292  18.939  0.00  0.00    +0.000 A 
ATOM     20  C   UNL     1       2.137   9.177  17.938  0.00  0.00    +0.000 A 
ATOM     21  C   UNL     1       1.783  10.574  18.080  0.00  0.00    +0.000 A 
ATOM     22  C   UNL     1       1.288  11.036  19.242  0.00  0.00    +0.000 A 
ATOM     23  N   UNL     1       1.048  10.129  20.260  0.00  0.00    +0.000 N 
ATOM     24  C   UNL     1       1.309   8.782  20.187  0.00  0.00    +0.000 A 
ATOM     25  O   UNL     1       1.028   8.033  21.120  0.00  0.00    +0.000 OA
ATOM     26  H   UNL     1       0.644  10.456  21.136  0.00  0.00    +0.000 HD
BRANCH  22  27
ATOM     27  C   UNL     1       1.006  12.500  19.499  0.00  0.00    +0.000 C 
ATOM     28  F   UNL     1      -0.316  12.782  19.358  0.00  0.00    +0.000 F 
ATOM     29  F   UNL     1       1.353  12.863  20.760  0.00  0.00    +0.000 F 
ATOM     30  F   UNL     1       1.679  13.312  18.649  0.00  0.00    +0.000 F 
ENDBRANCH  22  27
ENDBRANCH  16  19
ENDBRANCH   7  15
BRANCH   1  31
ATOM     31  C   UNL     1       8.165   7.085  18.479  0.00  0.00    +0.000 C 
BRANCH  31  33
ATOM     32  C   UNL     1       8.335   9.546  17.986  0.00  0.00    +0.000 C 
ATOM     33  C   UNL     1       7.822   8.337  17.720  0.00  0.00    +0.000 C 
ENDBRANCH  31  33
ENDBRANCH   1  31
TORSDOF 5
ENDMDL
MODEL 3
REMARK VINA RESULT:      -9.2      1.405      1.597
REMARK  Name = 
REMARK  5 active torsions:
REMARK  status: ('A' for Active; 'I' for Inactive)
REMARK    1  A    between atoms: C_2  and  C_3
REMARK    2  A    between atoms: C_3  and  C_4
REMARK    3  A    between atoms: C_10  and  N_11
REMARK    4  A    between atoms: C_12  and  C_14
REMARK    5  A    between atoms: C_17  and  C_18
REMARK                            x       y       z     vdW  Elec       q    Type
REMARK                         _______ _______ _______ _____ _____    ______ ____
ROOT
ATOM      1  C   UNL     1       7.099   6.036  18.220  0.00  0.00    +0.000 A 
ATOM      2  C   UNL     1       7.124   5.252  17.060  0.00  0.00    +0.000 A 
ATOM      3  C   UNL     1       6.117   4.316  16.827  0.00  0.00    +0.000 A 
ATOM      4  C   UNL     1       5.060   4.178  17.731  0.00  0.00    +0.000 A 
ATOM      5  C   UNL     1       5.002   4.959  18.885  0.00  0.00    +0.000 A 
ATOM      6  C   UNL     1       6.047   5.865  19.135  0.00  0.00    +0.000 A 
ATOM      7  C   UNL     1       3.845   4.824  19.848  0.00  0.00    +0.000 C 
ATOM      8  C   UNL     1       2.819   3.812  19.386  0.00  0.00    +0.000 A 
ATOM      9  C   UNL     1       1.664   3.548  20.144  0.00  0.00    +0.000 A 
ATOM     10  C   UNL     1       0.742   2.582  19.729  0.00  0.00    +0.000 A 
ATOM     11  C   UNL     1       0.969   1.859  18.561  0.00  0.00    +0.000 A 
ATOM     12  C   UNL     1       2.111   2.109  17.805  0.00  0.00    +0.000 A 
ATOM     13  C   UNL     1       3.028   3.081  18.214  0.00  0.00    +0.000 A 
ATOM     14  O   UNL     1       4.117   3.242  17.396  0.00  0.00    +0.000 OA
ENDROOT
BRANCH   7  15
ATOM     15  N   UNL     1       3.216   6.120  20.058  0.00  0.00    +0.000 N 
ATOM     16  C   UNL     1       2.470   6.759  19.103  0.00  0.00    +0.000 C 
ATOM     17  O   UNL     1       2.257   6.279  17.993  0.00  0.00    +0.000 OA
ATOM     18  H   UNL     1       3.358   6.567  20.965  0.00  0.00    +0.000 HD
BRANCH  16  19
ATOM     19  C   UNL     1       1.948   8.113  19.471  0.00  0.00    +0.000 A 
ATOM     20  C   UNL     1       1.531   8.322  20.735  0.00  0.00    +0.000 A 
ATOM     21  C   UNL     1       0.888   9.557  21.136  0.00  0.00    +0.000 A 
ATOM     22  C   UNL     1       0.662  10.530  20.235  0.00  0.00    +0.000 A 
ATOM     23  N   UNL     1       1.136  10.353  18.946  0.00  0.00    +0.000 N 
ATOM     24  C   UNL     1       1.798   9.235  18.501  0.00  0.00    +0.000 A 
ATOM     25  O   UNL     1       2.226   9.171  17.350  0.00  0.00    +0.000 OA
ATOM     26  H   UNL     1       1.002  11.093  18.259  0.00  0.00    +0.000 HD
BRANCH  22  27
ATOM     27  C   UNL     1      -0.105  11.793  20.555  0.00  0.00    +0.000 C 
ATOM     28  F   UNL     1      -0.209  11.983  21.897  0.00  0.00    +0.000 F 
ATOM     29  F   UNL     1       0.508  12.893  20.049  0.00  0.00    +0.000 F 
ATOM     30  F   UNL     1      -1.365  11.772  20.057  0.00  0.00    +0.000 F 
ENDBRANCH  22  27
ENDBRANCH  16  19
ENDBRANCH   7  15
BRANCH   1  31
ATOM     31  C   UNL     1       8.143   7.099  18.461  0.00  0.00    +0.000 C 
BRANCH  31  33
ATOM     32  C   UNL     1       8.374   9.564  18.010  0.00  0.00    +0.000 C 
ATOM     33  C   UNL     1       7.822   8.374  17.732  0.00  0.00    +0.000 C 
ENDBRANCH  31  33
ENDBRANCH   1  31
TORSDOF 5
ENDMDL
MODEL 4
REMARK VINA RESULT:      -8.4      1.061      1.534
REMARK  Name = 
REMARK  5 active torsions:
REMARK  status: ('A' for Active; 'I' for Inactive)
REMARK    1  A    between atoms: C_2  and  C_3
REMARK    2  A    between atoms: C_3  and  C_4
REMARK    3  A    between atoms: C_10  and  N_11
REMARK    4  A    between atoms: C_12  and  C_14
REMARK    5  A    between atoms: C_17  and  C_18
REMARK                            x       y       z     vdW  Elec       q    Type
REMARK                         _______ _______ _______ _____ _____    ______ ____
ROOT
ATOM      1  C   UNL     1       6.551   6.618  17.141  0.00  0.00    +0.000 A 
ATOM      2  C   UNL     1       6.665   5.531  16.267  0.00  0.00    +0.000 A 
ATOM      3  C   UNL     1       5.765   4.470  16.349  0.00  0.00    +0.000 A 
ATOM      4  C   UNL     1       4.724   4.500  17.281  0.00  0.00    +0.000 A 
ATOM      5  C   UNL     1       4.577   5.579  18.152  0.00  0.00    +0.000 A 
ATOM      6  C   UNL     1       5.519   6.621  18.094  0.00  0.00    +0.000 A 
ATOM      7  C   UNL     1       3.436   5.620  19.143  0.00  0.00    +0.000 C 
ATOM      8  C   UNL     1       2.525   4.416  19.030  0.00  0.00    +0.000 A 
ATOM      9  C   UNL     1       1.401   4.273  19.862  0.00  0.00    +0.000 A 
ATOM     10  C   UNL     1       0.589   3.137  19.779  0.00  0.00    +0.000 A 
ATOM     11  C   UNL     1       0.897   2.126  18.872  0.00  0.00    +0.000 A 
ATOM     12  C   UNL     1       2.010   2.255  18.046  0.00  0.00    +0.000 A 
ATOM     13  C   UNL     1       2.817   3.394  18.123  0.00  0.00    +0.000 A 
ATOM     14  O   UNL     1       3.886   3.414  17.265  0.00  0.00    +0.000 OA
ENDROOT
BRANCH   7  15
ATOM     15  N   UNL     1       2.672   6.847  18.975  0.00  0.00    +0.000 N 
ATOM     16  C   UNL     1       2.083   7.516  20.016  0.00  0.00    +0.000 C 
ATOM     17  O   UNL     1       2.168   7.141  21.182  0.00  0.00    +0.000 OA
ATOM     18  H   UNL     1       2.569   7.207  18.026  0.00  0.00    +0.000 HD
BRANCH  16  19
ATOM     19  C   UNL     1       1.284   8.729  19.652  0.00  0.00    +0.000 A 
ATOM     20  C   UNL     1       1.569   9.367  18.500  0.00  0.00    +0.000 A 
ATOM     21  C   UNL     1       0.938  10.621  18.142  0.00  0.00    +0.000 A 
ATOM     22  C   UNL     1       0.058  11.203  18.978  0.00  0.00    +0.000 A 
ATOM     23  N   UNL     1      -0.287  10.531  20.139  0.00  0.00    +0.000 N 
ATOM     24  C   UNL     1       0.228   9.317  20.524  0.00  0.00    +0.000 A 
ATOM     25  O   UNL     1      -0.162   8.763  21.550  0.00  0.00    +0.000 OA
ATOM     26  H   UNL     1      -0.975  10.942  20.767  0.00  0.00    +0.000 HD
BRANCH  22  27
ATOM     27  C   UNL     1      -0.550  12.564  18.724  0.00  0.00    +0.000 C 
ATOM     28  F   UNL     1      -1.099  12.638  17.482  0.00  0.00    +0.000 F 
ATOM     29  F   UNL     1      -1.540  12.843  19.609  0.00  0.00    +0.000 F 
ATOM     30  F   UNL     1       0.362  13.562  18.815  0.00  0.00    +0.000 F 
ENDBRANCH  22  27
ENDBRANCH  16  19
ENDBRANCH   7  15
BRANCH   1  31
ATOM     31  C   UNL     1       7.476   7.806  17.027  0.00  0.00    +0.000 C 
BRANCH  31  33
ATOM     32  C   UNL     1       8.687   9.279  18.668  0.00  0.00    +0.000 C 
ATOM     33  C   UNL     1       8.194   8.083  18.319  0.00  0.00    +0.000 C 
ENDBRANCH  31  33
ENDBRANCH   1  31
TORSDOF 5
ENDMDL
MODEL 5
REMARK VINA RESULT:      -8.4      4.326      9.150
REMARK  Name = 
REMARK  5 active torsions:
REMARK  status: ('A' for Active; 'I' for Inactive)
REMARK    1  A    between atoms: C_2  and  C_3
REMARK    2  A    between atoms: C_3  and  C_4
REMARK    3  A    between atoms: C_10  and  N_11
REMARK    4  A    between atoms: C_12  and  C_14
REMARK    5  A    between atoms: C_17  and  C_18
REMARK                            x       y       z     vdW  Elec       q    Type
REMARK                         _______ _______ _______ _____ _____    ______ ____
ROOT
ATOM      1  C   UNL     1      -2.091  12.995  22.211  0.00  0.00    +0.000 A 
ATOM      2  C   UNL     1      -3.485  13.122  22.199  0.00  0.00    +0.000 A 
ATOM      3  C   UNL     1      -4.205  12.807  21.048  0.00  0.00    +0.000 A 
ATOM      4  C   UNL     1      -3.546  12.331  19.911  0.00  0.00    +0.000 A 
ATOM      5  C   UNL     1      -2.159  12.179  19.903  0.00  0.00    +0.000 A 
ATOM      6  C   UNL     1      -1.437  12.546  21.051  0.00  0.00    +0.000 A 
ATOM      7  C   UNL     1      -1.451  11.642  18.680  0.00  0.00    +0.000 C 
ATOM      8  C   UNL     1      -2.408  11.289  17.562  0.00  0.00    +0.000 A 
ATOM      9  C   UNL     1      -1.942  10.766  16.343  0.00  0.00    +0.000 A 
ATOM     10  C   UNL     1      -2.831  10.482  15.301  0.00  0.00    +0.000 A 
ATOM     11  C   UNL     1      -4.193  10.727  15.460  0.00  0.00    +0.000 A 
ATOM     12  C   UNL     1      -4.664  11.248  16.662  0.00  0.00    +0.000 A 
ATOM     13  C   UNL     1      -3.778  11.524  17.707  0.00  0.00    +0.000 A 
ATOM     14  O   UNL     1      -4.351  12.036  18.842  0.00  0.00    +0.000 OA
ENDROOT
BRANCH   7  15
ATOM     15  N   UNL     1      -0.645  10.484  19.038  0.00  0.00    +0.000 N 
ATOM     16  C   UNL     1       0.717  10.440  18.892  0.00  0.00    +0.000 C 
ATOM     17  O   UNL     1       1.372  11.385  18.462  0.00  0.00    +0.000 OA
ATOM     18  H   UNL     1      -1.136   9.668  19.403  0.00  0.00    +0.000 HD
BRANCH  16  19
ATOM     19  C   UNL     1       1.377   9.146  19.254  0.00  0.00    +0.000 A 
ATOM     20  C   UNL     1       2.044   8.472  18.296  0.00  0.00    +0.000 A 
ATOM     21  C   UNL     1       2.593   7.152  18.529  0.00  0.00    +0.000 A 
ATOM     22  C   UNL     1       2.424   6.545  19.717  0.00  0.00    +0.000 A 
ATOM     23  N   UNL     1       1.791   7.247  20.729  0.00  0.00    +0.000 N 
ATOM     24  C   UNL     1       1.288   8.519  20.604  0.00  0.00    +0.000 A 
ATOM     25  O   UNL     1       0.776   9.094  21.563  0.00  0.00    +0.000 OA
ATOM     26  H   UNL     1       1.683   6.815  21.645  0.00  0.00    +0.000 HD
BRANCH  22  27
ATOM     27  C   UNL     1       2.867   5.125  19.993  0.00  0.00    +0.000 C 
ATOM     28  F   UNL     1       2.537   4.739  21.254  0.00  0.00    +0.000 F 
ATOM     29  F   UNL     1       2.278   4.243  19.146  0.00  0.00    +0.000 F 
ATOM     30  F   UNL     1       4.207   4.969  19.866  0.00  0.00    +0.000 F 
ENDBRANCH  22  27
ENDBRANCH  16  19
ENDBRANCH   7  15
BRANCH   1  31
ATOM     31  C   UNL     1      -1.297  13.270  23.466  0.00  0.00    +0.000 C 
BRANCH  31  33
ATOM     32  C   UNL     1      -0.624  15.640  22.957  0.00  0.00    +0.000 C 
ATOM     33  C   UNL     1      -1.209  14.741  23.762  0.00  0.00    +0.000 C 
ENDBRANCH  31  33
ENDBRANCH   1  31
TORSDOF 5
ENDMDL
MODEL 6
REMARK VINA RESULT:      -8.3      4.337      8.216
REMARK  Name = 
REMARK  5 active torsions:
REMARK  status: ('A' for Active; 'I' for Inactive)
REMARK    1  A    between atoms: C_2  and  C_3
REMARK    2  A    between atoms: C_3  and  C_4
REMARK    3  A    between atoms: C_10  and  N_11
REMARK    4  A    between atoms: C_12  and  C_14
REMARK    5  A    between atoms: C_17  and  C_18
REMARK                            x       y       z     vdW  Elec       q    Type
REMARK                         _______ _______ _______ _____ _____    ______ ____
ROOT
ATOM      1  C   UNL     1       1.872  13.551  20.787  0.00  0.00    +0.000 A 
ATOM      2  C   UNL     1       0.820  14.307  21.317  0.00  0.00    +0.000 A 
ATOM      3  C   UNL     1      -0.491  14.062  20.910  0.00  0.00    +0.000 A 
ATOM      4  C   UNL     1      -0.766  13.039  19.998  0.00  0.00    +0.000 A 
ATOM      5  C   UNL     1       0.262  12.260  19.470  0.00  0.00    +0.000 A 
ATOM      6  C   UNL     1       1.585  12.547  19.848  0.00  0.00    +0.000 A 
ATOM      7  C   UNL     1      -0.041  11.139  18.501  0.00  0.00    +0.000 C 
ATOM      8  C   UNL     1      -1.524  10.981  18.241  0.00  0.00    +0.000 A 
ATOM      9  C   UNL     1      -2.009   9.987  17.373  0.00  0.00    +0.000 A 
ATOM     10  C   UNL     1      -3.377   9.876  17.106  0.00  0.00    +0.000 A 
ATOM     11  C   UNL     1      -4.275  10.763  17.693  0.00  0.00    +0.000 A 
ATOM     12  C   UNL     1      -3.806  11.754  18.551  0.00  0.00    +0.000 A 
ATOM     13  C   UNL     1      -2.439  11.860  18.825  0.00  0.00    +0.000 A 
ATOM     14  O   UNL     1      -2.089  12.872  19.681  0.00  0.00    +0.000 OA
ENDROOT
BRANCH   7  15
ATOM     15  N   UNL     1       0.520   9.889  18.993  0.00  0.00    +0.000 N 
ATOM     16  C   UNL     1       1.563   9.240  18.385  0.00  0.00    +0.000 C 
ATOM     17  O   UNL     1       2.123   9.674  17.382  0.00  0.00    +0.000 OA
ATOM     18  H   UNL     1       0.094   9.482  19.826  0.00  0.00    +0.000 HD
BRANCH  16  19
ATOM     19  C   UNL     1       1.971   7.935  18.993  0.00  0.00    +0.000 A 
ATOM     20  C   UNL     1       2.465   6.974  18.186  0.00  0.00    +0.000 A 
ATOM     21  C   UNL     1       2.755   5.641  18.671  0.00  0.00    +0.000 A 
ATOM     22  C   UNL     1       2.509   5.314  19.952  0.00  0.00    +0.000 A 
ATOM     23  N   UNL     1       2.055   6.305  20.807  0.00  0.00    +0.000 N 
ATOM     24  C   UNL     1       1.804   7.604  20.437  0.00  0.00    +0.000 A 
ATOM     25  O   UNL     1       1.443   8.438  21.265  0.00  0.00    +0.000 OA
ATOM     26  H   UNL     1       1.894   6.084  21.788  0.00  0.00    +0.000 HD
BRANCH  22  27
ATOM     27  C   UNL     1       2.678   3.914  20.498  0.00  0.00    +0.000 C 
ATOM     28  F   UNL     1       3.913   3.418  20.218  0.00  0.00    +0.000 F 
ATOM     29  F   UNL     1       2.538   3.881  21.847  0.00  0.00    +0.000 F 
ATOM     30  F   UNL     1       1.775   3.046  19.980  0.00  0.00    +0.000 F 
ENDBRANCH  22  27
ENDBRANCH  16  19
ENDBRANCH   7  15
BRANCH   1  31
ATOM     31  C   UNL     1       3.291  13.757  21.261  0.00  0.00    +0.000 C 
BRANCH  31  33
ATOM     32  C   UNL     1       4.067  16.042  20.546  0.00  0.00    +0.000 C 
ATOM     33  C   UNL     1       4.044  14.712  20.376  0.00  0.00    +0.000 C 
ENDBRANCH  31  33
ENDBRANCH   1  31
TORSDOF 5
ENDMDL
MODEL 7
REMARK VINA RESULT:      -8.0      1.519      4.878
REMARK  Name = 
REMARK  5 active torsions:
REMARK  status: ('A' for Active; 'I' for Inactive)
REMARK    1  A    between atoms: C_2  and  C_3
REMARK    2  A    between atoms: C_3  and  C_4
REMARK    3  A    between atoms: C_10  and  N_11
REMARK    4  A    between atoms: C_12  and  C_14
REMARK    5  A    between atoms: C_17  and  C_18
REMARK                            x       y       z     vdW  Elec       q    Type
REMARK                         _______ _______ _______ _____ _____    ______ ____
ROOT
ATOM      1  C   UNL     1       2.637   2.747  18.487  0.00  0.00    +0.000 A 
ATOM      2  C   UNL     1       3.564   2.184  19.373  0.00  0.00    +0.000 A 
ATOM      3  C   UNL     1       4.801   2.796  19.572  0.00  0.00    +0.000 A 
ATOM      4  C   UNL     1       5.110   3.991  18.918  0.00  0.00    +0.000 A 
ATOM      5  C   UNL     1       4.197   4.582  18.044  0.00  0.00    +0.000 A 
ATOM      6  C   UNL     1       2.973   3.932  17.812  0.00  0.00    +0.000 A 
ATOM      7  C   UNL     1       4.525   5.887  17.355  0.00  0.00    +0.000 C 
ATOM      8  C   UNL     1       5.880   6.431  17.755  0.00  0.00    +0.000 A 
ATOM      9  C   UNL     1       6.364   7.641  17.226  0.00  0.00    +0.000 A 
ATOM     10  C   UNL     1       7.634   8.114  17.571  0.00  0.00    +0.000 A 
ATOM     11  C   UNL     1       8.440   7.380  18.436  0.00  0.00    +0.000 A 
ATOM     12  C   UNL     1       7.973   6.178  18.962  0.00  0.00    +0.000 A 
ATOM     13  C   UNL     1       6.700   5.709  18.625  0.00  0.00    +0.000 A 
ATOM     14  O   UNL     1       6.345   4.515  19.199  0.00  0.00    +0.000 OA
ENDROOT
BRANCH   7  15
ATOM     15  N   UNL     1       3.487   6.870  17.627  0.00  0.00    +0.000 N 
ATOM     16  C   UNL     1       2.993   7.118  18.881  0.00  0.00    +0.000 C 
ATOM     17  O   UNL     1       3.403   6.539  19.883  0.00  0.00    +0.000 OA
ATOM     18  H   UNL     1       3.110   7.384  16.830  0.00  0.00    +0.000 HD
BRANCH  16  19
ATOM     19  C   UNL     1       1.885   8.120  18.967  0.00  0.00    +0.000 A 
ATOM     20  C   UNL     1       1.519   8.775  17.848  0.00  0.00    +0.000 A 
ATOM     21  C   UNL     1       0.553   9.854  17.872  0.00  0.00    +0.000 A 
ATOM     22  C   UNL     1       0.009  10.254  19.036  0.00  0.00    +0.000 A 
ATOM     23  N   UNL     1       0.332   9.554  20.186  0.00  0.00    +0.000 N 
ATOM     24  C   UNL     1       1.199   8.489  20.238  0.00  0.00    +0.000 A 
ATOM     25  O   UNL     1       1.402   7.891  21.293  0.00  0.00    +0.000 OA
ATOM     26  H   UNL     1      -0.095   9.822  21.071  0.00  0.00    +0.000 HD
BRANCH  22  27
ATOM     27  C   UNL     1      -0.915  11.445  19.152  0.00  0.00    +0.000 C 
ATOM     28  F   UNL     1      -2.218  11.075  19.033  0.00  0.00    +0.000 F 
ATOM     29  F   UNL     1      -0.791  12.061  20.355  0.00  0.00    +0.000 F 
ATOM     30  F   UNL     1      -0.678  12.378  18.198  0.00  0.00    +0.000 F 
ENDBRANCH  22  27
ENDBRANCH  16  19
ENDBRANCH   7  15
BRANCH   1  31
ATOM     31  C   UNL     1       1.268   2.136  18.305  0.00  0.00    +0.000 C 
BRANCH  31  33
ATOM     32  C   UNL     1       0.590   3.523  20.292  0.00  0.00    +0.000 C 
ATOM     33  C   UNL     1       0.285   2.654  19.318  0.00  0.00    +0.000 C 
ENDBRANCH  31  33
ENDBRANCH   1  31
TORSDOF 5
ENDMDL
MODEL 8
REMARK VINA RESULT:      -7.8      1.665      2.051
REMARK  Name = 
REMARK  5 active torsions:
REMARK  status: ('A' for Active; 'I' for Inactive)
REMARK    1  A    between atoms: C_2  and  C_3
REMARK    2  A    between atoms: C_3  and  C_4
REMARK    3  A    between atoms: C_10  and  N_11
REMARK    4  A    between atoms: C_12  and  C_14
REMARK    5  A    between atoms: C_17  and  C_18
REMARK                            x       y       z     vdW  Elec       q    Type
REMARK                         _______ _______ _______ _____ _____    ______ ____
ROOT
ATOM      1  C   UNL     1       6.162   6.758  17.268  0.00  0.00    +0.000 A 
ATOM      2  C   UNL     1       5.918   6.029  16.099  0.00  0.00    +0.000 A 
ATOM      3  C   UNL     1       4.961   5.015  16.095  0.00  0.00    +0.000 A 
ATOM      4  C   UNL     1       4.217   4.742  17.246  0.00  0.00    +0.000 A 
ATOM      5  C   UNL     1       4.429   5.467  18.419  0.00  0.00    +0.000 A 
ATOM      6  C   UNL     1       5.429   6.454  18.427  0.00  0.00    +0.000 A 
ATOM      7  C   UNL     1       3.607   5.187  19.656  0.00  0.00    +0.000 C 
ATOM      8  C   UNL     1       2.572   4.104  19.433  0.00  0.00    +0.000 A 
ATOM      9  C   UNL     1       1.703   3.704  20.464  0.00  0.00    +0.000 A 
ATOM     10  C   UNL     1       0.779   2.674  20.260  0.00  0.00    +0.000 A 
ATOM     11  C   UNL     1       0.720   2.024  19.030  0.00  0.00    +0.000 A 
ATOM     12  C   UNL     1       1.578   2.409  18.004  0.00  0.00    +0.000 A 
ATOM     13  C   UNL     1       2.496   3.444  18.204  0.00  0.00    +0.000 A 
ATOM     14  O   UNL     1       3.293   3.738  17.128  0.00  0.00    +0.000 OA
ENDROOT
BRANCH   7  15
ATOM     15  N   UNL     1       2.965   6.409  20.118  0.00  0.00    +0.000 N 
ATOM     16  C   UNL     1       2.165   7.187  19.322  0.00  0.00    +0.000 C 
ATOM     17  O   UNL     1       1.909   6.903  18.155  0.00  0.00    +0.000 OA
ATOM     18  H   UNL     1       3.140   6.693  21.082  0.00  0.00    +0.000 HD
BRANCH  16  19
ATOM     19  C   UNL     1       1.636   8.441  19.944  0.00  0.00    +0.000 A 
ATOM     20  C   UNL     1       1.385   8.448  21.268  0.00  0.00    +0.000 A 
ATOM     21  C   UNL     1       0.747   9.573  21.921  0.00  0.00    +0.000 A 
ATOM     22  C   UNL     1       0.358  10.644  21.206  0.00  0.00    +0.000 A 
ATOM     23  N   UNL     1       0.661  10.676  19.855  0.00  0.00    +0.000 N 
ATOM     24  C   UNL     1       1.307   9.674  19.173  0.00  0.00    +0.000 A 
ATOM     25  O   UNL     1       1.578   9.795  17.980  0.00  0.00    +0.000 OA
ATOM     26  H   UNL     1       0.402  11.493  19.305  0.00  0.00    +0.000 HD
BRANCH  22  27
ATOM     27  C   UNL     1      -0.415  11.800  21.800  0.00  0.00    +0.000 C 
ATOM     28  F   UNL     1      -1.537  12.068  21.080  0.00  0.00    +0.000 F 
ATOM     29  F   UNL     1      -0.816  11.536  23.069  0.00  0.00    +0.000 F 
ATOM     30  F   UNL     1       0.314  12.942  21.840  0.00  0.00    +0.000 F 
ENDBRANCH  22  27
ENDBRANCH  16  19
ENDBRANCH   7  15
BRANCH   1  31
ATOM     31  C   UNL     1       7.147   7.903  17.277  0.00  0.00    +0.000 C 
BRANCH  31  33
ATOM     32  C   UNL     1       8.349   6.608  19.069  0.00  0.00    +0.000 C 
ATOM     33  C   UNL     1       8.244   7.689  18.283  0.00  0.00    +0.000 C 
ENDBRANCH  31  33
ENDBRANCH   1  31
TORSDOF 5
ENDMDL
MODEL 9
REMARK VINA RESULT:      -7.7      1.804      5.101
REMARK  Name = 
REMARK  5 active torsions:
REMARK  status: ('A' for Active; 'I' for Inactive)
REMARK    1  A    between atoms: C_2  and  C_3
REMARK    2  A    between atoms: C_3  and  C_4
REMARK    3  A    between atoms: C_10  and  N_11
REMARK    4  A    between atoms: C_12  and  C_14
REMARK    5  A    between atoms: C_17  and  C_18
REMARK                            x       y       z     vdW  Elec       q    Type
REMARK                         _______ _______ _______ _____ _____    ______ ____
ROOT
ATOM      1  C   UNL     1       2.481   2.802  18.665  0.00  0.00    +0.000 A 
ATOM      2  C   UNL     1       3.578   2.078  19.148  0.00  0.00    +0.000 A 
ATOM      3  C   UNL     1       4.847   2.655  19.154  0.00  0.00    +0.000 A 
ATOM      4  C   UNL     1       5.027   3.968  18.711  0.00  0.00    +0.000 A 
ATOM      5  C   UNL     1       3.947   4.716  18.241  0.00  0.00    +0.000 A 
ATOM      6  C   UNL     1       2.681   4.109  18.193  0.00  0.00    +0.000 A 
ATOM      7  C   UNL     1       4.141   6.144  17.784  0.00  0.00    +0.000 C 
ATOM      8  C   UNL     1       5.572   6.614  17.935  0.00  0.00    +0.000 A 
ATOM      9  C   UNL     1       5.953   7.917  17.570  0.00  0.00    +0.000 A 
ATOM     10  C   UNL     1       7.285   8.329  17.674  0.00  0.00    +0.000 A 
ATOM     11  C   UNL     1       8.255   7.440  18.132  0.00  0.00    +0.000 A 
ATOM     12  C   UNL     1       7.890   6.146  18.492  0.00  0.00    +0.000 A 
ATOM     13  C   UNL     1       6.556   5.737  18.397  0.00  0.00    +0.000 A 
ATOM     14  O   UNL     1       6.312   4.442  18.775  0.00  0.00    +0.000 OA
ENDROOT
BRANCH   7  15
ATOM     15  N   UNL     1       3.241   7.028  18.511  0.00  0.00    +0.000 N 
ATOM     16  C   UNL     1       2.580   8.076  17.927  0.00  0.00    +0.000 C 
ATOM     17  O   UNL     1       2.680   8.344  16.733  0.00  0.00    +0.000 OA
ATOM     18  H   UNL     1       3.117   6.851  19.508  0.00  0.00    +0.000 HD
BRANCH  16  19
ATOM     19  C   UNL     1       1.742   8.918  18.838  0.00  0.00    +0.000 A 
ATOM     20  C   UNL     1       1.331  10.126  18.405  0.00  0.00    +0.000 A 
ATOM     21  C   UNL     1       0.635  11.055  19.271  0.00  0.00    +0.000 A 
ATOM     22  C   UNL     1       0.402  10.741  20.558  0.00  0.00    +0.000 A 
ATOM     23  N   UNL     1       0.768   9.481  21.003  0.00  0.00    +0.000 N 
ATOM     24  C   UNL     1       1.385   8.527  20.232  0.00  0.00    +0.000 A 
ATOM     25  O   UNL     1       1.640   7.414  20.689  0.00  0.00    +0.000 OA
ATOM     26  H   UNL     1       0.571   9.215  21.966  0.00  0.00    +0.000 HD
BRANCH  22  27
ATOM     27  C   UNL     1      -0.214  11.705  21.548  0.00  0.00    +0.000 C 
ATOM     28  F   UNL     1       0.541  12.827  21.682  0.00  0.00    +0.000 F 
ATOM     29  F   UNL     1      -1.448  12.107  21.153  0.00  0.00    +0.000 F 
ATOM     30  F   UNL     1      -0.344  11.163  22.783  0.00  0.00    +0.000 F 
ENDBRANCH  22  27
ENDBRANCH  16  19
ENDBRANCH   7  15
BRANCH   1  31
ATOM     31  C   UNL     1       1.088   2.220  18.709  0.00  0.00    +0.000 C 
BRANCH  31  33
ATOM     32  C   UNL     1       0.961   2.998  21.099  0.00  0.00    +0.000 C 
ATOM     33  C   UNL     1       0.360   2.607  19.967  0.00  0.00    +0.000 C 
ENDBRANCH  31  33
ENDBRANCH   1  31
TORSDOF 5
ENDMDL
