MODEL 1
REMARK VINA RESULT:      -8.2      0.000      0.000
REMARK  Name = 
REMARK  16 active torsions:
REMARK  status: ('A' for Active; 'I' for Inactive)
REMARK    1  A    between atoms: C_1  and  C_2
REMARK    2  A    between atoms: C_2  and  C_3
REMARK    3  A    between atoms: C_3  and  C_4
REMARK    4  A    between atoms: C_3  and  O_6
REMARK    5  A    between atoms: C_4  and  C_5
REMARK    6  A    between atoms: O_6  and  C_7
REMARK    7  A    between atoms: C_9  and  C_10
REMARK    8  A    between atoms: C_10  and  O_12
REMARK    9  A    between atoms: C_14  and  N_15
REMARK   10  A    between atoms: N_15  and  C_16
REMARK   11  A    between atoms: C_16  and  C_17
REMARK   12  A    between atoms: C_20  and  C_21
REMARK   13  A    between atoms: C_22  and  C_23
REMARK   14  A    between atoms: C_26  and  C_27
REMARK   15  A    between atoms: C_29  and  N_30
REMARK   16  A    between atoms: C_31  and  C_32
REMARK                            x       y       z     vdW  Elec       q    Type
REMARK                         _______ _______ _______ _____ _____    ______ ____
ROOT
ATOM      1  C   UNL     1       5.277   4.178  16.702  0.00  0.00    +0.000 C 
ATOM      2  C   UNL     1       6.120   4.470  17.922  0.00  0.00    +0.000 C 
ATOM      3  C   UNL     1       6.550   5.701  18.263  0.00  0.00    +0.000 C 
ATOM      4  C   UNL     1       6.116   6.953  17.544  0.00  0.00    +0.000 C 
ATOM      5  C   UNL     1       4.902   6.762  16.631  0.00  0.00    +0.000 C 
ATOM      6  C   UNL     1       5.093   5.428  15.790  0.00  0.00    +0.000 C 
ENDROOT
BRANCH   6   7
ATOM      7  N   UNL     1       6.281   5.500  14.860  0.00  0.00    +0.000 N 
ATOM      8  C   UNL     1       6.425   4.708  13.749  0.00  0.00    +0.000 C 
ATOM      9  C   UNL     1       7.722   4.909  12.993  0.00  0.00    +0.000 C 
ATOM     10  O   UNL     1       5.589   3.885  13.396  0.00  0.00    +0.000 OA
ATOM     11  H   UNL     1       7.117   5.958  15.194  0.00  0.00    +0.000 HD
ENDBRANCH   6   7
BRANCH   3  12
ATOM     12  C   UNL     1       7.562   5.960  19.324  0.00  0.00    +0.000 C 
ATOM     13  O   UNL     1       7.622   5.314  20.353  0.00  0.00    +0.000 OA
BRANCH  12  14
ATOM     14  O   UNL     1       8.448   6.929  19.022  0.00  0.00    +0.000 OA
ATOM     15  H   UNL     1       8.967   6.761  18.216  0.00  0.00    +0.000 HD
ENDBRANCH  12  14
ENDBRANCH   3  12
BRANCH   5  16
ATOM     16  N   UNL     1       3.629   7.252  17.240  0.00  0.00    +0.000 NA
ATOM     17  H   UNL     1       2.893   7.006  16.571  0.00  0.00    +0.000 HD
BRANCH  16  18
ATOM     18  C   UNL     1       3.080   6.951  18.571  0.00  0.00    +0.000 C 
BRANCH  18  19
ATOM     19  C   UNL     1       2.178   7.931  19.305  0.00  0.00    +0.000 A 
ATOM     20  C   UNL     1       1.535   7.978  20.521  0.00  0.00    +0.000 A 
ATOM     21  C   UNL     1       0.676   9.112  20.526  0.00  0.00    +0.000 A 
ATOM     22  C   UNL     1       0.832   9.754  19.318  0.00  0.00    +0.000 A 
ATOM     23  O   UNL     1       1.762   9.039  18.580  0.00  0.00    +0.000 OA
BRANCH  22  24
ATOM     24  C   UNL     1       0.122  10.990  18.840  0.00  0.00    +0.000 A 
ATOM     25  C   UNL     1       0.321  12.393  19.050  0.00  0.00    +0.000 A 
ATOM     26  C   UNL     1       1.291  13.165  19.850  0.00  0.00    +0.000 C 
ATOM     27  N   UNL     1      -0.597  13.114  18.372  0.00  0.00    +0.000 NA
ATOM     28  O   UNL     1      -1.416  12.202  17.764  0.00  0.00    +0.000 OA
ATOM     29  C   UNL     1      -1.008  10.944  18.046  0.00  0.00    +0.000 A 
ATOM     30  C   UNL     1      -1.844   9.864  17.503  0.00  0.00    +0.000 C 
ENDBRANCH  22  24
ENDBRANCH  18  19
ENDBRANCH  16  18
ENDBRANCH   5  16
BRANCH   1  31
ATOM     31  O   UNL     1       3.984   3.630  16.915  0.00  0.00    +0.000 OA
BRANCH  31  32
ATOM     32  C   UNL     1       3.424   3.451  18.217  0.00  0.00    +0.000 C 
BRANCH  32  34
ATOM     33  C   UNL     1       1.017   2.493  18.626  0.00  0.00    +0.000 C 
ATOM     34  C   UNL     1       1.906   3.714  18.363  0.00  0.00    +0.000 C 
ENDBRANCH  32  34
BRANCH  32  35
ATOM     35  C   UNL     1       3.900   2.069  18.715  0.00  0.00    +0.000 C 
ATOM     36  C   UNL     1       4.451   1.994  20.127  0.00  0.00    +0.000 C 
ENDBRANCH  32  35
ENDBRANCH  31  32
ENDBRANCH   1  31
TORSDOF 11
ENDMDL
MODEL 2
REMARK VINA RESULT:      -8.1      1.081      1.120
REMARK  Name = 
REMARK  16 active torsions:
REMARK  status: ('A' for Active; 'I' for Inactive)
REMARK    1  A    between atoms: C_1  and  C_2
REMARK    2  A    between atoms: C_2  and  C_3
REMARK    3  A    between atoms: C_3  and  C_4
REMARK    4  A    between atoms: C_3  and  O_6
REMARK    5  A    between atoms: C_4  and  C_5
REMARK    6  A    between atoms: O_6  and  C_7
REMARK    7  A    between atoms: C_9  and  C_10
REMARK    8  A    between atoms: C_10  and  O_12
REMARK    9  A    between atoms: C_14  and  N_15
REMARK   10  A    between atoms: N_15  and  C_16
REMARK   11  A    between atoms: C_16  and  C_17
REMARK   12  A    between atoms: C_20  and  C_21
REMARK   13  A    between atoms: C_22  and  C_23
REMARK   14  A    between atoms: C_26  and  C_27
REMARK   15  A    between atoms: C_29  and  N_30
REMARK   16  A    between atoms: C_31  and  C_32
REMARK                            x       y       z     vdW  Elec       q    Type
REMARK                         _______ _______ _______ _____ _____    ______ ____
ROOT
ATOM      1  C   UNL     1       5.480   4.053  16.684  0.00  0.00    +0.000 C 
ATOM      2  C   UNL     1       6.333   4.361  17.893  0.00  0.00    +0.000 C 
ATOM      3  C   UNL     1       6.666   5.608  18.281  0.00  0.00    +0.000 C 
ATOM      4  C   UNL     1       6.105   6.848  17.635  0.00  0.00    +0.000 C 
ATOM      5  C   UNL     1       4.882   6.594  16.747  0.00  0.00    +0.000 C 
ATOM      6  C   UNL     1       5.161   5.321  15.839  0.00  0.00    +0.000 C 
ENDROOT
BRANCH   6   7
ATOM      7  N   UNL     1       6.308   5.539  14.881  0.00  0.00    +0.000 N 
ATOM      8  C   UNL     1       6.572   4.720  13.813  0.00  0.00    +0.000 C 
ATOM      9  C   UNL     1       7.806   5.092  13.019  0.00  0.00    +0.000 C 
ATOM     10  O   UNL     1       5.883   3.748  13.524  0.00  0.00    +0.000 OA
ATOM     11  H   UNL     1       7.058   6.150  15.170  0.00  0.00    +0.000 HD
ENDBRANCH   6   7
BRANCH   3  12
ATOM     12  C   UNL     1       7.685   5.906  19.325  0.00  0.00    +0.000 C 
ATOM     13  O   UNL     1       7.828   5.225  20.323  0.00  0.00    +0.000 OA
BRANCH  12  14
ATOM     14  O   UNL     1       8.481   6.955  19.041  0.00  0.00    +0.000 OA
ATOM     15  H   UNL     1       8.012   7.729  18.683  0.00  0.00    +0.000 HD
ENDBRANCH  12  14
ENDBRANCH   3  12
BRANCH   5  16
ATOM     16  N   UNL     1       3.592   6.944  17.414  0.00  0.00    +0.000 NA
ATOM     17  H   UNL     1       3.657   6.552  18.359  0.00  0.00    +0.000 HD
BRANCH  16  18
ATOM     18  C   UNL     1       2.978   8.272  17.571  0.00  0.00    +0.000 C 
BRANCH  18  19
ATOM     19  C   UNL     1       2.086   8.606  18.756  0.00  0.00    +0.000 A 
ATOM     20  C   UNL     1       1.808   8.053  19.985  0.00  0.00    +0.000 A 
ATOM     21  C   UNL     1       0.717   8.763  20.556  0.00  0.00    +0.000 A 
ATOM     22  C   UNL     1       0.364   9.759  19.673  0.00  0.00    +0.000 A 
ATOM     23  O   UNL     1       1.213   9.670  18.581  0.00  0.00    +0.000 OA
BRANCH  22  24
ATOM     24  C   UNL     1      -0.748  10.761  19.818  0.00  0.00    +0.000 A 
ATOM     25  C   UNL     1      -1.130  11.676  20.852  0.00  0.00    +0.000 A 
ATOM     26  C   UNL     1      -0.589  11.965  22.193  0.00  0.00    +0.000 C 
ATOM     27  N   UNL     1      -2.219  12.385  20.485  0.00  0.00    +0.000 NA
ATOM     28  O   UNL     1      -2.578  11.912  19.252  0.00  0.00    +0.000 OA
ATOM     29  C   UNL     1      -1.723  10.942  18.855  0.00  0.00    +0.000 A 
ATOM     30  C   UNL     1      -2.034  10.303  17.569  0.00  0.00    +0.000 C 
ENDBRANCH  22  24
ENDBRANCH  18  19
ENDBRANCH  16  18
ENDBRANCH   5  16
BRANCH   1  31
ATOM     31  O   UNL     1       4.246   3.385  16.906  0.00  0.00    +0.000 OA
BRANCH  31  32
ATOM     32  C   UNL     1       3.580   3.389  18.170  0.00  0.00    +0.000 C 
BRANCH  32  34
ATOM     33  C   UNL     1       1.556   4.392  19.503  0.00  0.00    +0.000 C 
ATOM     34  C   UNL     1       2.103   3.851  18.176  0.00  0.00    +0.000 C 
ENDBRANCH  32  34
BRANCH  32  35
ATOM     35  C   UNL     1       3.836   2.007  18.807  0.00  0.00    +0.000 C 
ATOM     36  C   UNL     1       4.412   1.988  20.212  0.00  0.00    +0.000 C 
ENDBRANCH  32  35
ENDBRANCH  31  32
ENDBRANCH   1  31
TORSDOF 11
ENDMDL
MODEL 3
REMARK VINA RESULT:      -8.0      1.948      2.463
REMARK  Name = 
REMARK  16 active torsions:
REMARK  status: ('A' for Active; 'I' for Inactive)
REMARK    1  A    between atoms: C_1  and  C_2
REMARK    2  A    between atoms: C_2  and  C_3
REMARK    3  A    between atoms: C_3  and  C_4
REMARK    4  A    between atoms: C_3  and  O_6
REMARK    5  A    between atoms: C_4  and  C_5
REMARK    6  A    between atoms: O_6  and  C_7
REMARK    7  A    between atoms: C_9  and  C_10
REMARK    8  A    between atoms: C_10  and  O_12
REMARK    9  A    between atoms: C_14  and  N_15
REMARK   10  A    between atoms: N_15  and  C_16
REMARK   11  A    between atoms: C_16  and  C_17
REMARK   12  A    between atoms: C_20  and  C_21
REMARK   13  A    between atoms: C_22  and  C_23
REMARK   14  A    between atoms: C_26  and  C_27
REMARK   15  A    between atoms: C_29  and  N_30
REMARK   16  A    between atoms: C_31  and  C_32
REMARK                            x       y       z     vdW  Elec       q    Type
REMARK                         _______ _______ _______ _____ _____    ______ ____
ROOT
ATOM      1  C   UNL     1       4.550   4.107  18.287  0.00  0.00    +0.000 C 
ATOM      2  C   UNL     1       5.760   4.538  19.084  0.00  0.00    +0.000 C 
ATOM      3  C   UNL     1       6.542   5.587  18.755  0.00  0.00    +0.000 C 
ATOM      4  C   UNL     1       6.214   6.539  17.635  0.00  0.00    +0.000 C 
ATOM      5  C   UNL     1       4.774   6.435  17.126  0.00  0.00    +0.000 C 
ATOM      6  C   UNL     1       4.396   4.902  16.957  0.00  0.00    +0.000 C 
ENDROOT
BRANCH   6   7
ATOM      7  N   UNL     1       5.238   4.215  15.907  0.00  0.00    +0.000 N 
ATOM      8  C   UNL     1       5.636   4.815  14.740  0.00  0.00    +0.000 C 
ATOM      9  C   UNL     1       6.425   3.923  13.806  0.00  0.00    +0.000 C 
ATOM     10  O   UNL     1       5.364   5.975  14.453  0.00  0.00    +0.000 OA
ATOM     11  H   UNL     1       5.301   3.208  15.936  0.00  0.00    +0.000 HD
ENDBRANCH   6   7
BRANCH   3  12
ATOM     12  C   UNL     1       7.854   5.873  19.399  0.00  0.00    +0.000 C 
ATOM     13  O   UNL     1       8.374   5.124  20.204  0.00  0.00    +0.000 OA
BRANCH  12  14
ATOM     14  O   UNL     1       8.450   7.002  18.967  0.00  0.00    +0.000 OA
ATOM     15  H   UNL     1       9.225   6.853  18.396  0.00  0.00    +0.000 HD
ENDBRANCH  12  14
ENDBRANCH   3  12
BRANCH   5  16
ATOM     16  N   UNL     1       3.887   7.515  17.653  0.00  0.00    +0.000 NA
ATOM     17  H   UNL     1       3.602   8.060  16.834  0.00  0.00    +0.000 HD
BRANCH  16  18
ATOM     18  C   UNL     1       2.680   7.379  18.484  0.00  0.00    +0.000 C 
BRANCH  18  19
ATOM     19  C   UNL     1       1.679   8.513  18.634  0.00  0.00    +0.000 A 
ATOM     20  C   UNL     1       0.982   9.348  17.791  0.00  0.00    +0.000 A 
ATOM     21  C   UNL     1       0.340  10.342  18.580  0.00  0.00    +0.000 A 
ATOM     22  C   UNL     1       0.636  10.078  19.899  0.00  0.00    +0.000 A 
ATOM     23  O   UNL     1       1.442   8.951  19.930  0.00  0.00    +0.000 OA
BRANCH  22  24
ATOM     24  C   UNL     1       0.206  10.861  21.108  0.00  0.00    +0.000 A 
ATOM     25  C   UNL     1       0.193  12.256  21.435  0.00  0.00    +0.000 A 
ATOM     26  C   UNL     1       0.631  13.464  20.711  0.00  0.00    +0.000 C 
ATOM     27  N   UNL     1      -0.316  12.454  22.669  0.00  0.00    +0.000 NA
ATOM     28  O   UNL     1      -0.590  11.209  23.167  0.00  0.00    +0.000 OA
ATOM     29  C   UNL     1      -0.271  10.260  22.258  0.00  0.00    +0.000 A 
ATOM     30  C   UNL     1      -0.458   8.869  22.693  0.00  0.00    +0.000 C 
ENDBRANCH  22  24
ENDBRANCH  18  19
ENDBRANCH  16  18
ENDBRANCH   5  16
BRANCH   1  31
ATOM     31  O   UNL     1       3.289   4.147  18.939  0.00  0.00    +0.000 OA
BRANCH  31  32
ATOM     32  C   UNL     1       2.890   3.182  19.913  0.00  0.00    +0.000 C 
BRANCH  32  34
ATOM     33  C   UNL     1       1.447   2.707  22.052  0.00  0.00    +0.000 C 
ATOM     34  C   UNL     1       2.205   3.725  21.191  0.00  0.00    +0.000 C 
ENDBRANCH  32  34
BRANCH  32  35
ATOM     35  C   UNL     1       2.097   2.095  19.157  0.00  0.00    +0.000 C 
ATOM     36  C   UNL     1       0.734   2.483  18.616  0.00  0.00    +0.000 C 
ENDBRANCH  32  35
ENDBRANCH  31  32
ENDBRANCH   1  31
TORSDOF 11
ENDMDL
MODEL 4
REMARK VINA RESULT:      -7.8      3.595      6.757
REMARK  Name = 
REMARK  16 active torsions:
REMARK  status: ('A' for Active; 'I' for Inactive)
REMARK    1  A    between atoms: C_1  and  C_2
REMARK    2  A    between atoms: C_2  and  C_3
REMARK    3  A    between atoms: C_3  and  C_4
REMARK    4  A    between atoms: C_3  and  O_6
REMARK    5  A    between atoms: C_4  and  C_5
REMARK    6  A    between atoms: O_6  and  C_7
REMARK    7  A    between atoms: C_9  and  C_10
REMARK    8  A    between atoms: C_10  and  O_12
REMARK    9  A    between atoms: C_14  and  N_15
REMARK   10  A    between atoms: N_15  and  C_16
REMARK   11  A    between atoms: C_16  and  C_17
REMARK   12  A    between atoms: C_20  and  C_21
REMARK   13  A    between atoms: C_22  and  C_23
REMARK   14  A    between atoms: C_26  and  C_27
REMARK   15  A    between atoms: C_29  and  N_30
REMARK   16  A    between atoms: C_31  and  C_32
REMARK                            x       y       z     vdW  Elec       q    Type
REMARK                         _______ _______ _______ _____ _____    ______ ____
ROOT
ATOM      1  C   UNL     1       3.823   5.599  17.044  0.00  0.00    +0.000 C 
ATOM      2  C   UNL     1       3.280   4.423  17.822  0.00  0.00    +0.000 C 
ATOM      3  C   UNL     1       4.031   3.380  18.230  0.00  0.00    +0.000 C 
ATOM      4  C   UNL     1       5.530   3.337  18.082  0.00  0.00    +0.000 C 
ATOM      5  C   UNL     1       6.166   4.690  17.754  0.00  0.00    +0.000 C 
ATOM      6  C   UNL     1       5.309   5.402  16.622  0.00  0.00    +0.000 C 
ENDROOT
BRANCH   6   7
ATOM      7  N   UNL     1       5.322   4.632  15.322  0.00  0.00    +0.000 N 
ATOM      8  C   UNL     1       6.382   4.631  14.451  0.00  0.00    +0.000 C 
ATOM      9  C   UNL     1       6.156   3.837  13.181  0.00  0.00    +0.000 C 
ATOM     10  O   UNL     1       7.427   5.236  14.660  0.00  0.00    +0.000 OA
ATOM     11  H   UNL     1       4.439   4.314  14.952  0.00  0.00    +0.000 HD
ENDBRANCH   6   7
BRANCH   3  12
ATOM     12  C   UNL     1       3.464   2.122  18.790  0.00  0.00    +0.000 C 
ATOM     13  O   UNL     1       2.422   2.087  19.417  0.00  0.00    +0.000 OA
BRANCH  12  14
ATOM     14  O   UNL     1       4.169   1.013  18.490  0.00  0.00    +0.000 OA
ATOM     15  H   UNL     1       4.926   1.167  17.897  0.00  0.00    +0.000 HD
ENDBRANCH  12  14
ENDBRANCH   3  12
BRANCH   5  16
ATOM     16  N   UNL     1       6.788   5.348  18.942  0.00  0.00    +0.000 NA
ATOM     17  H   UNL     1       6.877   4.611  19.648  0.00  0.00    +0.000 HD
BRANCH  16  18
ATOM     18  C   UNL     1       8.039   6.119  19.007  0.00  0.00    +0.000 C 
BRANCH  18  19
ATOM     19  C   UNL     1       8.100   7.583  18.600  0.00  0.00    +0.000 A 
ATOM     20  C   UNL     1       7.728   8.333  17.508  0.00  0.00    +0.000 A 
ATOM     21  C   UNL     1       8.243   9.647  17.673  0.00  0.00    +0.000 A 
ATOM     22  C   UNL     1       8.901   9.684  18.883  0.00  0.00    +0.000 A 
ATOM     23  O   UNL     1       8.798   8.425  19.454  0.00  0.00    +0.000 OA
BRANCH  22  24
ATOM     24  C   UNL     1       9.631  10.848  19.493  0.00  0.00    +0.000 A 
ATOM     25  C   UNL     1       9.543  11.525  20.752  0.00  0.00    +0.000 A 
ATOM     26  C   UNL     1       8.670  11.355  21.929  0.00  0.00    +0.000 C 
ATOM     27  N   UNL     1      10.450  12.522  20.824  0.00  0.00    +0.000 NA
ATOM     28  O   UNL     1      11.092  12.534  19.617  0.00  0.00    +0.000 OA
ATOM     29  C   UNL     1      10.606  11.557  18.817  0.00  0.00    +0.000 A 
ATOM     30  C   UNL     1      11.170  11.500  17.462  0.00  0.00    +0.000 C 
ENDBRANCH  22  24
ENDBRANCH  18  19
ENDBRANCH  16  18
ENDBRANCH   5  16
BRANCH   1  31
ATOM     31  O   UNL     1       3.734   6.882  17.649  0.00  0.00    +0.000 OA
BRANCH  31  32
ATOM     32  C   UNL     1       2.544   7.359  18.278  0.00  0.00    +0.000 C 
BRANCH  32  34
ATOM     33  C   UNL     1       1.606   6.170  20.420  0.00  0.00    +0.000 C 
ATOM     34  C   UNL     1       2.491   7.271  19.823  0.00  0.00    +0.000 C 
ENDBRANCH  32  34
BRANCH  32  35
ATOM     35  C   UNL     1       2.268   8.760  17.693  0.00  0.00    +0.000 C 
ATOM     36  C   UNL     1       1.043   9.496  18.206  0.00  0.00    +0.000 C 
ENDBRANCH  32  35
ENDBRANCH  31  32
ENDBRANCH   1  31
TORSDOF 11
ENDMDL
MODEL 5
REMARK VINA RESULT:      -7.8      2.395      9.479
REMARK  Name = 
REMARK  16 active torsions:
REMARK  status: ('A' for Active; 'I' for Inactive)
REMARK    1  A    between atoms: C_1  and  C_2
REMARK    2  A    between atoms: C_2  and  C_3
REMARK    3  A    between atoms: C_3  and  C_4
REMARK    4  A    between atoms: C_3  and  O_6
REMARK    5  A    between atoms: C_4  and  C_5
REMARK    6  A    between atoms: O_6  and  C_7
REMARK    7  A    between atoms: C_9  and  C_10
REMARK    8  A    between atoms: C_10  and  O_12
REMARK    9  A    between atoms: C_14  and  N_15
REMARK   10  A    between atoms: N_15  and  C_16
REMARK   11  A    between atoms: C_16  and  C_17
REMARK   12  A    between atoms: C_20  and  C_21
REMARK   13  A    between atoms: C_22  and  C_23
REMARK   14  A    between atoms: C_26  and  C_27
REMARK   15  A    between atoms: C_29  and  N_30
REMARK   16  A    between atoms: C_31  and  C_32
REMARK                            x       y       z     vdW  Elec       q    Type
REMARK                         _______ _______ _______ _____ _____    ______ ____
ROOT
ATOM      1  C   UNL     1       0.609  12.450  19.585  0.00  0.00    +0.000 C 
ATOM      2  C   UNL     1       1.021  11.637  20.790  0.00  0.00    +0.000 C 
ATOM      3  C   UNL     1       0.774  10.318  20.927  0.00  0.00    +0.000 C 
ATOM      4  C   UNL     1       0.185   9.472  19.829  0.00  0.00    +0.000 C 
ATOM      5  C   UNL     1       0.207  10.134  18.448  0.00  0.00    +0.000 C 
ATOM      6  C   UNL     1      -0.275  11.641  18.591  0.00  0.00    +0.000 C 
ENDROOT
BRANCH   6   7
ATOM      7  N   UNL     1      -1.709  11.743  19.057  0.00  0.00    +0.000 N 
ATOM      8  C   UNL     1      -2.789  11.651  18.217  0.00  0.00    +0.000 C 
ATOM      9  C   UNL     1      -4.133  11.841  18.890  0.00  0.00    +0.000 C 
ATOM     10  O   UNL     1      -2.690  11.451  17.012  0.00  0.00    +0.000 OA
ATOM     11  H   UNL     1      -1.883  12.146  19.966  0.00  0.00    +0.000 HD
ENDBRANCH   6   7
BRANCH   3  12
ATOM     12  C   UNL     1       0.971   9.569  22.199  0.00  0.00    +0.000 C 
ATOM     13  O   UNL     1       0.464   9.906  23.251  0.00  0.00    +0.000 OA
BRANCH  12  14
ATOM     14  O   UNL     1       1.707   8.447  22.074  0.00  0.00    +0.000 OA
ATOM     15  H   UNL     1       1.280   7.645  22.425  0.00  0.00    +0.000 HD
ENDBRANCH  12  14
ENDBRANCH   3  12
BRANCH   5  16
ATOM     16  N   UNL     1       1.313   9.635  17.577  0.00  0.00    +0.000 NA
ATOM     17  H   UNL     1       1.485  10.383  16.898  0.00  0.00    +0.000 HD
BRANCH  16  18
ATOM     18  C   UNL     1       2.640   9.144  17.980  0.00  0.00    +0.000 C 
BRANCH  18  19
ATOM     19  C   UNL     1       3.021   7.678  17.862  0.00  0.00    +0.000 A 
ATOM     20  C   UNL     1       2.440   6.467  18.162  0.00  0.00    +0.000 A 
ATOM     21  C   UNL     1       3.415   5.448  17.981  0.00  0.00    +0.000 A 
ATOM     22  C   UNL     1       4.572   6.055  17.546  0.00  0.00    +0.000 A 
ATOM     23  O   UNL     1       4.323   7.416  17.459  0.00  0.00    +0.000 OA
BRANCH  22  24
ATOM     24  C   UNL     1       5.889   5.400  17.237  0.00  0.00    +0.000 A 
ATOM     25  C   UNL     1       7.111   5.236  17.966  0.00  0.00    +0.000 A 
ATOM     26  C   UNL     1       7.556   5.680  19.300  0.00  0.00    +0.000 C 
ATOM     27  N   UNL     1       8.013   4.543  17.240  0.00  0.00    +0.000 NA
ATOM     28  O   UNL     1       7.414   4.295  16.035  0.00  0.00    +0.000 OA
ATOM     29  C   UNL     1       6.164   4.810  16.017  0.00  0.00    +0.000 A 
ATOM     30  C   UNL     1       5.430   4.667  14.752  0.00  0.00    +0.000 C 
ENDBRANCH  22  24
ENDBRANCH  18  19
ENDBRANCH  16  18
ENDBRANCH   5  16
BRANCH   1  31
ATOM     31  O   UNL     1       1.641  13.056  18.819  0.00  0.00    +0.000 OA
BRANCH  31  32
ATOM     32  C   UNL     1       1.809  14.471  18.730  0.00  0.00    +0.000 C 
BRANCH  32  34
ATOM     33  C   UNL     1       2.836  14.920  21.102  0.00  0.00    +0.000 C 
ATOM     34  C   UNL     1       1.763  15.262  20.061  0.00  0.00    +0.000 C 
ENDBRANCH  32  34
BRANCH  32  35
ATOM     35  C   UNL     1       3.067  14.712  17.869  0.00  0.00    +0.000 C 
ATOM     36  C   UNL     1       3.459  16.154  17.603  0.00  0.00    +0.000 C 
ENDBRANCH  32  35
ENDBRANCH  31  32
ENDBRANCH   1  31
TORSDOF 11
ENDMDL
MODEL 6
REMARK VINA RESULT:      -7.8      2.551      9.499
REMARK  Name = 
REMARK  16 active torsions:
REMARK  status: ('A' for Active; 'I' for Inactive)
REMARK    1  A    between atoms: C_1  and  C_2
REMARK    2  A    between atoms: C_2  and  C_3
REMARK    3  A    between atoms: C_3  and  C_4
REMARK    4  A    between atoms: C_3  and  O_6
REMARK    5  A    between atoms: C_4  and  C_5
REMARK    6  A    between atoms: O_6  and  C_7
REMARK    7  A    between atoms: C_9  and  C_10
REMARK    8  A    between atoms: C_10  and  O_12
REMARK    9  A    between atoms: C_14  and  N_15
REMARK   10  A    between atoms: N_15  and  C_16
REMARK   11  A    between atoms: C_16  and  C_17
REMARK   12  A    between atoms: C_20  and  C_21
REMARK   13  A    between atoms: C_22  and  C_23
REMARK   14  A    between atoms: C_26  and  C_27
REMARK   15  A    between atoms: C_29  and  N_30
REMARK   16  A    between atoms: C_31  and  C_32
REMARK                            x       y       z     vdW  Elec       q    Type
REMARK                         _______ _______ _______ _____ _____    ______ ____
ROOT
ATOM      1  C   UNL     1      -1.474  11.344  18.844  0.00  0.00    +0.000 C 
ATOM      2  C   UNL     1      -0.446  12.253  18.209  0.00  0.00    +0.000 C 
ATOM      3  C   UNL     1       0.791  12.452  18.707  0.00  0.00    +0.000 C 
ATOM      4  C   UNL     1       1.343  11.678  19.875  0.00  0.00    +0.000 C 
ATOM      5  C   UNL     1       0.537  10.426  20.235  0.00  0.00    +0.000 C 
ATOM      6  C   UNL     1      -1.010  10.787  20.223  0.00  0.00    +0.000 C 
ENDROOT
BRANCH   6   7
ATOM      7  N   UNL     1      -1.370  11.807  21.278  0.00  0.00    +0.000 N 
ATOM      8  C   UNL     1      -1.150  11.622  22.619  0.00  0.00    +0.000 C 
ATOM      9  C   UNL     1      -1.642  12.749  23.503  0.00  0.00    +0.000 C 
ATOM     10  O   UNL     1      -0.616  10.621  23.082  0.00  0.00    +0.000 OA
ATOM     11  H   UNL     1      -2.022  12.536  21.028  0.00  0.00    +0.000 HD
ENDBRANCH   6   7
BRANCH   3  12
ATOM     12  C   UNL     1       1.716  13.512  18.220  0.00  0.00    +0.000 C 
ATOM     13  O   UNL     1       1.681  14.658  18.625  0.00  0.00    +0.000 OA
BRANCH  12  14
ATOM     14  O   UNL     1       2.640  13.081  17.339  0.00  0.00    +0.000 OA
ATOM     15  H   UNL     1       3.560  13.272  17.596  0.00  0.00    +0.000 HD
ENDBRANCH  12  14
ENDBRANCH   3  12
BRANCH   5  16
ATOM     16  N   UNL     1       1.158   9.165  19.729  0.00  0.00    +0.000 NA
ATOM     17  H   UNL     1       0.394   8.483  19.683  0.00  0.00    +0.000 HD
BRANCH  16  18
ATOM     18  C   UNL     1       1.949   8.966  18.505  0.00  0.00    +0.000 C 
BRANCH  18  19
ATOM     19  C   UNL     1       2.645   7.647  18.207  0.00  0.00    +0.000 A 
ATOM     20  C   UNL     1       2.520   6.338  18.611  0.00  0.00    +0.000 A 
ATOM     21  C   UNL     1       3.624   5.605  18.094  0.00  0.00    +0.000 A 
ATOM     22  C   UNL     1       4.392   6.479  17.357  0.00  0.00    +0.000 A 
ATOM     23  O   UNL     1       3.782   7.723  17.415  0.00  0.00    +0.000 OA
BRANCH  22  24
ATOM     24  C   UNL     1       5.675   6.183  16.632  0.00  0.00    +0.000 A 
ATOM     25  C   UNL     1       6.062   5.206  15.658  0.00  0.00    +0.000 A 
ATOM     26  C   UNL     1       5.348   4.088  15.014  0.00  0.00    +0.000 C 
ATOM     27  N   UNL     1       7.352   5.373  15.300  0.00  0.00    +0.000 NA
ATOM     28  O   UNL     1       7.822   6.410  16.058  0.00  0.00    +0.000 OA
ATOM     29  C   UNL     1       6.843   6.887  16.859  0.00  0.00    +0.000 A 
ATOM     30  C   UNL     1       7.234   7.967  17.775  0.00  0.00    +0.000 C 
ENDBRANCH  22  24
ENDBRANCH  18  19
ENDBRANCH  16  18
ENDBRANCH   5  16
BRANCH   1  31
ATOM     31  O   UNL     1      -1.925  10.232  18.082  0.00  0.00    +0.000 OA
BRANCH  31  32
ATOM     32  C   UNL     1      -3.109  10.270  17.285  0.00  0.00    +0.000 C 
BRANCH  32  34
ATOM     33  C   UNL     1      -5.127  11.926  17.026  0.00  0.00    +0.000 C 
ATOM     34  C   UNL     1      -4.350  10.948  17.916  0.00  0.00    +0.000 C 
ENDBRANCH  32  34
BRANCH  32  35
ATOM     35  C   UNL     1      -2.694  10.819  15.904  0.00  0.00    +0.000 C 
ATOM     36  C   UNL     1      -3.114  10.018  14.686  0.00  0.00    +0.000 C 
ENDBRANCH  32  35
ENDBRANCH  31  32
ENDBRANCH   1  31
TORSDOF 11
ENDMDL
MODEL 7
REMARK VINA RESULT:      -7.8      2.496      9.603
REMARK  Name = 
REMARK  16 active torsions:
REMARK  status: ('A' for Active; 'I' for Inactive)
REMARK    1  A    between atoms: C_1  and  C_2
REMARK    2  A    between atoms: C_2  and  C_3
REMARK    3  A    between atoms: C_3  and  C_4
REMARK    4  A    between atoms: C_3  and  O_6
REMARK    5  A    between atoms: C_4  and  C_5
REMARK    6  A    between atoms: O_6  and  C_7
REMARK    7  A    between atoms: C_9  and  C_10
REMARK    8  A    between atoms: C_10  and  O_12
REMARK    9  A    between atoms: C_14  and  N_15
REMARK   10  A    between atoms: N_15  and  C_16
REMARK   11  A    between atoms: C_16  and  C_17
REMARK   12  A    between atoms: C_20  and  C_21
REMARK   13  A    between atoms: C_22  and  C_23
REMARK   14  A    between atoms: C_26  and  C_27
REMARK   15  A    between atoms: C_29  and  N_30
REMARK   16  A    between atoms: C_31  and  C_32
REMARK                            x       y       z     vdW  Elec       q    Type
REMARK                         _______ _______ _______ _____ _____    ______ ____
ROOT
ATOM      1  C   UNL     1       0.097  12.384  19.692  0.00  0.00    +0.000 C 
ATOM      2  C   UNL     1       0.053  11.965  21.143  0.00  0.00    +0.000 C 
ATOM      3  C   UNL     1      -0.139  10.695  21.553  0.00  0.00    +0.000 C 
ATOM      4  C   UNL     1      -0.187   9.523  20.608  0.00  0.00    +0.000 C 
ATOM      5  C   UNL     1       0.335   9.831  19.201  0.00  0.00    +0.000 C 
ATOM      6  C   UNL     1      -0.264  11.221  18.721  0.00  0.00    +0.000 C 
ENDROOT
BRANCH   6   7
ATOM      7  N   UNL     1      -1.769  11.182  18.586  0.00  0.00    +0.000 N 
ATOM      8  C   UNL     1      -2.426  10.470  17.616  0.00  0.00    +0.000 C 
ATOM      9  C   UNL     1      -3.933  10.620  17.631  0.00  0.00    +0.000 C 
ATOM     10  O   UNL     1      -1.852   9.777  16.784  0.00  0.00    +0.000 OA
ATOM     11  H   UNL     1      -2.305  11.898  19.055  0.00  0.00    +0.000 HD
ENDBRANCH   6   7
BRANCH   3  12
ATOM     12  C   UNL     1      -0.412  10.315  22.966  0.00  0.00    +0.000 C 
ATOM     13  O   UNL     1       0.392   9.717  23.657  0.00  0.00    +0.000 OA
BRANCH  12  14
ATOM     14  O   UNL     1      -1.599  10.744  23.438  0.00  0.00    +0.000 OA
ATOM     15  H   UNL     1      -1.960  11.518  22.972  0.00  0.00    +0.000 HD
ENDBRANCH  12  14
ENDBRANCH   3  12
BRANCH   5  16
ATOM     16  N   UNL     1       1.726   9.337  18.972  0.00  0.00    +0.000 NA
ATOM     17  H   UNL     1       1.925   8.708  19.756  0.00  0.00    +0.000 HD
BRANCH  16  18
ATOM     18  C   UNL     1       2.274   8.678  17.777  0.00  0.00    +0.000 C 
BRANCH  18  19
ATOM     19  C   UNL     1       2.829   7.263  17.827  0.00  0.00    +0.000 A 
ATOM     20  C   UNL     1       2.432   6.051  18.344  0.00  0.00    +0.000 A 
ATOM     21  C   UNL     1       3.512   5.136  18.214  0.00  0.00    +0.000 A 
ATOM     22  C   UNL     1       4.545   5.801  17.592  0.00  0.00    +0.000 A 
ATOM     23  O   UNL     1       4.119   7.096  17.342  0.00  0.00    +0.000 OA
BRANCH  22  24
ATOM     24  C   UNL     1       5.908   5.264  17.253  0.00  0.00    +0.000 A 
ATOM     25  C   UNL     1       7.158   5.217  17.951  0.00  0.00    +0.000 A 
ATOM     26  C   UNL     1       7.595   5.711  19.270  0.00  0.00    +0.000 C 
ATOM     27  N   UNL     1       8.099   4.600  17.205  0.00  0.00    +0.000 NA
ATOM     28  O   UNL     1       7.494   4.289  16.018  0.00  0.00    +0.000 OA
ATOM     29  C   UNL     1       6.203   4.689  16.030  0.00  0.00    +0.000 A 
ATOM     30  C   UNL     1       5.453   4.470  14.786  0.00  0.00    +0.000 C 
ENDBRANCH  22  24
ENDBRANCH  18  19
ENDBRANCH  16  18
ENDBRANCH   5  16
BRANCH   1  31
ATOM     31  O   UNL     1       1.305  12.959  19.213  0.00  0.00    +0.000 OA
BRANCH  31  32
ATOM     32  C   UNL     1       1.584  14.358  19.298  0.00  0.00    +0.000 C 
BRANCH  32  34
ATOM     33  C   UNL     1       3.951  14.291  18.170  0.00  0.00    +0.000 C 
ATOM     34  C   UNL     1       2.562  14.937  18.247  0.00  0.00    +0.000 C 
ENDBRANCH  32  34
BRANCH  32  35
ATOM     35  C   UNL     1       0.219  15.074  19.387  0.00  0.00    +0.000 C 
ATOM     36  C   UNL     1       0.004  16.269  18.477  0.00  0.00    +0.000 C 
ENDBRANCH  32  35
ENDBRANCH  31  32
ENDBRANCH   1  31
TORSDOF 11
ENDMDL
MODEL 8
REMARK VINA RESULT:      -7.8      2.481      9.675
REMARK  Name = 
REMARK  16 active torsions:
REMARK  status: ('A' for Active; 'I' for Inactive)
REMARK    1  A    between atoms: C_1  and  C_2
REMARK    2  A    between atoms: C_2  and  C_3
REMARK    3  A    between atoms: C_3  and  C_4
REMARK    4  A    between atoms: C_3  and  O_6
REMARK    5  A    between atoms: C_4  and  C_5
REMARK    6  A    between atoms: O_6  and  C_7
REMARK    7  A    between atoms: C_9  and  C_10
REMARK    8  A    between atoms: C_10  and  O_12
REMARK    9  A    between atoms: C_14  and  N_15
REMARK   10  A    between atoms: N_15  and  C_16
REMARK   11  A    between atoms: C_16  and  C_17
REMARK   12  A    between atoms: C_20  and  C_21
REMARK   13  A    between atoms: C_22  and  C_23
REMARK   14  A    between atoms: C_26  and  C_27
REMARK   15  A    between atoms: C_29  and  N_30
REMARK   16  A    between atoms: C_31  and  C_32
REMARK                            x       y       z     vdW  Elec       q    Type
REMARK                         _______ _______ _______ _____ _____    ______ ____
ROOT
ATOM      1  C   UNL     1       0.295  12.539  19.647  0.00  0.00    +0.000 C 
ATOM      2  C   UNL     1       0.100  12.170  21.100  0.00  0.00    +0.000 C 
ATOM      3  C   UNL     1      -0.277  10.946  21.521  0.00  0.00    +0.000 C 
ATOM      4  C   UNL     1      -0.407   9.761  20.598  0.00  0.00    +0.000 C 
ATOM      5  C   UNL     1       0.244   9.962  19.226  0.00  0.00    +0.000 C 
ATOM      6  C   UNL     1      -0.142  11.401  18.677  0.00  0.00    +0.000 C 
ENDROOT
BRANCH   6   7
ATOM      7  N   UNL     1      -1.627  11.545  18.437  0.00  0.00    +0.000 N 
ATOM      8  C   UNL     1      -2.312  10.845  17.476  0.00  0.00    +0.000 C 
ATOM      9  C   UNL     1      -3.783  11.189  17.370  0.00  0.00    +0.000 C 
ATOM     10  O   UNL     1      -1.785  10.019  16.740  0.00  0.00    +0.000 OA
ATOM     11  H   UNL     1      -2.091  12.359  18.812  0.00  0.00    +0.000 HD
ENDBRANCH   6   7
BRANCH   3  12
ATOM     12  C   UNL     1      -0.691  10.643  22.919  0.00  0.00    +0.000 C 
ATOM     13  O   UNL     1      -1.747  11.017  23.392  0.00  0.00    +0.000 OA
BRANCH  12  14
ATOM     14  O   UNL     1       0.175   9.865  23.598  0.00  0.00    +0.000 OA
ATOM     15  H   UNL     1      -0.095   8.932  23.670  0.00  0.00    +0.000 HD
ENDBRANCH  12  14
ENDBRANCH   3  12
BRANCH   5  16
ATOM     16  N   UNL     1       1.575   9.294  19.107  0.00  0.00    +0.000 NA
ATOM     17  H   UNL     1       1.598   8.595  19.855  0.00  0.00    +0.000 HD
BRANCH  16  18
ATOM     18  C   UNL     1       2.164   8.640  17.928  0.00  0.00    +0.000 C 
BRANCH  18  19
ATOM     19  C   UNL     1       2.772   7.249  18.004  0.00  0.00    +0.000 A 
ATOM     20  C   UNL     1       2.503   6.076  18.672  0.00  0.00    +0.000 A 
ATOM     21  C   UNL     1       3.584   5.180  18.450  0.00  0.00    +0.000 A 
ATOM     22  C   UNL     1       4.486   5.815  17.625  0.00  0.00    +0.000 A 
ATOM     23  O   UNL     1       3.979   7.074  17.342  0.00  0.00    +0.000 OA
BRANCH  22  24
ATOM     24  C   UNL     1       5.800   5.284  17.124  0.00  0.00    +0.000 A 
ATOM     25  C   UNL     1       6.237   4.733  15.877  0.00  0.00    +0.000 A 
ATOM     26  C   UNL     1       5.547   4.443  14.605  0.00  0.00    +0.000 C 
ATOM     27  N   UNL     1       7.547   4.413  15.927  0.00  0.00    +0.000 NA
ATOM     28  O   UNL     1       7.956   4.704  17.200  0.00  0.00    +0.000 OA
ATOM     29  C   UNL     1       6.928   5.206  17.920  0.00  0.00    +0.000 A 
ATOM     30  C   UNL     1       7.218   5.504  19.329  0.00  0.00    +0.000 C 
ENDBRANCH  22  24
ENDBRANCH  18  19
ENDBRANCH  16  18
ENDBRANCH   5  16
BRANCH   1  31
ATOM     31  O   UNL     1       1.596  12.946  19.244  0.00  0.00    +0.000 OA
BRANCH  31  32
ATOM     32  C   UNL     1       1.838  14.150  18.516  0.00  0.00    +0.000 C 
BRANCH  32  34
ATOM     33  C   UNL     1       1.360  16.097  20.208  0.00  0.00    +0.000 C 
ATOM     34  C   UNL     1       0.984  15.382  18.905  0.00  0.00    +0.000 C 
ENDBRANCH  32  34
BRANCH  32  35
ATOM     35  C   UNL     1       3.364  14.379  18.537  0.00  0.00    +0.000 C 
ATOM     36  C   UNL     1       3.925  15.396  17.561  0.00  0.00    +0.000 C 
ENDBRANCH  32  35
ENDBRANCH  31  32
ENDBRANCH   1  31
TORSDOF 11
ENDMDL
MODEL 9
REMARK VINA RESULT:      -7.7      3.018      9.203
REMARK  Name = 
REMARK  16 active torsions:
REMARK  status: ('A' for Active; 'I' for Inactive)
REMARK    1  A    between atoms: C_1  and  C_2
REMARK    2  A    between atoms: C_2  and  C_3
REMARK    3  A    between atoms: C_3  and  C_4
REMARK    4  A    between atoms: C_3  and  O_6
REMARK    5  A    between atoms: C_4  and  C_5
REMARK    6  A    between atoms: O_6  and  C_7
REMARK    7  A    between atoms: C_9  and  C_10
REMARK    8  A    between atoms: C_10  and  O_12
REMARK    9  A    between atoms: C_14  and  N_15
REMARK   10  A    between atoms: N_15  and  C_16
REMARK   11  A    between atoms: C_16  and  C_17
REMARK   12  A    between atoms: C_20  and  C_21
REMARK   13  A    between atoms: C_22  and  C_23
REMARK   14  A    between atoms: C_26  and  C_27
REMARK   15  A    between atoms: C_29  and  N_30
REMARK   16  A    between atoms: C_31  and  C_32
REMARK                            x       y       z     vdW  Elec       q    Type
REMARK                         _______ _______ _______ _____ _____    ______ ____
ROOT
ATOM      1  C   UNL     1      -1.194  12.378  18.675  0.00  0.00    +0.000 C 
ATOM      2  C   UNL     1      -0.174  13.490  18.584  0.00  0.00    +0.000 C 
ATOM      3  C   UNL     1       1.123  13.350  18.924  0.00  0.00    +0.000 C 
ATOM      4  C   UNL     1       1.739  12.027  19.298  0.00  0.00    +0.000 C 
ATOM      5  C   UNL     1       0.880  10.812  18.935  0.00  0.00    +0.000 C 
ATOM      6  C   UNL     1      -0.624  11.098  19.357  0.00  0.00    +0.000 C 
ENDROOT
BRANCH   6   7
ATOM      7  N   UNL     1      -0.780  11.263  20.851  0.00  0.00    +0.000 N 
ATOM      8  C   UNL     1      -0.646  10.232  21.746  0.00  0.00    +0.000 C 
ATOM      9  C   UNL     1      -0.902  10.610  23.190  0.00  0.00    +0.000 C 
ATOM     10  O   UNL     1      -0.362   9.086  21.417  0.00  0.00    +0.000 OA
ATOM     11  H   UNL     1      -1.247  12.091  21.190  0.00  0.00    +0.000 HD
ENDBRANCH   6   7
BRANCH   3  12
ATOM     12  C   UNL     1       2.071  14.491  19.054  0.00  0.00    +0.000 C 
ATOM     13  O   UNL     1       2.034  15.468  18.330  0.00  0.00    +0.000 OA
BRANCH  12  14
ATOM     14  O   UNL     1       2.934  14.382  20.083  0.00  0.00    +0.000 OA
ATOM     15  H   UNL     1       3.857  14.225  19.818  0.00  0.00    +0.000 HD
ENDBRANCH  12  14
ENDBRANCH   3  12
BRANCH   5  16
ATOM     16  N   UNL     1       1.336  10.123  17.690  0.00  0.00    +0.000 NA
ATOM     17  H   UNL     1       1.697  10.865  17.084  0.00  0.00    +0.000 HD
BRANCH  16  18
ATOM     18  C   UNL     1       2.283   9.004  17.563  0.00  0.00    +0.000 C 
BRANCH  18  19
ATOM     19  C   UNL     1       2.218   7.792  18.479  0.00  0.00    +0.000 A 
ATOM     20  C   UNL     1       2.122   7.567  19.833  0.00  0.00    +0.000 A 
ATOM     21  C   UNL     1       2.304   6.176  20.067  0.00  0.00    +0.000 A 
ATOM     22  C   UNL     1       2.481   5.571  18.843  0.00  0.00    +0.000 A 
ATOM     23  O   UNL     1       2.413   6.559  17.873  0.00  0.00    +0.000 OA
BRANCH  22  24
ATOM     24  C   UNL     1       2.733   4.114  18.570  0.00  0.00    +0.000 A 
ATOM     25  C   UNL     1       3.667   3.405  17.748  0.00  0.00    +0.000 A 
ATOM     26  C   UNL     1       4.731   3.842  16.823  0.00  0.00    +0.000 C 
ATOM     27  N   UNL     1       3.492   2.072  17.864  0.00  0.00    +0.000 NA
ATOM     28  O   UNL     1       2.430   1.905  18.710  0.00  0.00    +0.000 OA
ATOM     29  C   UNL     1       1.964   3.106  19.121  0.00  0.00    +0.000 A 
ATOM     30  C   UNL     1       0.779   3.070  19.989  0.00  0.00    +0.000 C 
ENDBRANCH  22  24
ENDBRANCH  18  19
ENDBRANCH  16  18
ENDBRANCH   5  16
BRANCH   1  31
ATOM     31  O   UNL     1      -1.816  11.959  17.468  0.00  0.00    +0.000 OA
BRANCH  31  32
ATOM     32  C   UNL     1      -2.898  11.027  17.439  0.00  0.00    +0.000 C 
BRANCH  32  34
ATOM     33  C   UNL     1      -5.459  10.941  18.001  0.00  0.00    +0.000 C 
ATOM     34  C   UNL     1      -4.316  11.616  17.233  0.00  0.00    +0.000 C 
ENDBRANCH  32  34
BRANCH  32  35
ATOM     35  C   UNL     1      -2.498   9.919  16.442  0.00  0.00    +0.000 C 
ATOM     36  C   UNL     1      -2.967  10.076  15.007  0.00  0.00    +0.000 C 
ENDBRANCH  32  35
ENDBRANCH  31  32
ENDBRANCH   1  31
TORSDOF 11
ENDMDL
