MODEL 1
REMARK VINA RESULT:      -7.0      0.000      0.000
REMARK  Name = 
REMARK  9 active torsions:
REMARK  status: ('A' for Active; 'I' for Inactive)
REMARK    1  A    between atoms: C_1  and  C_2
REMARK    2  A    between atoms: C_2  and  N_3
REMARK    3  A    between atoms: N_3  and  C_4
REMARK    4  A    between atoms: N_3  and  C_6
REMARK    5  A    between atoms: C_4  and  C_5
REMARK    6  A    between atoms: C_6  and  C_7
REMARK    7  A    between atoms: C_7  and  O_8
REMARK    8  A    between atoms: O_8  and  C_9
REMARK    9  A    between atoms: C_12  and  C_13
REMARK                            x       y       z     vdW  Elec       q    Type
REMARK                         _______ _______ _______ _____ _____    ______ ____
ROOT
ATOM      1  C   UNL     1       6.851   5.454  17.775  0.00  0.00    +0.000 A 
ATOM      2  C   UNL     1       6.502   6.533  16.956  0.00  0.00    +0.000 A 
ATOM      3  C   UNL     1       7.076   7.796  17.143  0.00  0.00    +0.000 A 
ATOM      4  C   UNL     1       8.006   8.007  18.164  0.00  0.00    +0.000 A 
ATOM      5  C   UNL     1       8.349   6.924  18.987  0.00  0.00    +0.000 A 
ATOM      6  C   UNL     1       7.781   5.659  18.795  0.00  0.00    +0.000 A 
ENDROOT
BRANCH   4   7
ATOM      7  C   UNL     1       8.574   9.325  18.444  0.00  0.00    +0.000 A 
ATOM      8  N   UNL     1       8.472  10.373  17.650  0.00  0.00    +0.000 NA
ATOM      9  C   UNL     1       9.220  11.362  18.225  0.00  0.00    +0.000 A 
ATOM     10  C   UNL     1       9.484  12.655  17.749  0.00  0.00    +0.000 A 
ATOM     11  C   UNL     1      10.308  13.477  18.517  0.00  0.00    +0.000 A 
ATOM     12 CL   UNL     1      10.680  15.059  17.944  0.00  0.00    +0.000 Cl
ATOM     13  C   UNL     1      10.840  13.041  19.735  0.00  0.00    +0.000 A 
ATOM     14  C   UNL     1      10.571  11.758  20.229  0.00  0.00    +0.000 A 
ATOM     15  C   UNL     1       9.755  10.945  19.433  0.00  0.00    +0.000 A 
ATOM     16  N   UNL     1       9.306   9.654  19.566  0.00  0.00    +0.000 N 
ATOM     17  H   UNL     1       9.495   9.039  20.344  0.00  0.00    +0.000 HD
ENDBRANCH   4   7
BRANCH   1  18
ATOM     18  O   UNL     1       6.345   4.180  17.674  0.00  0.00    +0.000 OA
BRANCH  18  19
ATOM     19  C   UNL     1       4.915   4.098  17.730  0.00  0.00    +0.000 C 
BRANCH  19  20
ATOM     20  C   UNL     1       4.395   4.323  19.158  0.00  0.00    +0.000 C 
BRANCH  20  21
ATOM     21  N   UNL     1       3.049   4.942  19.212  0.00  0.00    +0.000 NA
BRANCH  21  23
ATOM     22  C   UNL     1       2.921   7.230  18.149  0.00  0.00    +0.000 C 
ATOM     23  C   UNL     1       2.805   5.716  17.982  0.00  0.00    +0.000 C 
ENDBRANCH  21  23
BRANCH  21  24
ATOM     24  C   UNL     1       1.967   4.003  19.550  0.00  0.00    +0.000 C 
ATOM     25  C   UNL     1       1.259   3.340  18.373  0.00  0.00    +0.000 C 
ENDBRANCH  21  24
ENDBRANCH  20  21
ENDBRANCH  19  20
ENDBRANCH  18  19
ENDBRANCH   1  18
TORSDOF 7
ENDMDL
MODEL 2
REMARK VINA RESULT:      -6.9      1.131      1.847
REMARK  Name = 
REMARK  9 active torsions:
REMARK  status: ('A' for Active; 'I' for Inactive)
REMARK    1  A    between atoms: C_1  and  C_2
REMARK    2  A    between atoms: C_2  and  N_3
REMARK    3  A    between atoms: N_3  and  C_4
REMARK    4  A    between atoms: N_3  and  C_6
REMARK    5  A    between atoms: C_4  and  C_5
REMARK    6  A    between atoms: C_6  and  C_7
REMARK    7  A    between atoms: C_7  and  O_8
REMARK    8  A    between atoms: O_8  and  C_9
REMARK    9  A    between atoms: C_12  and  C_13
REMARK                            x       y       z     vdW  Elec       q    Type
REMARK                         _______ _______ _______ _____ _____    ______ ____
ROOT
ATOM      1  C   UNL     1       6.989   5.271  17.523  0.00  0.00    +0.000 A 
ATOM      2  C   UNL     1       7.700   5.476  18.710  0.00  0.00    +0.000 A 
ATOM      3  C   UNL     1       8.190   6.744  19.048  0.00  0.00    +0.000 A 
ATOM      4  C   UNL     1       7.985   7.832  18.195  0.00  0.00    +0.000 A 
ATOM      5  C   UNL     1       7.277   7.620  17.002  0.00  0.00    +0.000 A 
ATOM      6  C   UNL     1       6.781   6.354  16.669  0.00  0.00    +0.000 A 
ENDROOT
BRANCH   4   7
ATOM      7  C   UNL     1       8.543   9.156  18.469  0.00  0.00    +0.000 A 
ATOM      8  N   UNL     1       8.407  10.208  17.685  0.00  0.00    +0.000 NA
ATOM      9  C   UNL     1       9.156  11.202  18.247  0.00  0.00    +0.000 A 
ATOM     10  C   UNL     1       9.391  12.501  17.774  0.00  0.00    +0.000 A 
ATOM     11  C   UNL     1      10.223  13.330  18.526  0.00  0.00    +0.000 A 
ATOM     12 CL   UNL     1      10.560  14.920  17.955  0.00  0.00    +0.000 Cl
ATOM     13  C   UNL     1      10.791  12.893  19.727  0.00  0.00    +0.000 A 
ATOM     14  C   UNL     1      10.551  11.603  20.219  0.00  0.00    +0.000 A 
ATOM     15  C   UNL     1       9.727  10.785  19.439  0.00  0.00    +0.000 A 
ATOM     16  N   UNL     1       9.298   9.487  19.575  0.00  0.00    +0.000 N 
ATOM     17  H   UNL     1       9.515   8.870  20.343  0.00  0.00    +0.000 HD
ENDBRANCH   4   7
BRANCH   1  18
ATOM     18  O   UNL     1       6.471   4.069  17.102  0.00  0.00    +0.000 OA
BRANCH  18  19
ATOM     19  C   UNL     1       5.084   4.106  16.745  0.00  0.00    +0.000 C 
BRANCH  19  20
ATOM     20  C   UNL     1       4.182   4.042  17.988  0.00  0.00    +0.000 C 
BRANCH  20  21
ATOM     21  N   UNL     1       3.567   2.712  18.211  0.00  0.00    +0.000 NA
BRANCH  21  23
ATOM     22  C   UNL     1       3.183   2.634  20.707  0.00  0.00    +0.000 C 
ATOM     23  C   UNL     1       4.007   2.168  19.508  0.00  0.00    +0.000 C 
ENDBRANCH  21  23
BRANCH  21  24
ATOM     24  C   UNL     1       2.109   2.682  18.016  0.00  0.00    +0.000 C 
ATOM     25  C   UNL     1       1.447   4.016  17.687  0.00  0.00    +0.000 C 
ENDBRANCH  21  24
ENDBRANCH  20  21
ENDBRANCH  19  20
ENDBRANCH  18  19
ENDBRANCH   1  18
TORSDOF 7
ENDMDL
MODEL 3
REMARK VINA RESULT:      -6.9      0.650      1.852
REMARK  Name = 
REMARK  9 active torsions:
REMARK  status: ('A' for Active; 'I' for Inactive)
REMARK    1  A    between atoms: C_1  and  C_2
REMARK    2  A    between atoms: C_2  and  N_3
REMARK    3  A    between atoms: N_3  and  C_4
REMARK    4  A    between atoms: N_3  and  C_6
REMARK    5  A    between atoms: C_4  and  C_5
REMARK    6  A    between atoms: C_6  and  C_7
REMARK    7  A    between atoms: C_7  and  O_8
REMARK    8  A    between atoms: O_8  and  C_9
REMARK    9  A    between atoms: C_12  and  C_13
REMARK                            x       y       z     vdW  Elec       q    Type
REMARK                         _______ _______ _______ _____ _____    ______ ____
ROOT
ATOM      1  C   UNL     1       6.610   5.347  17.505  0.00  0.00    +0.000 A 
ATOM      2  C   UNL     1       7.575   5.454  18.512  0.00  0.00    +0.000 A 
ATOM      3  C   UNL     1       8.157   6.688  18.827  0.00  0.00    +0.000 A 
ATOM      4  C   UNL     1       7.788   7.842  18.130  0.00  0.00    +0.000 A 
ATOM      5  C   UNL     1       6.825   7.729  17.116  0.00  0.00    +0.000 A 
ATOM      6  C   UNL     1       6.238   6.497  16.807  0.00  0.00    +0.000 A 
ENDROOT
BRANCH   4   7
ATOM      7  C   UNL     1       8.423   9.137  18.373  0.00  0.00    +0.000 A 
ATOM      8  N   UNL     1       8.281  10.201  17.605  0.00  0.00    +0.000 NA
ATOM      9  C   UNL     1       9.110  11.156  18.121  0.00  0.00    +0.000 A 
ATOM     10  C   UNL     1       9.371  12.447  17.640  0.00  0.00    +0.000 A 
ATOM     11  C   UNL     1      10.289  13.232  18.337  0.00  0.00    +0.000 A 
ATOM     12 CL   UNL     1      10.657  14.810  17.753  0.00  0.00    +0.000 Cl
ATOM     13  C   UNL     1      10.918  12.760  19.493  0.00  0.00    +0.000 A 
ATOM     14  C   UNL     1      10.656  11.477  19.993  0.00  0.00    +0.000 A 
ATOM     15  C   UNL     1       9.743  10.703  19.267  0.00  0.00    +0.000 A 
ATOM     16  N   UNL     1       9.267   9.424  19.425  0.00  0.00    +0.000 N 
ATOM     17  H   UNL     1       9.508   8.792  20.173  0.00  0.00    +0.000 HD
ENDBRANCH   4   7
BRANCH   1  18
ATOM     18  O   UNL     1       5.984   4.185  17.121  0.00  0.00    +0.000 OA
BRANCH  18  19
ATOM     19  C   UNL     1       4.930   3.756  17.991  0.00  0.00    +0.000 C 
BRANCH  19  20
ATOM     20  C   UNL     1       3.606   3.587  17.229  0.00  0.00    +0.000 C 
BRANCH  20  21
ATOM     21  N   UNL     1       2.530   4.494  17.694  0.00  0.00    +0.000 NA
BRANCH  21  23
ATOM     22  C   UNL     1       1.582   2.637  19.120  0.00  0.00    +0.000 C 
ATOM     23  C   UNL     1       1.338   3.709  18.059  0.00  0.00    +0.000 C 
ENDBRANCH  21  23
BRANCH  21  24
ATOM     24  C   UNL     1       2.953   5.452  18.727  0.00  0.00    +0.000 C 
ATOM     25  C   UNL     1       2.941   6.924  18.325  0.00  0.00    +0.000 C 
ENDBRANCH  21  24
ENDBRANCH  20  21
ENDBRANCH  19  20
ENDBRANCH  18  19
ENDBRANCH   1  18
TORSDOF 7
ENDMDL
MODEL 4
REMARK VINA RESULT:      -6.8      0.632      1.431
REMARK  Name = 
REMARK  9 active torsions:
REMARK  status: ('A' for Active; 'I' for Inactive)
REMARK    1  A    between atoms: C_1  and  C_2
REMARK    2  A    between atoms: C_2  and  N_3
REMARK    3  A    between atoms: N_3  and  C_4
REMARK    4  A    between atoms: N_3  and  C_6
REMARK    5  A    between atoms: C_4  and  C_5
REMARK    6  A    between atoms: C_6  and  C_7
REMARK    7  A    between atoms: C_7  and  O_8
REMARK    8  A    between atoms: O_8  and  C_9
REMARK    9  A    between atoms: C_12  and  C_13
REMARK                            x       y       z     vdW  Elec       q    Type
REMARK                         _______ _______ _______ _____ _____    ______ ____
ROOT
ATOM      1  C   UNL     1       6.658   5.762  17.751  0.00  0.00    +0.000 A 
ATOM      2  C   UNL     1       6.279   6.906  17.039  0.00  0.00    +0.000 A 
ATOM      3  C   UNL     1       6.931   8.129  17.237  0.00  0.00    +0.000 A 
ATOM      4  C   UNL     1       7.974   8.233  18.162  0.00  0.00    +0.000 A 
ATOM      5  C   UNL     1       8.347   7.085  18.878  0.00  0.00    +0.000 A 
ATOM      6  C   UNL     1       7.699   5.861  18.674  0.00  0.00    +0.000 A 
ENDROOT
BRANCH   4   7
ATOM      7  C   UNL     1       8.633   9.505  18.456  0.00  0.00    +0.000 A 
ATOM      8  N   UNL     1       8.565  10.581  17.697  0.00  0.00    +0.000 NA
ATOM      9  C   UNL     1       9.395  11.504  18.269  0.00  0.00    +0.000 A 
ATOM     10  C   UNL     1       9.720  12.792  17.820  0.00  0.00    +0.000 A 
ATOM     11  C   UNL     1      10.622  13.539  18.577  0.00  0.00    +0.000 A 
ATOM     12 CL   UNL     1      11.070  15.113  18.036  0.00  0.00    +0.000 Cl
ATOM     13  C   UNL     1      11.174  13.034  19.759  0.00  0.00    +0.000 A 
ATOM     14  C   UNL     1      10.846  11.754  20.226  0.00  0.00    +0.000 A 
ATOM     15  C   UNL     1       9.950  11.018  19.441  0.00  0.00    +0.000 A 
ATOM     16  N   UNL     1       9.428   9.753  19.556  0.00  0.00    +0.000 N 
ATOM     17  H   UNL     1       9.609   9.104  20.307  0.00  0.00    +0.000 HD
ENDBRANCH   4   7
BRANCH   1  18
ATOM     18  O   UNL     1       6.081   4.521  17.630  0.00  0.00    +0.000 OA
BRANCH  18  19
ATOM     19  C   UNL     1       5.559   3.981  18.851  0.00  0.00    +0.000 C 
BRANCH  19  20
ATOM     20  C   UNL     1       4.412   4.843  19.400  0.00  0.00    +0.000 C 
BRANCH  20  21
ATOM     21  N   UNL     1       3.064   4.318  19.076  0.00  0.00    +0.000 NA
BRANCH  21  23
ATOM     22  C   UNL     1       0.853   3.879  20.219  0.00  0.00    +0.000 C 
ATOM     23  C   UNL     1       2.378   3.905  20.314  0.00  0.00    +0.000 C 
ENDBRANCH  21  23
BRANCH  21  24
ATOM     24  C   UNL     1       2.262   5.204  18.217  0.00  0.00    +0.000 C 
ATOM     25  C   UNL     1       2.699   6.664  18.165  0.00  0.00    +0.000 C 
ENDBRANCH  21  24
ENDBRANCH  20  21
ENDBRANCH  19  20
ENDBRANCH  18  19
ENDBRANCH   1  18
TORSDOF 7
ENDMDL
MODEL 5
REMARK VINA RESULT:      -6.8      0.932      1.647
REMARK  Name = 
REMARK  9 active torsions:
REMARK  status: ('A' for Active; 'I' for Inactive)
REMARK    1  A    between atoms: C_1  and  C_2
REMARK    2  A    between atoms: C_2  and  N_3
REMARK    3  A    between atoms: N_3  and  C_4
REMARK    4  A    between atoms: N_3  and  C_6
REMARK    5  A    between atoms: C_4  and  C_5
REMARK    6  A    between atoms: C_6  and  C_7
REMARK    7  A    between atoms: C_7  and  O_8
REMARK    8  A    between atoms: O_8  and  C_9
REMARK    9  A    between atoms: C_12  and  C_13
REMARK                            x       y       z     vdW  Elec       q    Type
REMARK                         _______ _______ _______ _____ _____    ______ ____
ROOT
ATOM      1  C   UNL     1       7.110   5.625  17.776  0.00  0.00    +0.000 A 
ATOM      2  C   UNL     1       6.848   6.694  16.912  0.00  0.00    +0.000 A 
ATOM      3  C   UNL     1       7.390   7.963  17.151  0.00  0.00    +0.000 A 
ATOM      4  C   UNL     1       8.198   8.190  18.267  0.00  0.00    +0.000 A 
ATOM      5  C   UNL     1       8.453   7.116  19.134  0.00  0.00    +0.000 A 
ATOM      6  C   UNL     1       7.918   5.846  18.891  0.00  0.00    +0.000 A 
ENDROOT
BRANCH   4   7
ATOM      7  C   UNL     1       8.723   9.514  18.597  0.00  0.00    +0.000 A 
ATOM      8  N   UNL     1       8.663  10.567  17.803  0.00  0.00    +0.000 NA
ATOM      9  C   UNL     1       9.350  11.563  18.438  0.00  0.00    +0.000 A 
ATOM     10  C   UNL     1       9.628  12.862  17.992  0.00  0.00    +0.000 A 
ATOM     11  C   UNL     1      10.380  13.692  18.823  0.00  0.00    +0.000 A 
ATOM     12 CL   UNL     1      10.768  15.284  18.290  0.00  0.00    +0.000 Cl
ATOM     13  C   UNL     1      10.828  13.255  20.074  0.00  0.00    +0.000 A 
ATOM     14  C   UNL     1      10.544  11.964  20.539  0.00  0.00    +0.000 A 
ATOM     15  C   UNL     1       9.802  11.145  19.680  0.00  0.00    +0.000 A 
ATOM     16  N   UNL     1       9.365   9.846  19.772  0.00  0.00    +0.000 N 
ATOM     17  H   UNL     1       9.506   9.229  20.557  0.00  0.00    +0.000 HD
ENDBRANCH   4   7
BRANCH   1  18
ATOM     18  O   UNL     1       6.626   4.347  17.631  0.00  0.00    +0.000 OA
BRANCH  18  19
ATOM     19  C   UNL     1       5.329   4.262  17.027  0.00  0.00    +0.000 C 
BRANCH  19  20
ATOM     20  C   UNL     1       4.245   3.947  18.069  0.00  0.00    +0.000 C 
BRANCH  20  21
ATOM     21  N   UNL     1       2.895   3.758  17.486  0.00  0.00    +0.000 NA
BRANCH  21  23
ATOM     22  C   UNL     1       3.389   1.504  18.515  0.00  0.00    +0.000 C 
ATOM     23  C   UNL     1       2.488   2.347  17.614  0.00  0.00    +0.000 C 
ENDBRANCH  21  23
BRANCH  21  24
ATOM     24  C   UNL     1       1.889   4.715  17.973  0.00  0.00    +0.000 C 
ATOM     25  C   UNL     1       2.393   6.120  18.286  0.00  0.00    +0.000 C 
ENDBRANCH  21  24
ENDBRANCH  20  21
ENDBRANCH  19  20
ENDBRANCH  18  19
ENDBRANCH   1  18
TORSDOF 7
ENDMDL
MODEL 6
REMARK VINA RESULT:      -6.7      4.526      7.681
REMARK  Name = 
REMARK  9 active torsions:
REMARK  status: ('A' for Active; 'I' for Inactive)
REMARK    1  A    between atoms: C_1  and  C_2
REMARK    2  A    between atoms: C_2  and  N_3
REMARK    3  A    between atoms: N_3  and  C_4
REMARK    4  A    between atoms: N_3  and  C_6
REMARK    5  A    between atoms: C_4  and  C_5
REMARK    6  A    between atoms: C_6  and  C_7
REMARK    7  A    between atoms: C_7  and  O_8
REMARK    8  A    between atoms: O_8  and  C_9
REMARK    9  A    between atoms: C_12  and  C_13
REMARK                            x       y       z     vdW  Elec       q    Type
REMARK                         _______ _______ _______ _____ _____    ______ ____
ROOT
ATOM      1  C   UNL     1       3.828   5.774  17.787  0.00  0.00    +0.000 A 
ATOM      2  C   UNL     1       3.289   5.347  19.006  0.00  0.00    +0.000 A 
ATOM      3  C   UNL     1       2.446   6.178  19.752  0.00  0.00    +0.000 A 
ATOM      4  C   UNL     1       2.132   7.461  19.297  0.00  0.00    +0.000 A 
ATOM      5  C   UNL     1       2.679   7.887  18.078  0.00  0.00    +0.000 A 
ATOM      6  C   UNL     1       3.516   7.053  17.327  0.00  0.00    +0.000 A 
ENDROOT
BRANCH   4   7
ATOM      7  C   UNL     1       1.317   8.390  20.079  0.00  0.00    +0.000 A 
ATOM      8  N   UNL     1       0.896   9.566  19.652  0.00  0.00    +0.000 NA
ATOM      9  C   UNL     1       0.263  10.152  20.712  0.00  0.00    +0.000 A 
ATOM     10  C   UNL     1      -0.312  11.428  20.797  0.00  0.00    +0.000 A 
ATOM     11  C   UNL     1      -0.882  11.808  22.011  0.00  0.00    +0.000 A 
ATOM     12 CL   UNL     1      -1.566  13.382  22.160  0.00  0.00    +0.000 Cl
ATOM     13  C   UNL     1      -0.902  10.941  23.108  0.00  0.00    +0.000 A 
ATOM     14  C   UNL     1      -0.345   9.657  23.032  0.00  0.00    +0.000 A 
ATOM     15  C   UNL     1       0.235   9.305  21.808  0.00  0.00    +0.000 A 
ATOM     16  N   UNL     1       0.887   8.177  21.372  0.00  0.00    +0.000 N 
ATOM     17  H   UNL     1       1.044   7.339  21.911  0.00  0.00    +0.000 HD
ENDBRANCH   4   7
BRANCH   1  18
ATOM     18  O   UNL     1       4.665   5.037  16.983  0.00  0.00    +0.000 OA
BRANCH  18  19
ATOM     19  C   UNL     1       5.288   5.778  15.927  0.00  0.00    +0.000 C 
BRANCH  19  20
ATOM     20  C   UNL     1       6.799   5.507  15.867  0.00  0.00    +0.000 C 
BRANCH  20  21
ATOM     21  N   UNL     1       7.542   6.010  17.047  0.00  0.00    +0.000 NA
BRANCH  21  23
ATOM     22  C   UNL     1       8.091   8.397  17.668  0.00  0.00    +0.000 C 
ATOM     23  C   UNL     1       7.021   7.331  17.441  0.00  0.00    +0.000 C 
ENDBRANCH  21  23
BRANCH  21  24
ATOM     24  C   UNL     1       7.632   5.049  18.158  0.00  0.00    +0.000 C 
ATOM     25  C   UNL     1       7.457   5.623  19.560  0.00  0.00    +0.000 C 
ENDBRANCH  21  24
ENDBRANCH  20  21
ENDBRANCH  19  20
ENDBRANCH  18  19
ENDBRANCH   1  18
TORSDOF 7
ENDMDL
MODEL 7
REMARK VINA RESULT:      -6.6      5.763      7.819
REMARK  Name = 
REMARK  9 active torsions:
REMARK  status: ('A' for Active; 'I' for Inactive)
REMARK    1  A    between atoms: C_1  and  C_2
REMARK    2  A    between atoms: C_2  and  N_3
REMARK    3  A    between atoms: N_3  and  C_4
REMARK    4  A    between atoms: N_3  and  C_6
REMARK    5  A    between atoms: C_4  and  C_5
REMARK    6  A    between atoms: C_6  and  C_7
REMARK    7  A    between atoms: C_7  and  O_8
REMARK    8  A    between atoms: O_8  and  C_9
REMARK    9  A    between atoms: C_12  and  C_13
REMARK                            x       y       z     vdW  Elec       q    Type
REMARK                         _______ _______ _______ _____ _____    ______ ____
ROOT
ATOM      1  C   UNL     1       5.046   4.865  16.299  0.00  0.00    +0.000 A 
ATOM      2  C   UNL     1       4.154   4.334  17.237  0.00  0.00    +0.000 A 
ATOM      3  C   UNL     1       3.330   5.169  18.003  0.00  0.00    +0.000 A 
ATOM      4  C   UNL     1       3.392   6.556  17.850  0.00  0.00    +0.000 A 
ATOM      5  C   UNL     1       4.292   7.085  16.912  0.00  0.00    +0.000 A 
ATOM      6  C   UNL     1       5.109   6.249  16.142  0.00  0.00    +0.000 A 
ENDROOT
BRANCH   4   7
ATOM      7  C   UNL     1       2.606   7.470  18.679  0.00  0.00    +0.000 A 
ATOM      8  N   UNL     1       2.313   7.270  19.950  0.00  0.00    +0.000 NA
ATOM      9  C   UNL     1       1.488   8.294  20.317  0.00  0.00    +0.000 A 
ATOM     10  C   UNL     1       0.852   8.514  21.548  0.00  0.00    +0.000 A 
ATOM     11  C   UNL     1       0.029   9.633  21.667  0.00  0.00    +0.000 A 
ATOM     12 CL   UNL     1      -0.794   9.914  23.154  0.00  0.00    +0.000 Cl
ATOM     13  C   UNL     1      -0.146  10.525  20.603  0.00  0.00    +0.000 A 
ATOM     14  C   UNL     1       0.496  10.325  19.374  0.00  0.00    +0.000 A 
ATOM     15  C   UNL     1       1.304   9.187  19.273  0.00  0.00    +0.000 A 
ATOM     16  N   UNL     1       2.050   8.656  18.249  0.00  0.00    +0.000 N 
ATOM     17  H   UNL     1       2.158   9.055  17.328  0.00  0.00    +0.000 HD
ENDBRANCH   4   7
BRANCH   1  18
ATOM     18  O   UNL     1       5.894   4.132  15.504  0.00  0.00    +0.000 OA
BRANCH  18  19
ATOM     19  C   UNL     1       5.287   3.578  14.330  0.00  0.00    +0.000 C 
BRANCH  19  20
ATOM     20  C   UNL     1       6.248   3.612  13.132  0.00  0.00    +0.000 C 
BRANCH  20  21
ATOM     21  N   UNL     1       5.603   3.275  11.840  0.00  0.00    +0.000 NA
BRANCH  21  23
ATOM     22  C   UNL     1       7.297   1.587  11.024  0.00  0.00    +0.000 C 
ATOM     23  C   UNL     1       5.872   1.867  11.498  0.00  0.00    +0.000 C 
ENDBRANCH  21  23
BRANCH  21  24
ATOM     24  C   UNL     1       4.181   3.647  11.761  0.00  0.00    +0.000 C 
ATOM     25  C   UNL     1       3.442   3.216  10.498  0.00  0.00    +0.000 C 
ENDBRANCH  21  24
ENDBRANCH  20  21
ENDBRANCH  19  20
ENDBRANCH  18  19
ENDBRANCH   1  18
TORSDOF 7
ENDMDL
MODEL 8
REMARK VINA RESULT:      -6.6      6.243      7.943
REMARK  Name = 
REMARK  9 active torsions:
REMARK  status: ('A' for Active; 'I' for Inactive)
REMARK    1  A    between atoms: C_1  and  C_2
REMARK    2  A    between atoms: C_2  and  N_3
REMARK    3  A    between atoms: N_3  and  C_4
REMARK    4  A    between atoms: N_3  and  C_6
REMARK    5  A    between atoms: C_4  and  C_5
REMARK    6  A    between atoms: C_6  and  C_7
REMARK    7  A    between atoms: C_7  and  O_8
REMARK    8  A    between atoms: O_8  and  C_9
REMARK    9  A    between atoms: C_12  and  C_13
REMARK                            x       y       z     vdW  Elec       q    Type
REMARK                         _______ _______ _______ _____ _____    ______ ____
ROOT
ATOM      1  C   UNL     1       3.528   6.479  18.366  0.00  0.00    +0.000 A 
ATOM      2  C   UNL     1       2.955   6.303  19.630  0.00  0.00    +0.000 A 
ATOM      3  C   UNL     1       2.046   7.234  20.146  0.00  0.00    +0.000 A 
ATOM      4  C   UNL     1       1.699   8.369  19.409  0.00  0.00    +0.000 A 
ATOM      5  C   UNL     1       2.282   8.546  18.145  0.00  0.00    +0.000 A 
ATOM      6  C   UNL     1       3.184   7.610  17.625  0.00  0.00    +0.000 A 
ENDROOT
BRANCH   4   7
ATOM      7  C   UNL     1       0.814   9.405  19.939  0.00  0.00    +0.000 A 
ATOM      8  N   UNL     1       0.616   9.643  21.221  0.00  0.00    +0.000 NA
ATOM      9  C   UNL     1      -0.349  10.609  21.286  0.00  0.00    +0.000 A 
ATOM     10  C   UNL     1      -0.955  11.172  22.418  0.00  0.00    +0.000 A 
ATOM     11  C   UNL     1      -1.945  12.134  22.218  0.00  0.00    +0.000 A 
ATOM     12 CL   UNL     1      -2.734  12.822  23.587  0.00  0.00    +0.000 Cl
ATOM     13  C   UNL     1      -2.311  12.545  20.932  0.00  0.00    +0.000 A 
ATOM     14  C   UNL     1      -1.702  12.001  19.793  0.00  0.00    +0.000 A 
ATOM     15  C   UNL     1      -0.724  11.026  20.019  0.00  0.00    +0.000 A 
ATOM     16  N   UNL     1       0.051  10.266  19.177  0.00  0.00    +0.000 N 
ATOM     17  H   UNL     1       0.051  10.313  18.169  0.00  0.00    +0.000 HD
ENDBRANCH   4   7
BRANCH   1  18
ATOM     18  O   UNL     1       4.429   5.627  17.773  0.00  0.00    +0.000 OA
BRANCH  18  19
ATOM     19  C   UNL     1       4.703   4.433  18.518  0.00  0.00    +0.000 C 
BRANCH  19  20
ATOM     20  C   UNL     1       4.027   3.208  17.883  0.00  0.00    +0.000 C 
BRANCH  20  21
ATOM     21  N   UNL     1       3.229   2.405  18.840  0.00  0.00    +0.000 NA
BRANCH  21  23
ATOM     22  C   UNL     1       2.490   2.863  21.212  0.00  0.00    +0.000 C 
ATOM     23  C   UNL     1       3.642   2.715  20.220  0.00  0.00    +0.000 C 
ENDBRANCH  21  23
BRANCH  21  24
ATOM     24  C   UNL     1       1.775   2.476  18.622  0.00  0.00    +0.000 C 
ATOM     25  C   UNL     1       1.272   3.685  17.839  0.00  0.00    +0.000 C 
ENDBRANCH  21  24
ENDBRANCH  20  21
ENDBRANCH  19  20
ENDBRANCH  18  19
ENDBRANCH   1  18
TORSDOF 7
ENDMDL
MODEL 9
REMARK VINA RESULT:      -6.5      6.605      8.487
REMARK  Name = 
REMARK  9 active torsions:
REMARK  status: ('A' for Active; 'I' for Inactive)
REMARK    1  A    between atoms: C_1  and  C_2
REMARK    2  A    between atoms: C_2  and  N_3
REMARK    3  A    between atoms: N_3  and  C_4
REMARK    4  A    between atoms: N_3  and  C_6
REMARK    5  A    between atoms: C_4  and  C_5
REMARK    6  A    between atoms: C_6  and  C_7
REMARK    7  A    between atoms: C_7  and  O_8
REMARK    8  A    between atoms: O_8  and  C_9
REMARK    9  A    between atoms: C_12  and  C_13
REMARK                            x       y       z     vdW  Elec       q    Type
REMARK                         _______ _______ _______ _____ _____    ______ ____
ROOT
ATOM      1  C   UNL     1       2.410   7.319  18.756  0.00  0.00    +0.000 A 
ATOM      2  C   UNL     1       2.014   8.393  17.952  0.00  0.00    +0.000 A 
ATOM      3  C   UNL     1       1.285   9.464  18.484  0.00  0.00    +0.000 A 
ATOM      4  C   UNL     1       0.928   9.474  19.835  0.00  0.00    +0.000 A 
ATOM      5  C   UNL     1       1.321   8.392  20.637  0.00  0.00    +0.000 A 
ATOM      6  C   UNL     1       2.057   7.326  20.106  0.00  0.00    +0.000 A 
ENDROOT
BRANCH   4   7
ATOM      7  C   UNL     1       0.104  10.533  20.418  0.00  0.00    +0.000 A 
ATOM      8  N   UNL     1       0.245  11.011  21.639  0.00  0.00    +0.000 NA
ATOM      9  C   UNL     1      -0.776  11.901  21.820  0.00  0.00    +0.000 A 
ATOM     10  C   UNL     1      -1.107  12.638  22.966  0.00  0.00    +0.000 A 
ATOM     11  C   UNL     1      -2.224  13.470  22.907  0.00  0.00    +0.000 A 
ATOM     12 CL   UNL     1      -2.679  14.364  24.308  0.00  0.00    +0.000 Cl
ATOM     13  C   UNL     1      -2.984  13.586  21.738  0.00  0.00    +0.000 A 
ATOM     14  C   UNL     1      -2.655  12.867  20.582  0.00  0.00    +0.000 A 
ATOM     15  C   UNL     1      -1.539  12.027  20.671  0.00  0.00    +0.000 A 
ATOM     16  N   UNL     1      -0.942  11.167  19.781  0.00  0.00    +0.000 N 
ATOM     17  H   UNL     1      -1.230  11.010  18.827  0.00  0.00    +0.000 HD
ENDBRANCH   4   7
BRANCH   1  18
ATOM     18  O   UNL     1       3.123   6.224  18.329  0.00  0.00    +0.000 OA
BRANCH  18  19
ATOM     19  C   UNL     1       3.844   5.539  19.361  0.00  0.00    +0.000 C 
BRANCH  19  20
ATOM     20  C   UNL     1       3.553   4.031  19.342  0.00  0.00    +0.000 C 
BRANCH  20  21
ATOM     21  N   UNL     1       2.145   3.698  19.018  0.00  0.00    +0.000 NA
BRANCH  21  23
ATOM     22  C   UNL     1       3.411   1.665  18.214  0.00  0.00    +0.000 C 
ATOM     23  C   UNL     1       2.090   2.431  18.269  0.00  0.00    +0.000 C 
ENDBRANCH  21  23
BRANCH  21  24
ATOM     24  C   UNL     1       1.234   3.748  20.172  0.00  0.00    +0.000 C 
ATOM     25  C   UNL     1       1.489   2.727  21.276  0.00  0.00    +0.000 C 
ENDBRANCH  21  24
ENDBRANCH  20  21
ENDBRANCH  19  20
ENDBRANCH  18  19
ENDBRANCH   1  18
TORSDOF 7
ENDMDL
