MODEL 1
REMARK VINA RESULT:      -6.0      0.000      0.000
REMARK  Name = 
REMARK  6 active torsions:
REMARK  status: ('A' for Active; 'I' for Inactive)
REMARK    1  A    between atoms: C_1  and  N_2
REMARK    2  A    between atoms: N_2  and  C_3
REMARK    3  A    between atoms: C_3  and  C_4
REMARK    4  A    between atoms: C_4  and  N_5
REMARK    5  A    between atoms: N_5  and  S_6
REMARK    6  A    between atoms: S_6  and  C_7
REMARK                            x       y       z     vdW  Elec       q    Type
REMARK                         _______ _______ _______ _____ _____    ______ ____
ROOT
ATOM      1  C   UNL     1       5.891   5.031  19.265  0.00  0.00    +0.000 C 
ATOM      2  N   UNL     1       4.750   5.177  18.385  0.00  0.00    +0.000 N 
ATOM      3  C   UNL     1       3.693   4.306  18.562  0.00  0.00    +0.000 A 
ATOM      4  N   UNL     1       3.815   3.304  19.449  0.00  0.00    +0.000 NA
ATOM      5  C   UNL     1       2.778   2.459  19.594  0.00  0.00    +0.000 A 
ATOM      6  C   UNL     1       1.614   2.562  18.879  0.00  0.00    +0.000 A 
ATOM      7  C   UNL     1       1.570   3.607  17.995  0.00  0.00    +0.000 A 
ATOM      8  N   UNL     1       2.579   4.485  17.829  0.00  0.00    +0.000 NA
ENDROOT
BRANCH   2   9
ATOM      9  C   UNL     1       4.527   6.428  17.670  0.00  0.00    +0.000 C 
BRANCH   9  10
ATOM     10  C   UNL     1       4.967   6.395  16.195  0.00  0.00    +0.000 C 
BRANCH  10  11
ATOM     11  N   UNL     1       6.443   6.419  16.052  0.00  0.00    +0.000 NA
ATOM     12  H   UNL     1       6.954   6.809  16.845  0.00  0.00    +0.000 HD
BRANCH  11  13
ATOM     13  S   UNL     1       7.179   4.996  15.536  0.00  0.00    +0.000 S 
ATOM     14  C   UNL     1       5.785   3.941  15.193  0.00  0.00    +0.000 C 
ATOM     15  O   UNL     1       7.838   5.320  14.291  0.00  0.00    +0.000 OA
ATOM     16  O   UNL     1       7.914   4.459  16.657  0.00  0.00    +0.000 OA
ENDBRANCH  11  13
ENDBRANCH  10  11
ENDBRANCH   9  10
ENDBRANCH   2   9
TORSDOF 4
ENDMDL
MODEL 2
REMARK VINA RESULT:      -5.8      3.310      5.800
REMARK  Name = 
REMARK  6 active torsions:
REMARK  status: ('A' for Active; 'I' for Inactive)
REMARK    1  A    between atoms: C_1  and  N_2
REMARK    2  A    between atoms: N_2  and  C_3
REMARK    3  A    between atoms: C_3  and  C_4
REMARK    4  A    between atoms: C_4  and  N_5
REMARK    5  A    between atoms: N_5  and  S_6
REMARK    6  A    between atoms: S_6  and  C_7
REMARK                            x       y       z     vdW  Elec       q    Type
REMARK                         _______ _______ _______ _____ _____    ______ ____
ROOT
ATOM      1  C   UNL     1       7.115   5.966  16.779  0.00  0.00    +0.000 C 
ATOM      2  N   UNL     1       6.255   5.058  16.049  0.00  0.00    +0.000 N 
ATOM      3  C   UNL     1       6.581   4.789  14.734  0.00  0.00    +0.000 A 
ATOM      4  N   UNL     1       7.598   5.460  14.164  0.00  0.00    +0.000 NA
ATOM      5  C   UNL     1       7.888   5.192  12.878  0.00  0.00    +0.000 A 
ATOM      6  C   UNL     1       7.198   4.283  12.121  0.00  0.00    +0.000 A 
ATOM      7  C   UNL     1       6.177   3.645  12.774  0.00  0.00    +0.000 A 
ATOM      8  N   UNL     1       5.861   3.871  14.064  0.00  0.00    +0.000 NA
ENDROOT
BRANCH   2   9
ATOM      9  C   UNL     1       5.377   4.139  16.764  0.00  0.00    +0.000 C 
BRANCH   9  10
ATOM     10  C   UNL     1       5.199   4.473  18.255  0.00  0.00    +0.000 C 
BRANCH  10  11
ATOM     11  N   UNL     1       5.439   3.295  19.124  0.00  0.00    +0.000 NA
ATOM     12  H   UNL     1       6.111   3.437  19.879  0.00  0.00    +0.000 HD
BRANCH  11  13
ATOM     13  S   UNL     1       4.080   2.491  19.706  0.00  0.00    +0.000 S 
ATOM     14  C   UNL     1       2.849   3.779  19.732  0.00  0.00    +0.000 C 
ATOM     15  O   UNL     1       3.725   1.525  18.689  0.00  0.00    +0.000 OA
ATOM     16  O   UNL     1       4.367   2.083  21.061  0.00  0.00    +0.000 OA
ENDBRANCH  11  13
ENDBRANCH  10  11
ENDBRANCH   9  10
ENDBRANCH   2   9
TORSDOF 4
ENDMDL
MODEL 3
REMARK VINA RESULT:      -5.7      1.734      2.577
REMARK  Name = 
REMARK  6 active torsions:
REMARK  status: ('A' for Active; 'I' for Inactive)
REMARK    1  A    between atoms: C_1  and  N_2
REMARK    2  A    between atoms: N_2  and  C_3
REMARK    3  A    between atoms: C_3  and  C_4
REMARK    4  A    between atoms: C_4  and  N_5
REMARK    5  A    between atoms: N_5  and  S_6
REMARK    6  A    between atoms: S_6  and  C_7
REMARK                            x       y       z     vdW  Elec       q    Type
REMARK                         _______ _______ _______ _____ _____    ______ ____
ROOT
ATOM      1  C   UNL     1       3.211   6.201  17.896  0.00  0.00    +0.000 C 
ATOM      2  N   UNL     1       3.232   4.755  17.966  0.00  0.00    +0.000 N 
ATOM      3  C   UNL     1       2.601   4.158  19.039  0.00  0.00    +0.000 A 
ATOM      4  N   UNL     1       2.102   4.935  20.017  0.00  0.00    +0.000 NA
ATOM      5  C   UNL     1       1.504   4.331  21.060  0.00  0.00    +0.000 A 
ATOM      6  C   UNL     1       1.386   2.972  21.181  0.00  0.00    +0.000 A 
ATOM      7  C   UNL     1       1.922   2.253  20.146  0.00  0.00    +0.000 A 
ATOM      8  N   UNL     1       2.516   2.816  19.075  0.00  0.00    +0.000 NA
ENDROOT
BRANCH   2   9
ATOM      9  C   UNL     1       3.499   3.963  16.770  0.00  0.00    +0.000 C 
BRANCH   9  10
ATOM     10  C   UNL     1       4.951   4.052  16.269  0.00  0.00    +0.000 C 
BRANCH  10  11
ATOM     11  N   UNL     1       5.933   3.917  17.373  0.00  0.00    +0.000 NA
ATOM     12  H   UNL     1       6.129   2.960  17.669  0.00  0.00    +0.000 HD
BRANCH  11  13
ATOM     13  S   UNL     1       7.369   4.780  17.222  0.00  0.00    +0.000 S 
ATOM     14  C   UNL     1       6.843   6.460  17.498  0.00  0.00    +0.000 C 
ATOM     15  O   UNL     1       8.200   4.363  18.329  0.00  0.00    +0.000 OA
ATOM     16  O   UNL     1       7.814   4.643  15.856  0.00  0.00    +0.000 OA
ENDBRANCH  11  13
ENDBRANCH  10  11
ENDBRANCH   9  10
ENDBRANCH   2   9
TORSDOF 4
ENDMDL
MODEL 4
REMARK VINA RESULT:      -5.7      1.151      1.151
REMARK  Name = 
REMARK  6 active torsions:
REMARK  status: ('A' for Active; 'I' for Inactive)
REMARK    1  A    between atoms: C_1  and  N_2
REMARK    2  A    between atoms: N_2  and  C_3
REMARK    3  A    between atoms: C_3  and  C_4
REMARK    4  A    between atoms: C_4  and  N_5
REMARK    5  A    between atoms: N_5  and  S_6
REMARK    6  A    between atoms: S_6  and  C_7
REMARK                            x       y       z     vdW  Elec       q    Type
REMARK                         _______ _______ _______ _____ _____    ______ ____
ROOT
ATOM      1  C   UNL     1       5.480   5.001  19.270  0.00  0.00    +0.000 C 
ATOM      2  N   UNL     1       4.433   4.506  18.401  0.00  0.00    +0.000 N 
ATOM      3  C   UNL     1       3.229   4.164  18.984  0.00  0.00    +0.000 A 
ATOM      4  N   UNL     1       3.121   4.195  20.324  0.00  0.00    +0.000 NA
ATOM      5  C   UNL     1       1.942   3.843  20.871  0.00  0.00    +0.000 A 
ATOM      6  C   UNL     1       0.856   3.449  20.135  0.00  0.00    +0.000 A 
ATOM      7  C   UNL     1       1.049   3.442  18.780  0.00  0.00    +0.000 A 
ATOM      8  N   UNL     1       2.206   3.800  18.189  0.00  0.00    +0.000 NA
ENDROOT
BRANCH   2   9
ATOM      9  C   UNL     1       4.477   4.773  16.968  0.00  0.00    +0.000 C 
BRANCH   9  10
ATOM     10  C   UNL     1       5.242   6.054  16.591  0.00  0.00    +0.000 C 
BRANCH  10  11
ATOM     11  N   UNL     1       5.754   6.010  15.200  0.00  0.00    +0.000 NA
ATOM     12  H   UNL     1       5.964   6.917  14.781  0.00  0.00    +0.000 HD
BRANCH  11  13
ATOM     13  S   UNL     1       7.003   4.927  14.884  0.00  0.00    +0.000 S 
ATOM     14  C   UNL     1       6.183   3.651  13.948  0.00  0.00    +0.000 C 
ATOM     15  O   UNL     1       7.924   5.626  14.015  0.00  0.00    +0.000 OA
ATOM     16  O   UNL     1       7.433   4.382  16.151  0.00  0.00    +0.000 OA
ENDBRANCH  11  13
ENDBRANCH  10  11
ENDBRANCH   9  10
ENDBRANCH   2   9
TORSDOF 4
ENDMDL
MODEL 5
REMARK VINA RESULT:      -5.5      1.141      1.978
REMARK  Name = 
REMARK  6 active torsions:
REMARK  status: ('A' for Active; 'I' for Inactive)
REMARK    1  A    between atoms: C_1  and  N_2
REMARK    2  A    between atoms: N_2  and  C_3
REMARK    3  A    between atoms: C_3  and  C_4
REMARK    4  A    between atoms: C_4  and  N_5
REMARK    5  A    between atoms: N_5  and  S_6
REMARK    6  A    between atoms: S_6  and  C_7
REMARK                            x       y       z     vdW  Elec       q    Type
REMARK                         _______ _______ _______ _____ _____    ______ ____
ROOT
ATOM      1  C   UNL     1       3.743   6.674  18.361  0.00  0.00    +0.000 C 
ATOM      2  N   UNL     1       4.222   5.419  18.902  0.00  0.00    +0.000 N 
ATOM      3  C   UNL     1       3.386   4.324  18.810  0.00  0.00    +0.000 A 
ATOM      4  N   UNL     1       2.139   4.493  18.336  0.00  0.00    +0.000 NA
ATOM      5  C   UNL     1       1.337   3.415  18.269  0.00  0.00    +0.000 A 
ATOM      6  C   UNL     1       1.721   2.161  18.666  0.00  0.00    +0.000 A 
ATOM      7  C   UNL     1       3.003   2.074  19.139  0.00  0.00    +0.000 A 
ATOM      8  N   UNL     1       3.845   3.124  19.210  0.00  0.00    +0.000 NA
ENDROOT
BRANCH   2   9
ATOM      9  C   UNL     1       5.648   5.206  19.117  0.00  0.00    +0.000 C 
BRANCH   9  10
ATOM     10  C   UNL     1       6.531   5.610  17.922  0.00  0.00    +0.000 C 
BRANCH  10  11
ATOM     11  N   UNL     1       6.462   4.622  16.818  0.00  0.00    +0.000 NA
ATOM     12  H   UNL     1       5.749   3.900  16.920  0.00  0.00    +0.000 HD
BRANCH  11  13
ATOM     13  S   UNL     1       6.439   5.236  15.251  0.00  0.00    +0.000 S 
ATOM     14  C   UNL     1       5.921   3.828  14.290  0.00  0.00    +0.000 C 
ATOM     15  O   UNL     1       5.388   6.229  15.230  0.00  0.00    +0.000 OA
ATOM     16  O   UNL     1       7.798   5.574  14.899  0.00  0.00    +0.000 OA
ENDBRANCH  11  13
ENDBRANCH  10  11
ENDBRANCH   9  10
ENDBRANCH   2   9
TORSDOF 4
ENDMDL
MODEL 6
REMARK VINA RESULT:      -5.5      3.022      4.941
REMARK  Name = 
REMARK  6 active torsions:
REMARK  status: ('A' for Active; 'I' for Inactive)
REMARK    1  A    between atoms: C_1  and  N_2
REMARK    2  A    between atoms: N_2  and  C_3
REMARK    3  A    between atoms: C_3  and  C_4
REMARK    4  A    between atoms: C_4  and  N_5
REMARK    5  A    between atoms: N_5  and  S_6
REMARK    6  A    between atoms: S_6  and  C_7
REMARK                            x       y       z     vdW  Elec       q    Type
REMARK                         _______ _______ _______ _____ _____    ______ ____
ROOT
ATOM      1  C   UNL     1       7.392   6.817  17.718  0.00  0.00    +0.000 C 
ATOM      2  N   UNL     1       6.178   6.169  17.266  0.00  0.00    +0.000 N 
ATOM      3  C   UNL     1       6.235   5.463  16.081  0.00  0.00    +0.000 A 
ATOM      4  N   UNL     1       7.364   5.503  15.352  0.00  0.00    +0.000 NA
ATOM      5  C   UNL     1       7.392   4.819  14.193  0.00  0.00    +0.000 A 
ATOM      6  C   UNL     1       6.331   4.095  13.717  0.00  0.00    +0.000 A 
ATOM      7  C   UNL     1       5.219   4.108  14.517  0.00  0.00    +0.000 A 
ATOM      8  N   UNL     1       5.152   4.766  15.691  0.00  0.00    +0.000 NA
ENDROOT
BRANCH   2   9
ATOM      9  C   UNL     1       5.097   5.894  18.205  0.00  0.00    +0.000 C 
BRANCH   9  10
ATOM     10  C   UNL     1       5.405   4.765  19.205  0.00  0.00    +0.000 C 
BRANCH  10  11
ATOM     11  N   UNL     1       5.226   3.421  18.603  0.00  0.00    +0.000 NA
ATOM     12  H   UNL     1       5.912   2.720  18.885  0.00  0.00    +0.000 HD
BRANCH  11  13
ATOM     13  S   UNL     1       3.677   2.765  18.657  0.00  0.00    +0.000 S 
ATOM     14  C   UNL     1       3.312   2.775  20.401  0.00  0.00    +0.000 C 
ATOM     15  O   UNL     1       2.818   3.722  17.994  0.00  0.00    +0.000 OA
ATOM     16  O   UNL     1       3.770   1.399  18.200  0.00  0.00    +0.000 OA
ENDBRANCH  11  13
ENDBRANCH  10  11
ENDBRANCH   9  10
ENDBRANCH   2   9
TORSDOF 4
ENDMDL
MODEL 7
REMARK VINA RESULT:      -5.5      1.717      2.547
REMARK  Name = 
REMARK  6 active torsions:
REMARK  status: ('A' for Active; 'I' for Inactive)
REMARK    1  A    between atoms: C_1  and  N_2
REMARK    2  A    between atoms: N_2  and  C_3
REMARK    3  A    between atoms: C_3  and  C_4
REMARK    4  A    between atoms: C_4  and  N_5
REMARK    5  A    between atoms: N_5  and  S_6
REMARK    6  A    between atoms: S_6  and  C_7
REMARK                            x       y       z     vdW  Elec       q    Type
REMARK                         _______ _______ _______ _____ _____    ______ ____
ROOT
ATOM      1  C   UNL     1       4.355   3.281  17.051  0.00  0.00    +0.000 C 
ATOM      2  N   UNL     1       4.255   3.741  18.420  0.00  0.00    +0.000 N 
ATOM      3  C   UNL     1       3.068   3.506  19.087  0.00  0.00    +0.000 A 
ATOM      4  N   UNL     1       2.035   2.973  18.411  0.00  0.00    +0.000 NA
ATOM      5  C   UNL     1       0.884   2.766  19.078  0.00  0.00    +0.000 A 
ATOM      6  C   UNL     1       0.710   3.078  20.400  0.00  0.00    +0.000 A 
ATOM      7  C   UNL     1       1.809   3.619  21.015  0.00  0.00    +0.000 A 
ATOM      8  N   UNL     1       2.984   3.829  20.390  0.00  0.00    +0.000 NA
ENDROOT
BRANCH   2   9
ATOM      9  C   UNL     1       5.459   4.023  19.193  0.00  0.00    +0.000 C 
BRANCH   9  10
ATOM     10  C   UNL     1       5.978   5.464  19.044  0.00  0.00    +0.000 C 
BRANCH  10  11
ATOM     11  N   UNL     1       7.177   5.539  18.174  0.00  0.00    +0.000 NA
ATOM     12  H   UNL     1       7.612   4.643  17.950  0.00  0.00    +0.000 HD
BRANCH  11  13
ATOM     13  S   UNL     1       7.050   6.481  16.785  0.00  0.00    +0.000 S 
ATOM     14  C   UNL     1       5.297   6.781  16.678  0.00  0.00    +0.000 C 
ATOM     15  O   UNL     1       7.720   7.726  17.088  0.00  0.00    +0.000 OA
ATOM     16  O   UNL     1       7.459   5.661  15.669  0.00  0.00    +0.000 OA
ENDBRANCH  11  13
ENDBRANCH  10  11
ENDBRANCH   9  10
ENDBRANCH   2   9
TORSDOF 4
ENDMDL
MODEL 8
REMARK VINA RESULT:      -5.4      1.677      2.558
REMARK  Name = 
REMARK  6 active torsions:
REMARK  status: ('A' for Active; 'I' for Inactive)
REMARK    1  A    between atoms: C_1  and  N_2
REMARK    2  A    between atoms: N_2  and  C_3
REMARK    3  A    between atoms: C_3  and  C_4
REMARK    4  A    between atoms: C_4  and  N_5
REMARK    5  A    between atoms: N_5  and  S_6
REMARK    6  A    between atoms: S_6  and  C_7
REMARK                            x       y       z     vdW  Elec       q    Type
REMARK                         _______ _______ _______ _____ _____    ______ ____
ROOT
ATOM      1  C   UNL     1       2.913   4.461  17.276  0.00  0.00    +0.000 C 
ATOM      2  N   UNL     1       3.607   3.973  18.449  0.00  0.00    +0.000 N 
ATOM      3  C   UNL     1       2.838   3.525  19.505  0.00  0.00    +0.000 A 
ATOM      4  N   UNL     1       1.502   3.667  19.445  0.00  0.00    +0.000 NA
ATOM      5  C   UNL     1       0.774   3.236  20.491  0.00  0.00    +0.000 A 
ATOM      6  C   UNL     1       1.322   2.673  21.613  0.00  0.00    +0.000 A 
ATOM      7  C   UNL     1       2.688   2.567  21.597  0.00  0.00    +0.000 A 
ATOM      8  N   UNL     1       3.455   2.971  20.565  0.00  0.00    +0.000 NA
ENDROOT
BRANCH   2   9
ATOM      9  C   UNL     1       5.001   3.556  18.360  0.00  0.00    +0.000 C 
BRANCH   9  10
ATOM     10  C   UNL     1       5.989   4.711  18.118  0.00  0.00    +0.000 C 
BRANCH  10  11
ATOM     11  N   UNL     1       6.987   4.383  17.071  0.00  0.00    +0.000 NA
ATOM     12  H   UNL     1       7.356   3.432  17.100  0.00  0.00    +0.000 HD
BRANCH  11  13
ATOM     13  S   UNL     1       6.592   4.799  15.489  0.00  0.00    +0.000 S 
ATOM     14  C   UNL     1       5.421   6.123  15.717  0.00  0.00    +0.000 C 
ATOM     15  O   UNL     1       7.802   5.340  14.908  0.00  0.00    +0.000 OA
ATOM     16  O   UNL     1       5.918   3.667  14.900  0.00  0.00    +0.000 OA
ENDBRANCH  11  13
ENDBRANCH  10  11
ENDBRANCH   9  10
ENDBRANCH   2   9
TORSDOF 4
ENDMDL
MODEL 9
REMARK VINA RESULT:      -5.4      1.634      1.999
REMARK  Name = 
REMARK  6 active torsions:
REMARK  status: ('A' for Active; 'I' for Inactive)
REMARK    1  A    between atoms: C_1  and  N_2
REMARK    2  A    between atoms: N_2  and  C_3
REMARK    3  A    between atoms: C_3  and  C_4
REMARK    4  A    between atoms: C_4  and  N_5
REMARK    5  A    between atoms: N_5  and  S_6
REMARK    6  A    between atoms: S_6  and  C_7
REMARK                            x       y       z     vdW  Elec       q    Type
REMARK                         _______ _______ _______ _____ _____    ______ ____
ROOT
ATOM      1  C   UNL     1       4.424   5.998  19.048  0.00  0.00    +0.000 C 
ATOM      2  N   UNL     1       4.225   4.598  18.738  0.00  0.00    +0.000 N 
ATOM      3  C   UNL     1       3.066   4.001  19.193  0.00  0.00    +0.000 A 
ATOM      4  N   UNL     1       2.241   4.703  19.990  0.00  0.00    +0.000 NA
ATOM      5  C   UNL     1       1.124   4.097  20.433  0.00  0.00    +0.000 A 
ATOM      6  C   UNL     1       0.793   2.804  20.124  0.00  0.00    +0.000 A 
ATOM      7  C   UNL     1       1.686   2.158  19.311  0.00  0.00    +0.000 A 
ATOM      8  N   UNL     1       2.808   2.731  18.832  0.00  0.00    +0.000 NA
ENDROOT
BRANCH   2   9
ATOM      9  C   UNL     1       4.963   3.973  17.646  0.00  0.00    +0.000 C 
BRANCH   9  10
ATOM     10  C   UNL     1       6.343   4.600  17.380  0.00  0.00    +0.000 C 
BRANCH  10  11
ATOM     11  N   UNL     1       6.960   4.084  16.134  0.00  0.00    +0.000 NA
ATOM     12  H   UNL     1       6.780   3.100  15.931  0.00  0.00    +0.000 HD
BRANCH  11  13
ATOM     13  S   UNL     1       6.751   5.008  14.743  0.00  0.00    +0.000 S 
ATOM     14  C   UNL     1       6.145   3.811  13.570  0.00  0.00    +0.000 C 
ATOM     15  O   UNL     1       5.690   5.944  15.046  0.00  0.00    +0.000 OA
ATOM     16  O   UNL     1       8.056   5.462  14.325  0.00  0.00    +0.000 OA
ENDBRANCH  11  13
ENDBRANCH  10  11
ENDBRANCH   9  10
ENDBRANCH   2   9
TORSDOF 4
ENDMDL
