MODEL 1
REMARK VINA RESULT:      -8.0      0.000      0.000
REMARK  Name = 
REMARK  4 active torsions:
REMARK  status: ('A' for Active; 'I' for Inactive)
REMARK    1  A    between atoms: C_1  and  C_2
REMARK    2  A    between atoms: C_5  and  C_6
REMARK    3  A    between atoms: C_6  and  N_7
REMARK    4  A    between atoms: C_12  and  C_13
REMARK                            x       y       z     vdW  Elec       q    Type
REMARK                         _______ _______ _______ _____ _____    ______ ____
ROOT
ATOM      1  N   UNL     1       2.821   4.557  19.264  0.00  0.00    +0.000 N 
ATOM      2  C   UNL     1       1.653   3.931  19.709  0.00  0.00    +0.000 C 
ATOM      3  O   UNL     1       0.906   4.366  20.587  0.00  0.00    +0.000 OA
ATOM      4  C   UNL     1       1.408   2.605  19.000  0.00  0.00    +0.000 C 
ATOM      5  S   UNL     1       2.482   2.666  17.556  0.00  0.00    +0.000 S 
ATOM      6  C   UNL     1       3.680   3.680  18.485  0.00  0.00    +0.000 C 
ENDROOT
BRANCH   6   7
ATOM      7  C   UNL     1       4.769   4.200  17.589  0.00  0.00    +0.000 A 
ATOM      8  C   UNL     1       4.713   4.239  16.187  0.00  0.00    +0.000 A 
ATOM      9  C   UNL     1       5.844   4.600  15.438  0.00  0.00    +0.000 A 
ATOM     10  C   UNL     1       7.043   4.916  16.066  0.00  0.00    +0.000 A 
ATOM     11  C   UNL     1       7.117   4.887  17.455  0.00  0.00    +0.000 A 
ATOM     12  C   UNL     1       5.992   4.535  18.195  0.00  0.00    +0.000 A 
ATOM     13  F   UNL     1       6.110   4.479  19.528  0.00  0.00    +0.000 F 
ENDBRANCH   6   7
BRANCH   1  14
ATOM     14  C   UNL     1       3.232   5.840  19.823  0.00  0.00    +0.000 C 
BRANCH  14  19
ATOM     15  C   UNL     1       0.073  10.545  18.429  0.00  0.00    +0.000 C 
ATOM     16  C   UNL     1       1.004   9.426  18.789  0.00  0.00    +0.000 A 
ATOM     17  C   UNL     1       1.049   8.948  20.099  0.00  0.00    +0.000 A 
ATOM     18  C   UNL     1       1.785   7.797  20.405  0.00  0.00    +0.000 A 
ATOM     19  C   UNL     1       2.477   7.085  19.408  0.00  0.00    +0.000 A 
ATOM     20  C   UNL     1       2.506   7.629  18.120  0.00  0.00    +0.000 A 
ATOM     21  C   UNL     1       1.767   8.782  17.811  0.00  0.00    +0.000 A 
ENDBRANCH  14  19
ENDBRANCH   1  14
TORSDOF 3
ENDMDL
MODEL 2
REMARK VINA RESULT:      -7.8      0.261      1.078
REMARK  Name = 
REMARK  4 active torsions:
REMARK  status: ('A' for Active; 'I' for Inactive)
REMARK    1  A    between atoms: C_1  and  C_2
REMARK    2  A    between atoms: C_5  and  C_6
REMARK    3  A    between atoms: C_6  and  N_7
REMARK    4  A    between atoms: C_12  and  C_13
REMARK                            x       y       z     vdW  Elec       q    Type
REMARK                         _______ _______ _______ _____ _____    ______ ____
ROOT
ATOM      1  N   UNL     1       2.819   4.377  19.328  0.00  0.00    +0.000 N 
ATOM      2  C   UNL     1       1.658   3.715  19.738  0.00  0.00    +0.000 C 
ATOM      3  O   UNL     1       0.924   4.076  20.660  0.00  0.00    +0.000 OA
ATOM      4  C   UNL     1       1.403   2.451  18.927  0.00  0.00    +0.000 C 
ATOM      5  S   UNL     1       2.454   2.631  17.477  0.00  0.00    +0.000 S 
ATOM      6  C   UNL     1       3.666   3.567  18.467  0.00  0.00    +0.000 C 
ENDROOT
BRANCH   6   7
ATOM      7  C   UNL     1       4.742   4.161  17.600  0.00  0.00    +0.000 A 
ATOM      8  C   UNL     1       4.679   4.279  16.202  0.00  0.00    +0.000 A 
ATOM      9  C   UNL     1       5.801   4.706  15.473  0.00  0.00    +0.000 A 
ATOM     10  C   UNL     1       6.995   5.009  16.115  0.00  0.00    +0.000 A 
ATOM     11  C   UNL     1       7.075   4.903  17.501  0.00  0.00    +0.000 A 
ATOM     12  C   UNL     1       5.959   4.485  18.222  0.00  0.00    +0.000 A 
ATOM     13  F   UNL     1       6.083   4.355  19.549  0.00  0.00    +0.000 F 
ENDBRANCH   6   7
BRANCH   1  14
ATOM     14  C   UNL     1       3.238   5.611  19.983  0.00  0.00    +0.000 C 
BRANCH  14  19
ATOM     15  C   UNL     1       0.817  10.661  18.341  0.00  0.00    +0.000 C 
ATOM     16  C   UNL     1       1.303   9.303  18.749  0.00  0.00    +0.000 A 
ATOM     17  C   UNL     1       2.002   8.507  17.841  0.00  0.00    +0.000 A 
ATOM     18  C   UNL     1       2.605   7.317  18.265  0.00  0.00    +0.000 A 
ATOM     19  C   UNL     1       2.542   6.902  19.607  0.00  0.00    +0.000 A 
ATOM     20  C   UNL     1       1.755   7.654  20.485  0.00  0.00    +0.000 A 
ATOM     21  C   UNL     1       1.152   8.850  20.063  0.00  0.00    +0.000 A 
ENDBRANCH  14  19
ENDBRANCH   1  14
TORSDOF 3
ENDMDL
MODEL 3
REMARK VINA RESULT:      -7.8      1.587      2.048
REMARK  Name = 
REMARK  4 active torsions:
REMARK  status: ('A' for Active; 'I' for Inactive)
REMARK    1  A    between atoms: C_1  and  C_2
REMARK    2  A    between atoms: C_5  and  C_6
REMARK    3  A    between atoms: C_6  and  N_7
REMARK    4  A    between atoms: C_12  and  C_13
REMARK                            x       y       z     vdW  Elec       q    Type
REMARK                         _______ _______ _______ _____ _____    ______ ____
ROOT
ATOM      1  N   UNL     1       3.337   4.860  18.822  0.00  0.00    +0.000 N 
ATOM      2  C   UNL     1       2.280   4.009  18.487  0.00  0.00    +0.000 C 
ATOM      3  O   UNL     1       1.159   4.036  18.998  0.00  0.00    +0.000 OA
ATOM      4  C   UNL     1       2.677   2.997  17.421  0.00  0.00    +0.000 C 
ATOM      5  S   UNL     1       4.195   3.661  16.717  0.00  0.00    +0.000 S 
ATOM      6  C   UNL     1       4.624   4.398  18.329  0.00  0.00    +0.000 C 
ENDROOT
BRANCH   6   7
ATOM      7  C   UNL     1       5.821   5.301  18.219  0.00  0.00    +0.000 A 
ATOM      8  C   UNL     1       6.931   5.280  19.079  0.00  0.00    +0.000 A 
ATOM      9  C   UNL     1       7.924   6.268  18.984  0.00  0.00    +0.000 A 
ATOM     10  C   UNL     1       7.825   7.290  18.048  0.00  0.00    +0.000 A 
ATOM     11  C   UNL     1       6.734   7.325  17.184  0.00  0.00    +0.000 A 
ATOM     12  C   UNL     1       5.755   6.341  17.276  0.00  0.00    +0.000 A 
ATOM     13  F   UNL     1       4.699   6.427  16.456  0.00  0.00    +0.000 F 
ENDBRANCH   6   7
BRANCH   1  14
ATOM     14  C   UNL     1       3.158   5.902  19.828  0.00  0.00    +0.000 C 
BRANCH  14  19
ATOM     15  C   UNL     1       0.040  10.664  18.541  0.00  0.00    +0.000 C 
ATOM     16  C   UNL     1       0.961   9.529  18.874  0.00  0.00    +0.000 A 
ATOM     17  C   UNL     1       1.014   9.029  20.176  0.00  0.00    +0.000 A 
ATOM     18  C   UNL     1       1.739   7.865  20.455  0.00  0.00    +0.000 A 
ATOM     19  C   UNL     1       2.413   7.162  19.441  0.00  0.00    +0.000 A 
ATOM     20  C   UNL     1       2.436   7.726  18.161  0.00  0.00    +0.000 A 
ATOM     21  C   UNL     1       1.707   8.892  17.878  0.00  0.00    +0.000 A 
ENDBRANCH  14  19
ENDBRANCH   1  14
TORSDOF 3
ENDMDL
MODEL 4
REMARK VINA RESULT:      -7.8      1.876      5.465
REMARK  Name = 
REMARK  4 active torsions:
REMARK  status: ('A' for Active; 'I' for Inactive)
REMARK    1  A    between atoms: C_1  and  C_2
REMARK    2  A    between atoms: C_5  and  C_6
REMARK    3  A    between atoms: C_6  and  N_7
REMARK    4  A    between atoms: C_12  and  C_13
REMARK                            x       y       z     vdW  Elec       q    Type
REMARK                         _______ _______ _______ _____ _____    ______ ____
ROOT
ATOM      1  N   UNL     1       3.876   4.288  19.747  0.00  0.00    +0.000 N 
ATOM      2  C   UNL     1       3.817   2.923  20.041  0.00  0.00    +0.000 C 
ATOM      3  O   UNL     1       4.786   2.162  20.073  0.00  0.00    +0.000 OA
ATOM      4  C   UNL     1       2.391   2.453  20.294  0.00  0.00    +0.000 C 
ATOM      5  S   UNL     1       1.464   3.971  20.575  0.00  0.00    +0.000 S 
ATOM      6  C   UNL     1       2.577   4.865  19.441  0.00  0.00    +0.000 C 
ENDROOT
BRANCH   6   7
ATOM      7  C   UNL     1       2.322   6.346  19.475  0.00  0.00    +0.000 A 
ATOM      8  C   UNL     1       1.778   7.047  20.563  0.00  0.00    +0.000 A 
ATOM      9  C   UNL     1       1.435   8.404  20.437  0.00  0.00    +0.000 A 
ATOM     10  C   UNL     1       1.616   9.075  19.234  0.00  0.00    +0.000 A 
ATOM     11  C   UNL     1       2.158   8.398  18.146  0.00  0.00    +0.000 A 
ATOM     12  C   UNL     1       2.503   7.056  18.275  0.00  0.00    +0.000 A 
ATOM     13  F   UNL     1       2.985   6.424  17.197  0.00  0.00    +0.000 F 
ENDBRANCH   6   7
BRANCH   1  14
ATOM     14  C   UNL     1       5.157   4.931  19.472  0.00  0.00    +0.000 C 
BRANCH  14  19
ATOM     15  C   UNL     1       7.070   4.778  13.961  0.00  0.00    +0.000 C 
ATOM     16  C   UNL     1       6.486   4.926  15.333  0.00  0.00    +0.000 A 
ATOM     17  C   UNL     1       5.550   4.003  15.800  0.00  0.00    +0.000 A 
ATOM     18  C   UNL     1       5.132   4.036  17.135  0.00  0.00    +0.000 A 
ATOM     19  C   UNL     1       5.651   4.978  18.041  0.00  0.00    +0.000 A 
ATOM     20  C   UNL     1       6.511   5.960  17.539  0.00  0.00    +0.000 A 
ATOM     21  C   UNL     1       6.934   5.927  16.201  0.00  0.00    +0.000 A 
ENDBRANCH  14  19
ENDBRANCH   1  14
TORSDOF 3
ENDMDL
MODEL 5
REMARK VINA RESULT:      -7.7      1.874      5.570
REMARK  Name = 
REMARK  4 active torsions:
REMARK  status: ('A' for Active; 'I' for Inactive)
REMARK    1  A    between atoms: C_1  and  C_2
REMARK    2  A    between atoms: C_5  and  C_6
REMARK    3  A    between atoms: C_6  and  N_7
REMARK    4  A    between atoms: C_12  and  C_13
REMARK                            x       y       z     vdW  Elec       q    Type
REMARK                         _______ _______ _______ _____ _____    ______ ____
ROOT
ATOM      1  N   UNL     1       3.828   4.150  19.721  0.00  0.00    +0.000 N 
ATOM      2  C   UNL     1       3.770   2.793  20.051  0.00  0.00    +0.000 C 
ATOM      3  O   UNL     1       4.725   2.015  20.022  0.00  0.00    +0.000 OA
ATOM      4  C   UNL     1       2.361   2.356  20.430  0.00  0.00    +0.000 C 
ATOM      5  S   UNL     1       1.486   3.897  20.750  0.00  0.00    +0.000 S 
ATOM      6  C   UNL     1       2.519   4.745  19.508  0.00  0.00    +0.000 C 
ENDROOT
BRANCH   6   7
ATOM      7  C   UNL     1       2.292   6.231  19.528  0.00  0.00    +0.000 A 
ATOM      8  C   UNL     1       1.798   6.958  20.623  0.00  0.00    +0.000 A 
ATOM      9  C   UNL     1       1.477   8.319  20.488  0.00  0.00    +0.000 A 
ATOM     10  C   UNL     1       1.629   8.969  19.270  0.00  0.00    +0.000 A 
ATOM     11  C   UNL     1       2.121   8.266  18.174  0.00  0.00    +0.000 A 
ATOM     12  C   UNL     1       2.445   6.919  18.313  0.00  0.00    +0.000 A 
ATOM     13  F   UNL     1       2.877   6.263  17.228  0.00  0.00    +0.000 F 
ENDBRANCH   6   7
BRANCH   1  14
ATOM     14  C   UNL     1       5.092   4.763  19.328  0.00  0.00    +0.000 C 
BRANCH  14  19
ATOM     15  C   UNL     1       6.980   4.562  13.810  0.00  0.00    +0.000 C 
ATOM     16  C   UNL     1       6.528   4.468  15.236  0.00  0.00    +0.000 A 
ATOM     17  C   UNL     1       7.341   4.953  16.261  0.00  0.00    +0.000 A 
ATOM     18  C   UNL     1       6.855   5.026  17.572  0.00  0.00    +0.000 A 
ATOM     19  C   UNL     1       5.542   4.634  17.888  0.00  0.00    +0.000 A 
ATOM     20  C   UNL     1       4.772   4.057  16.874  0.00  0.00    +0.000 A 
ATOM     21  C   UNL     1       5.256   3.985  15.558  0.00  0.00    +0.000 A 
ENDBRANCH  14  19
ENDBRANCH   1  14
TORSDOF 3
ENDMDL
MODEL 6
REMARK VINA RESULT:      -7.6      2.492      5.499
REMARK  Name = 
REMARK  4 active torsions:
REMARK  status: ('A' for Active; 'I' for Inactive)
REMARK    1  A    between atoms: C_1  and  C_2
REMARK    2  A    between atoms: C_5  and  C_6
REMARK    3  A    between atoms: C_6  and  N_7
REMARK    4  A    between atoms: C_12  and  C_13
REMARK                            x       y       z     vdW  Elec       q    Type
REMARK                         _______ _______ _______ _____ _____    ______ ____
ROOT
ATOM      1  N   UNL     1       4.592   4.771  16.762  0.00  0.00    +0.000 N 
ATOM      2  C   UNL     1       5.782   4.383  16.141  0.00  0.00    +0.000 C 
ATOM      3  O   UNL     1       5.979   3.292  15.604  0.00  0.00    +0.000 OA
ATOM      4  C   UNL     1       6.851   5.464  16.227  0.00  0.00    +0.000 C 
ATOM      5  S   UNL     1       5.944   6.955  16.671  0.00  0.00    +0.000 S 
ATOM      6  C   UNL     1       4.740   5.949  17.601  0.00  0.00    +0.000 C 
ENDROOT
BRANCH   6   7
ATOM      7  C   UNL     1       3.568   6.774  18.053  0.00  0.00    +0.000 A 
ATOM      8  C   UNL     1       2.962   7.796  17.303  0.00  0.00    +0.000 A 
ATOM      9  C   UNL     1       1.972   8.610  17.877  0.00  0.00    +0.000 A 
ATOM     10  C   UNL     1       1.580   8.431  19.198  0.00  0.00    +0.000 A 
ATOM     11  C   UNL     1       2.166   7.420  19.955  0.00  0.00    +0.000 A 
ATOM     12  C   UNL     1       3.142   6.610  19.382  0.00  0.00    +0.000 A 
ATOM     13  F   UNL     1       3.713   5.675  20.151  0.00  0.00    +0.000 F 
ENDBRANCH   6   7
BRANCH   1  14
ATOM     14  C   UNL     1       3.444   3.871  16.789  0.00  0.00    +0.000 C 
BRANCH  14  19
ATOM     15  C   UNL     1       1.200   2.428  21.980  0.00  0.00    +0.000 C 
ATOM     16  C   UNL     1       1.757   2.656  20.607  0.00  0.00    +0.000 A 
ATOM     17  C   UNL     1       0.978   3.280  19.631  0.00  0.00    +0.000 A 
ATOM     18  C   UNL     1       1.546   3.650  18.406  0.00  0.00    +0.000 A 
ATOM     19  C   UNL     1       2.907   3.423  18.133  0.00  0.00    +0.000 A 
ATOM     20  C   UNL     1       3.652   2.709  19.077  0.00  0.00    +0.000 A 
ATOM     21  C   UNL     1       3.085   2.339  20.307  0.00  0.00    +0.000 A 
ENDBRANCH  14  19
ENDBRANCH   1  14
TORSDOF 3
ENDMDL
MODEL 7
REMARK VINA RESULT:      -7.6      1.529      2.229
REMARK  Name = 
REMARK  4 active torsions:
REMARK  status: ('A' for Active; 'I' for Inactive)
REMARK    1  A    between atoms: C_1  and  C_2
REMARK    2  A    between atoms: C_5  and  C_6
REMARK    3  A    between atoms: C_6  and  N_7
REMARK    4  A    between atoms: C_12  and  C_13
REMARK                            x       y       z     vdW  Elec       q    Type
REMARK                         _______ _______ _______ _____ _____    ______ ____
ROOT
ATOM      1  N   UNL     1       3.259   4.717  18.957  0.00  0.00    +0.000 N 
ATOM      2  C   UNL     1       2.187   3.873  18.655  0.00  0.00    +0.000 C 
ATOM      3  O   UNL     1       1.094   3.883  19.226  0.00  0.00    +0.000 OA
ATOM      4  C   UNL     1       2.526   2.892  17.540  0.00  0.00    +0.000 C 
ATOM      5  S   UNL     1       4.004   3.580  16.775  0.00  0.00    +0.000 S 
ATOM      6  C   UNL     1       4.518   4.271  18.382  0.00  0.00    +0.000 C 
ENDROOT
BRANCH   6   7
ATOM      7  C   UNL     1       5.706   5.180  18.234  0.00  0.00    +0.000 A 
ATOM      8  C   UNL     1       6.831   5.184  19.075  0.00  0.00    +0.000 A 
ATOM      9  C   UNL     1       7.815   6.177  18.944  0.00  0.00    +0.000 A 
ATOM     10  C   UNL     1       7.693   7.179  17.989  0.00  0.00    +0.000 A 
ATOM     11  C   UNL     1       6.588   7.189  17.143  0.00  0.00    +0.000 A 
ATOM     12  C   UNL     1       5.617   6.200  17.271  0.00  0.00    +0.000 A 
ATOM     13  F   UNL     1       4.547   6.263  16.468  0.00  0.00    +0.000 F 
ENDBRANCH   6   7
BRANCH   1  14
ATOM     14  C   UNL     1       3.134   5.729  20.000  0.00  0.00    +0.000 C 
BRANCH  14  19
ATOM     15  C   UNL     1       0.731  10.833  18.507  0.00  0.00    +0.000 C 
ATOM     16  C   UNL     1       1.212   9.463  18.878  0.00  0.00    +0.000 A 
ATOM     17  C   UNL     1       1.890   8.681  17.942  0.00  0.00    +0.000 A 
ATOM     18  C   UNL     1       2.489   7.478  18.330  0.00  0.00    +0.000 A 
ATOM     19  C   UNL     1       2.443   7.034  19.663  0.00  0.00    +0.000 A 
ATOM     20  C   UNL     1       1.677   7.773  20.571  0.00  0.00    +0.000 A 
ATOM     21  C   UNL     1       1.077   8.983  20.184  0.00  0.00    +0.000 A 
ENDBRANCH  14  19
ENDBRANCH   1  14
TORSDOF 3
ENDMDL
MODEL 8
REMARK VINA RESULT:      -7.6      2.457      4.305
REMARK  Name = 
REMARK  4 active torsions:
REMARK  status: ('A' for Active; 'I' for Inactive)
REMARK    1  A    between atoms: C_1  and  C_2
REMARK    2  A    between atoms: C_5  and  C_6
REMARK    3  A    between atoms: C_6  and  N_7
REMARK    4  A    between atoms: C_12  and  C_13
REMARK                            x       y       z     vdW  Elec       q    Type
REMARK                         _______ _______ _______ _____ _____    ______ ____
ROOT
ATOM      1  N   UNL     1       4.434   6.112  17.750  0.00  0.00    +0.000 N 
ATOM      2  C   UNL     1       5.750   6.527  17.533  0.00  0.00    +0.000 C 
ATOM      3  O   UNL     1       6.081   7.538  16.912  0.00  0.00    +0.000 OA
ATOM      4  C   UNL     1       6.762   5.559  18.132  0.00  0.00    +0.000 C 
ATOM      5  S   UNL     1       5.797   4.555  19.274  0.00  0.00    +0.000 S 
ATOM      6  C   UNL     1       4.334   4.733  18.200  0.00  0.00    +0.000 C 
ENDROOT
BRANCH   6   7
ATOM      7  C   UNL     1       3.100   4.184  18.859  0.00  0.00    +0.000 A 
ATOM      8  C   UNL     1       2.844   4.203  20.240  0.00  0.00    +0.000 A 
ATOM      9  C   UNL     1       1.733   3.526  20.769  0.00  0.00    +0.000 A 
ATOM     10  C   UNL     1       0.872   2.816  19.941  0.00  0.00    +0.000 A 
ATOM     11  C   UNL     1       1.106   2.789  18.569  0.00  0.00    +0.000 A 
ATOM     12  C   UNL     1       2.204   3.467  18.047  0.00  0.00    +0.000 A 
ATOM     13  F   UNL     1       2.423   3.386  16.728  0.00  0.00    +0.000 F 
ENDBRANCH   6   7
BRANCH   1  14
ATOM     14  C   UNL     1       3.316   6.905  17.251  0.00  0.00    +0.000 C 
BRANCH  14  19
ATOM     15  C   UNL     1       0.422  10.426  20.896  0.00  0.00    +0.000 C 
ATOM     16  C   UNL     1       1.041   9.440  19.952  0.00  0.00    +0.000 A 
ATOM     17  C   UNL     1       1.188   9.760  18.602  0.00  0.00    +0.000 A 
ATOM     18  C   UNL     1       1.917   8.918  17.753  0.00  0.00    +0.000 A 
ATOM     19  C   UNL     1       2.531   7.748  18.234  0.00  0.00    +0.000 A 
ATOM     20  C   UNL     1       2.293   7.386  19.564  0.00  0.00    +0.000 A 
ATOM     21  C   UNL     1       1.565   8.230  20.418  0.00  0.00    +0.000 A 
ENDBRANCH  14  19
ENDBRANCH   1  14
TORSDOF 3
ENDMDL
MODEL 9
REMARK VINA RESULT:      -7.5      1.148      1.212
REMARK  Name = 
REMARK  4 active torsions:
REMARK  status: ('A' for Active; 'I' for Inactive)
REMARK    1  A    between atoms: C_1  and  C_2
REMARK    2  A    between atoms: C_5  and  C_6
REMARK    3  A    between atoms: C_6  and  N_7
REMARK    4  A    between atoms: C_12  and  C_13
REMARK                            x       y       z     vdW  Elec       q    Type
REMARK                         _______ _______ _______ _____ _____    ______ ____
ROOT
ATOM      1  N   UNL     1       2.874   4.864  19.203  0.00  0.00    +0.000 N 
ATOM      2  C   UNL     1       1.850   3.914  19.142  0.00  0.00    +0.000 C 
ATOM      3  O   UNL     1       0.849   3.905  19.860  0.00  0.00    +0.000 OA
ATOM      4  C   UNL     1       2.122   2.846  18.092  0.00  0.00    +0.000 C 
ATOM      5  S   UNL     1       3.416   3.554  17.059  0.00  0.00    +0.000 S 
ATOM      6  C   UNL     1       4.079   4.453  18.500  0.00  0.00    +0.000 C 
ENDROOT
BRANCH   6   7
ATOM      7  C   UNL     1       5.150   5.426  18.094  0.00  0.00    +0.000 A 
ATOM      8  C   UNL     1       5.137   6.200  16.922  0.00  0.00    +0.000 A 
ATOM      9  C   UNL     1       6.260   6.963  16.560  0.00  0.00    +0.000 A 
ATOM     10  C   UNL     1       7.407   6.959  17.344  0.00  0.00    +0.000 A 
ATOM     11  C   UNL     1       7.436   6.202  18.511  0.00  0.00    +0.000 A 
ATOM     12  C   UNL     1       6.321   5.453  18.872  0.00  0.00    +0.000 A 
ATOM     13  F   UNL     1       6.398   4.704  19.980  0.00  0.00    +0.000 F 
ENDBRANCH   6   7
BRANCH   1  14
ATOM     14  C   UNL     1       2.801   5.971  20.149  0.00  0.00    +0.000 C 
BRANCH  14  19
ATOM     15  C   UNL     1       0.094  10.905  18.602  0.00  0.00    +0.000 C 
ATOM     16  C   UNL     1       0.916   9.717  19.005  0.00  0.00    +0.000 A 
ATOM     17  C   UNL     1       0.880   9.254  20.321  0.00  0.00    +0.000 A 
ATOM     18  C   UNL     1       1.506   8.050  20.662  0.00  0.00    +0.000 A 
ATOM     19  C   UNL     1       2.167   7.270  19.697  0.00  0.00    +0.000 A 
ATOM     20  C   UNL     1       2.283   7.792  18.404  0.00  0.00    +0.000 A 
ATOM     21  C   UNL     1       1.653   8.998  18.059  0.00  0.00    +0.000 A 
ENDBRANCH  14  19
ENDBRANCH   1  14
TORSDOF 3
ENDMDL
