MODEL 1
REMARK VINA RESULT:      -7.3      0.000      0.000
REMARK  Name = 
REMARK  4 active torsions:
REMARK  status: ('A' for Active; 'I' for Inactive)
REMARK    1  A    between atoms: C_1  and  O_2
REMARK    2  A    between atoms: O_2  and  C_3
REMARK    3  A    between atoms: C_6  and  N_7
REMARK    4  A    between atoms: C_11  and  C_13
REMARK                            x       y       z     vdW  Elec       q    Type
REMARK                         _______ _______ _______ _____ _____    ______ ____
ROOT
ATOM      1  N   UNL     1       1.865   7.988  19.646  0.00  0.00    +0.000 N 
ATOM      2  C   UNL     1       1.965   8.941  18.528  0.00  0.00    +0.000 C 
ATOM      3  C   UNL     1       0.630   9.695  18.354  0.00  0.00    +0.000 C 
ATOM      4  N   UNL     1       0.154  10.259  19.622  0.00  0.00    +0.000 N 
ATOM      5  C   UNL     1      -0.282  11.583  19.666  0.00  0.00    +0.000 C 
ATOM      6  O   UNL     1      -0.354  12.264  18.641  0.00  0.00    +0.000 OA
ATOM      7  C   UNL     1       0.051   9.265  20.702  0.00  0.00    +0.000 C 
ATOM      8  C   UNL     1       1.394   8.556  20.921  0.00  0.00    +0.000 C 
ENDROOT
BRANCH   5   9
ATOM      9  C   UNL     1      -0.671  12.161  20.961  0.00  0.00    +0.000 A 
ATOM     10  N   UNL     1       0.198  12.292  21.980  0.00  0.00    +0.000 NA
ATOM     11  O   UNL     1      -0.504  12.832  23.032  0.00  0.00    +0.000 OA
ATOM     12  C   UNL     1      -1.767  13.104  22.631  0.00  0.00    +0.000 A 
ATOM     13  C   UNL     1      -1.938  12.718  21.321  0.00  0.00    +0.000 A 
ATOM     14  C   UNL     1      -3.186  12.854  20.518  0.00  0.00    +0.000 C 
ATOM     15  C   UNL     1      -4.442  12.608  21.363  0.00  0.00    +0.000 C 
ATOM     16  C   UNL     1      -4.854  13.782  22.266  0.00  0.00    +0.000 C 
ATOM     17  C   UNL     1      -3.733  14.589  22.935  0.00  0.00    +0.000 C 
ATOM     18  C   UNL     1      -2.666  13.737  23.622  0.00  0.00    +0.000 C 
ENDBRANCH   5   9
BRANCH   1  22
ATOM     19  C   UNL     1       3.019   3.954  19.274  0.00  0.00    +0.000 A 
ATOM     20  C   UNL     1       2.311   4.380  20.396  0.00  0.00    +0.000 A 
ATOM     21  C   UNL     1       1.919   5.716  20.512  0.00  0.00    +0.000 A 
ATOM     22  C   UNL     1       2.230   6.666  19.527  0.00  0.00    +0.000 A 
ATOM     23  C   UNL     1       2.951   6.209  18.420  0.00  0.00    +0.000 A 
ATOM     24  C   UNL     1       3.348   4.877  18.291  0.00  0.00    +0.000 A 
BRANCH  19  26
ATOM     25  C   UNL     1       3.134   1.970  18.017  0.00  0.00    +0.000 C 
ATOM     26  O   UNL     1       3.374   2.633  19.254  0.00  0.00    +0.000 OA
ENDBRANCH  19  26
ENDBRANCH   1  22
TORSDOF 3
ENDMDL
MODEL 2
REMARK VINA RESULT:      -7.2      0.489      1.054
REMARK  Name = 
REMARK  4 active torsions:
REMARK  status: ('A' for Active; 'I' for Inactive)
REMARK    1  A    between atoms: C_1  and  O_2
REMARK    2  A    between atoms: O_2  and  C_3
REMARK    3  A    between atoms: C_6  and  N_7
REMARK    4  A    between atoms: C_11  and  C_13
REMARK                            x       y       z     vdW  Elec       q    Type
REMARK                         _______ _______ _______ _____ _____    ______ ____
ROOT
ATOM      1  N   UNL     1       1.784   8.112  19.615  0.00  0.00    +0.000 N 
ATOM      2  C   UNL     1       1.858   9.039  18.473  0.00  0.00    +0.000 C 
ATOM      3  C   UNL     1       0.541   9.833  18.349  0.00  0.00    +0.000 C 
ATOM      4  N   UNL     1       0.148  10.438  19.627  0.00  0.00    +0.000 N 
ATOM      5  C   UNL     1      -0.243  11.777  19.663  0.00  0.00    +0.000 C 
ATOM      6  O   UNL     1      -0.345  12.439  18.628  0.00  0.00    +0.000 OA
ATOM      7  C   UNL     1       0.067   9.470  20.732  0.00  0.00    +0.000 C 
ATOM      8  C   UNL     1       1.397   8.721  20.899  0.00  0.00    +0.000 C 
ENDROOT
BRANCH   5   9
ATOM      9  C   UNL     1      -0.548  12.394  20.963  0.00  0.00    +0.000 A 
ATOM     10  N   UNL     1       0.401  12.623  21.889  0.00  0.00    +0.000 NA
ATOM     11  O   UNL     1      -0.234  13.172  22.979  0.00  0.00    +0.000 OA
ATOM     12  C   UNL     1      -1.543  13.352  22.687  0.00  0.00    +0.000 A 
ATOM     13  C   UNL     1      -1.808  12.894  21.416  0.00  0.00    +0.000 A 
ATOM     14  C   UNL     1      -3.130  12.919  20.728  0.00  0.00    +0.000 C 
ATOM     15  C   UNL     1      -4.286  12.643  21.697  0.00  0.00    +0.000 C 
ATOM     16  C   UNL     1      -4.686  13.834  22.583  0.00  0.00    +0.000 C 
ATOM     17  C   UNL     1      -3.560  14.734  23.110  0.00  0.00    +0.000 C 
ATOM     18  C   UNL     1      -2.386  13.979  23.729  0.00  0.00    +0.000 C 
ENDBRANCH   5   9
BRANCH   1  22
ATOM     19  C   UNL     1       2.717   4.017  19.294  0.00  0.00    +0.000 A 
ATOM     20  C   UNL     1       2.948   4.876  18.221  0.00  0.00    +0.000 A 
ATOM     21  C   UNL     1       2.650   6.235  18.333  0.00  0.00    +0.000 A 
ATOM     22  C   UNL     1       2.100   6.778  19.506  0.00  0.00    +0.000 A 
ATOM     23  C   UNL     1       1.869   5.888  20.559  0.00  0.00    +0.000 A 
ATOM     24  C   UNL     1       2.164   4.528  20.461  0.00  0.00    +0.000 A 
BRANCH  19  26
ATOM     25  C   UNL     1       4.219   2.261  19.728  0.00  0.00    +0.000 C 
ATOM     26  O   UNL     1       3.026   2.701  19.087  0.00  0.00    +0.000 OA
ENDBRANCH  19  26
ENDBRANCH   1  22
TORSDOF 3
ENDMDL
MODEL 3
REMARK VINA RESULT:      -7.0      1.027      1.079
REMARK  Name = 
REMARK  4 active torsions:
REMARK  status: ('A' for Active; 'I' for Inactive)
REMARK    1  A    between atoms: C_1  and  O_2
REMARK    2  A    between atoms: O_2  and  C_3
REMARK    3  A    between atoms: C_6  and  N_7
REMARK    4  A    between atoms: C_11  and  C_13
REMARK                            x       y       z     vdW  Elec       q    Type
REMARK                         _______ _______ _______ _____ _____    ______ ____
ROOT
ATOM      1  N   UNL     1       2.315   7.809  18.894  0.00  0.00    +0.000 N 
ATOM      2  C   UNL     1       2.547   9.003  18.064  0.00  0.00    +0.000 C 
ATOM      3  C   UNL     1       1.240   9.808  17.915  0.00  0.00    +0.000 C 
ATOM      4  N   UNL     1       0.604  10.058  19.214  0.00  0.00    +0.000 N 
ATOM      5  C   UNL     1       0.157  11.342  19.526  0.00  0.00    +0.000 C 
ATOM      6  O   UNL     1       0.209  12.253  18.697  0.00  0.00    +0.000 OA
ATOM      7  C   UNL     1       0.374   8.834  19.998  0.00  0.00    +0.000 C 
ATOM      8  C   UNL     1       1.685   8.062  20.201  0.00  0.00    +0.000 C 
ENDROOT
BRANCH   5   9
ATOM      9  C   UNL     1      -0.395  11.598  20.865  0.00  0.00    +0.000 A 
ATOM     10  N   UNL     1       0.284  11.307  21.989  0.00  0.00    +0.000 NA
ATOM     11  O   UNL     1      -0.535  11.641  23.043  0.00  0.00    +0.000 OA
ATOM     12  C   UNL     1      -1.666  12.208  22.565  0.00  0.00    +0.000 A 
ATOM     13  C   UNL     1      -1.638  12.227  21.189  0.00  0.00    +0.000 A 
ATOM     14  C   UNL     1      -2.697  12.771  20.293  0.00  0.00    +0.000 C 
ATOM     15  C   UNL     1      -4.104  12.504  20.840  0.00  0.00    +0.000 C 
ATOM     16  C   UNL     1      -4.543  13.436  21.981  0.00  0.00    +0.000 C 
ATOM     17  C   UNL     1      -3.480  13.842  23.011  0.00  0.00    +0.000 C 
ATOM     18  C   UNL     1      -2.656  12.678  23.560  0.00  0.00    +0.000 C 
ENDBRANCH   5   9
BRANCH   1  22
ATOM     19  C   UNL     1       3.531   3.953  17.715  0.00  0.00    +0.000 A 
ATOM     20  C   UNL     1       2.264   4.153  18.260  0.00  0.00    +0.000 A 
ATOM     21  C   UNL     1       1.858   5.434  18.639  0.00  0.00    +0.000 A 
ATOM     22  C   UNL     1       2.702   6.548  18.503  0.00  0.00    +0.000 A 
ATOM     23  C   UNL     1       3.970   6.312  17.965  0.00  0.00    +0.000 A 
ATOM     24  C   UNL     1       4.388   5.037  17.580  0.00  0.00    +0.000 A 
BRANCH  19  26
ATOM     25  C   UNL     1       3.350   1.680  18.291  0.00  0.00    +0.000 C 
ATOM     26  O   UNL     1       3.846   2.662  17.387  0.00  0.00    +0.000 OA
ENDBRANCH  19  26
ENDBRANCH   1  22
TORSDOF 3
ENDMDL
MODEL 4
REMARK VINA RESULT:      -7.0      1.221      1.305
REMARK  Name = 
REMARK  4 active torsions:
REMARK  status: ('A' for Active; 'I' for Inactive)
REMARK    1  A    between atoms: C_1  and  O_2
REMARK    2  A    between atoms: O_2  and  C_3
REMARK    3  A    between atoms: C_6  and  N_7
REMARK    4  A    between atoms: C_11  and  C_13
REMARK                            x       y       z     vdW  Elec       q    Type
REMARK                         _______ _______ _______ _____ _____    ______ ____
ROOT
ATOM      1  N   UNL     1       1.642   8.545  19.791  0.00  0.00    +0.000 N 
ATOM      2  C   UNL     1       1.402   9.327  18.566  0.00  0.00    +0.000 C 
ATOM      3  C   UNL     1       0.077  10.107  18.686  0.00  0.00    +0.000 C 
ATOM      4  N   UNL     1       0.002  10.863  19.942  0.00  0.00    +0.000 N 
ATOM      5  C   UNL     1      -0.401  12.198  19.918  0.00  0.00    +0.000 C 
ATOM      6  O   UNL     1      -0.777  12.732  18.872  0.00  0.00    +0.000 OA
ATOM      7  C   UNL     1       0.227  10.036  21.137  0.00  0.00    +0.000 C 
ATOM      8  C   UNL     1       1.575   9.306  21.050  0.00  0.00    +0.000 C 
ENDROOT
BRANCH   5   9
ATOM      9  C   UNL     1      -0.384  12.969  21.171  0.00  0.00    +0.000 A 
ATOM     10  N   UNL     1       0.698  13.658  21.576  0.00  0.00    +0.000 NA
ATOM     11  O   UNL     1       0.376  14.223  22.788  0.00  0.00    +0.000 OA
ATOM     12  C   UNL     1      -0.918  13.951  23.076  0.00  0.00    +0.000 A 
ATOM     13  C   UNL     1      -1.466  13.171  22.083  0.00  0.00    +0.000 A 
ATOM     14  C   UNL     1      -2.867  12.664  22.034  0.00  0.00    +0.000 C 
ATOM     15  C   UNL     1      -3.390  12.285  23.424  0.00  0.00    +0.000 C 
ATOM     16  C   UNL     1      -3.815  13.473  24.302  0.00  0.00    +0.000 C 
ATOM     17  C   UNL     1      -2.969  14.752  24.221  0.00  0.00    +0.000 C 
ATOM     18  C   UNL     1      -1.463  14.520  24.329  0.00  0.00    +0.000 C 
ENDBRANCH   5   9
BRANCH   1  22
ATOM     19  C   UNL     1       2.636   4.453  19.701  0.00  0.00    +0.000 A 
ATOM     20  C   UNL     1       1.945   4.983  20.788  0.00  0.00    +0.000 A 
ATOM     21  C   UNL     1       1.605   6.337  20.811  0.00  0.00    +0.000 A 
ATOM     22  C   UNL     1       1.955   7.205  19.764  0.00  0.00    +0.000 A 
ATOM     23  C   UNL     1       2.659   6.645  18.694  0.00  0.00    +0.000 A 
ATOM     24  C   UNL     1       3.003   5.292  18.658  0.00  0.00    +0.000 A 
BRANCH  19  26
ATOM     25  C   UNL     1       2.863   2.563  21.082  0.00  0.00    +0.000 C 
ATOM     26  O   UNL     1       2.939   3.120  19.773  0.00  0.00    +0.000 OA
ENDBRANCH  19  26
ENDBRANCH   1  22
TORSDOF 3
ENDMDL
MODEL 5
REMARK VINA RESULT:      -6.9      2.342      9.726
REMARK  Name = 
REMARK  4 active torsions:
REMARK  status: ('A' for Active; 'I' for Inactive)
REMARK    1  A    between atoms: C_1  and  O_2
REMARK    2  A    between atoms: O_2  and  C_3
REMARK    3  A    between atoms: C_6  and  N_7
REMARK    4  A    between atoms: C_11  and  C_13
REMARK                            x       y       z     vdW  Elec       q    Type
REMARK                         _______ _______ _______ _____ _____    ______ ____
ROOT
ATOM      1  N   UNL     1       1.548   8.497  19.749  0.00  0.00    +0.000 N 
ATOM      2  C   UNL     1       1.799   7.753  20.995  0.00  0.00    +0.000 C 
ATOM      3  C   UNL     1       1.496   6.255  20.787  0.00  0.00    +0.000 C 
ATOM      4  N   UNL     1       2.163   5.726  19.592  0.00  0.00    +0.000 N 
ATOM      5  C   UNL     1       2.866   4.523  19.672  0.00  0.00    +0.000 C 
ATOM      6  O   UNL     1       2.867   3.853  20.707  0.00  0.00    +0.000 OA
ATOM      7  C   UNL     1       1.866   6.489  18.370  0.00  0.00    +0.000 C 
ATOM      8  C   UNL     1       2.224   7.970  18.551  0.00  0.00    +0.000 C 
ENDROOT
BRANCH   5   9
ATOM      9  C   UNL     1       3.604   4.050  18.490  0.00  0.00    +0.000 A 
ATOM     10  N   UNL     1       3.244   2.944  17.815  0.00  0.00    +0.000 NA
ATOM     11  O   UNL     1       4.161   2.783  16.802  0.00  0.00    +0.000 OA
ATOM     12  C   UNL     1       5.021   3.828  16.811  0.00  0.00    +0.000 A 
ATOM     13  C   UNL     1       4.715   4.680  17.848  0.00  0.00    +0.000 A 
ATOM     14  C   UNL     1       5.426   5.945  18.189  0.00  0.00    +0.000 C 
ATOM     15  C   UNL     1       6.938   5.833  17.957  0.00  0.00    +0.000 C 
ATOM     16  C   UNL     1       7.377   5.942  16.488  0.00  0.00    +0.000 C 
ATOM     17  C   UNL     1       6.479   5.287  15.430  0.00  0.00    +0.000 C 
ATOM     18  C   UNL     1       6.059   3.854  15.757  0.00  0.00    +0.000 C 
ENDBRANCH   5   9
BRANCH   1  22
ATOM     19  C   UNL     1      -0.845  11.961  19.609  0.00  0.00    +0.000 A 
ATOM     20  C   UNL     1      -0.292  11.538  20.817  0.00  0.00    +0.000 A 
ATOM     21  C   UNL     1       0.511  10.396  20.859  0.00  0.00    +0.000 A 
ATOM     22  C   UNL     1       0.775   9.635  19.709  0.00  0.00    +0.000 A 
ATOM     23  C   UNL     1       0.196  10.079  18.517  0.00  0.00    +0.000 A 
ATOM     24  C   UNL     1      -0.606  11.220  18.460  0.00  0.00    +0.000 A 
BRANCH  19  26
ATOM     25  C   UNL     1      -2.882  12.896  20.319  0.00  0.00    +0.000 C 
ATOM     26  O   UNL     1      -1.629  13.080  19.667  0.00  0.00    +0.000 OA
ENDBRANCH  19  26
ENDBRANCH   1  22
TORSDOF 3
ENDMDL
MODEL 6
REMARK VINA RESULT:      -6.9      3.996     10.652
REMARK  Name = 
REMARK  4 active torsions:
REMARK  status: ('A' for Active; 'I' for Inactive)
REMARK    1  A    between atoms: C_1  and  O_2
REMARK    2  A    between atoms: O_2  and  C_3
REMARK    3  A    between atoms: C_6  and  N_7
REMARK    4  A    between atoms: C_11  and  C_13
REMARK                            x       y       z     vdW  Elec       q    Type
REMARK                         _______ _______ _______ _____ _____    ______ ____
ROOT
ATOM      1  N   UNL     1       2.741   7.154  19.236  0.00  0.00    +0.000 N 
ATOM      2  C   UNL     1       2.836   5.761  19.704  0.00  0.00    +0.000 C 
ATOM      3  C   UNL     1       2.821   4.796  18.500  0.00  0.00    +0.000 C 
ATOM      4  N   UNL     1       3.799   5.185  17.478  0.00  0.00    +0.000 N 
ATOM      5  C   UNL     1       4.648   4.221  16.935  0.00  0.00    +0.000 C 
ATOM      6  O   UNL     1       4.535   3.030  17.235  0.00  0.00    +0.000 OA
ATOM      7  C   UNL     1       3.652   6.578  17.027  0.00  0.00    +0.000 C 
ATOM      8  C   UNL     1       3.728   7.547  18.216  0.00  0.00    +0.000 C 
ENDROOT
BRANCH   5   9
ATOM      9  C   UNL     1       5.683   4.641  15.978  0.00  0.00    +0.000 A 
ATOM     10  N   UNL     1       6.695   5.456  16.327  0.00  0.00    +0.000 NA
ATOM     11  O   UNL     1       7.445   5.665  15.193  0.00  0.00    +0.000 OA
ATOM     12  C   UNL     1       6.942   4.916  14.184  0.00  0.00    +0.000 A 
ATOM     13  C   UNL     1       5.831   4.229  14.617  0.00  0.00    +0.000 A 
ATOM     14  C   UNL     1       4.999   3.297  13.804  0.00  0.00    +0.000 C 
ATOM     15  C   UNL     1       4.858   3.771  12.353  0.00  0.00    +0.000 C 
ATOM     16  C   UNL     1       6.084   3.507  11.463  0.00  0.00    +0.000 C 
ATOM     17  C   UNL     1       7.470   3.676  12.101  0.00  0.00    +0.000 C 
ATOM     18  C   UNL     1       7.650   4.974  12.886  0.00  0.00    +0.000 C 
ENDBRANCH   5   9
BRANCH   1  22
ATOM     19  C   UNL     1      -0.037   9.888  20.832  0.00  0.00    +0.000 A 
ATOM     20  C   UNL     1       0.453  10.061  19.539  0.00  0.00    +0.000 A 
ATOM     21  C   UNL     1       1.365   9.146  19.007  0.00  0.00    +0.000 A 
ATOM     22  C   UNL     1       1.826   8.046  19.747  0.00  0.00    +0.000 A 
ATOM     23  C   UNL     1       1.325   7.909  21.045  0.00  0.00    +0.000 A 
ATOM     24  C   UNL     1       0.412   8.814  21.588  0.00  0.00    +0.000 A 
BRANCH  19  26
ATOM     25  C   UNL     1      -0.942  11.015  22.687  0.00  0.00    +0.000 C 
ATOM     26  O   UNL     1      -0.914  10.841  21.274  0.00  0.00    +0.000 OA
ENDBRANCH  19  26
ENDBRANCH   1  22
TORSDOF 3
ENDMDL
MODEL 7
REMARK VINA RESULT:      -6.9      2.845      4.083
REMARK  Name = 
REMARK  4 active torsions:
REMARK  status: ('A' for Active; 'I' for Inactive)
REMARK    1  A    between atoms: C_1  and  O_2
REMARK    2  A    between atoms: O_2  and  C_3
REMARK    3  A    between atoms: C_6  and  N_7
REMARK    4  A    between atoms: C_11  and  C_13
REMARK                            x       y       z     vdW  Elec       q    Type
REMARK                         _______ _______ _______ _____ _____    ______ ____
ROOT
ATOM      1  N   UNL     1       2.436   6.973  18.315  0.00  0.00    +0.000 N 
ATOM      2  C   UNL     1       1.786   6.602  19.584  0.00  0.00    +0.000 C 
ATOM      3  C   UNL     1       1.839   7.785  20.572  0.00  0.00    +0.000 C 
ATOM      4  N   UNL     1       1.358   9.028  19.959  0.00  0.00    +0.000 N 
ATOM      5  C   UNL     1       0.441   9.825  20.645  0.00  0.00    +0.000 C 
ATOM      6  O   UNL     1       0.091   9.547  21.794  0.00  0.00    +0.000 OA
ATOM      7  C   UNL     1       2.050   9.369  18.706  0.00  0.00    +0.000 C 
ATOM      8  C   UNL     1       1.947   8.217  17.696  0.00  0.00    +0.000 C 
ENDROOT
BRANCH   5   9
ATOM      9  C   UNL     1      -0.100  11.021  19.981  0.00  0.00    +0.000 A 
ATOM     10  N   UNL     1      -1.328  11.043  19.432  0.00  0.00    +0.000 NA
ATOM     11  O   UNL     1      -1.491  12.291  18.877  0.00  0.00    +0.000 OA
ATOM     12  C   UNL     1      -0.405  13.048  19.160  0.00  0.00    +0.000 A 
ATOM     13  C   UNL     1       0.511  12.309  19.873  0.00  0.00    +0.000 A 
ATOM     14  C   UNL     1       1.832  12.786  20.372  0.00  0.00    +0.000 C 
ATOM     15  C   UNL     1       2.504  13.749  19.387  0.00  0.00    +0.000 C 
ATOM     16  C   UNL     1       1.945  15.180  19.396  0.00  0.00    +0.000 C 
ATOM     17  C   UNL     1       0.430  15.347  19.581  0.00  0.00    +0.000 C 
ATOM     18  C   UNL     1      -0.418  14.449  18.681  0.00  0.00    +0.000 C 
ENDBRANCH   5   9
BRANCH   1  22
ATOM     19  C   UNL     1       5.357   4.561  16.475  0.00  0.00    +0.000 A 
ATOM     20  C   UNL     1       5.470   5.950  16.440  0.00  0.00    +0.000 A 
ATOM     21  C   UNL     1       4.507   6.748  17.061  0.00  0.00    +0.000 A 
ATOM     22  C   UNL     1       3.399   6.192  17.720  0.00  0.00    +0.000 A 
ATOM     23  C   UNL     1       3.308   4.797  17.726  0.00  0.00    +0.000 A 
ATOM     24  C   UNL     1       4.265   3.988  17.111  0.00  0.00    +0.000 A 
BRANCH  19  26
ATOM     25  C   UNL     1       6.377   4.058  14.417  0.00  0.00    +0.000 C 
ATOM     26  O   UNL     1       6.339   3.862  15.827  0.00  0.00    +0.000 OA
ENDBRANCH  19  26
ENDBRANCH   1  22
TORSDOF 3
ENDMDL
MODEL 8
REMARK VINA RESULT:      -6.8      1.973      8.884
REMARK  Name = 
REMARK  4 active torsions:
REMARK  status: ('A' for Active; 'I' for Inactive)
REMARK    1  A    between atoms: C_1  and  O_2
REMARK    2  A    between atoms: O_2  and  C_3
REMARK    3  A    between atoms: C_6  and  N_7
REMARK    4  A    between atoms: C_11  and  C_13
REMARK                            x       y       z     vdW  Elec       q    Type
REMARK                         _______ _______ _______ _____ _____    ______ ____
ROOT
ATOM      1  N   UNL     1       0.232   9.441  20.059  0.00  0.00    +0.000 N 
ATOM      2  C   UNL     1       0.346   9.628  18.602  0.00  0.00    +0.000 C 
ATOM      3  C   UNL     1       1.819   9.487  18.164  0.00  0.00    +0.000 C 
ATOM      4  N   UNL     1       2.428   8.261  18.691  0.00  0.00    +0.000 N 
ATOM      5  C   UNL     1       3.163   7.436  17.838  0.00  0.00    +0.000 C 
ATOM      6  O   UNL     1       3.382   7.762  16.670  0.00  0.00    +0.000 OA
ATOM      7  C   UNL     1       2.308   8.128  20.151  0.00  0.00    +0.000 C 
ATOM      8  C   UNL     1       0.838   8.206  20.586  0.00  0.00    +0.000 C 
ENDROOT
BRANCH   5   9
ATOM      9  C   UNL     1       3.692   6.166  18.359  0.00  0.00    +0.000 A 
ATOM     10  N   UNL     1       4.994   5.998  18.654  0.00  0.00    +0.000 NA
ATOM     11  O   UNL     1       5.139   4.698  19.078  0.00  0.00    +0.000 OA
ATOM     12  C   UNL     1       3.923   4.106  19.120  0.00  0.00    +0.000 A 
ATOM     13  C   UNL     1       2.956   4.987  18.691  0.00  0.00    +0.000 A 
ATOM     14  C   UNL     1       1.494   4.713  18.596  0.00  0.00    +0.000 C 
ATOM     15  C   UNL     1       1.208   3.275  18.148  0.00  0.00    +0.000 C 
ATOM     16  C   UNL     1       1.370   2.211  19.245  0.00  0.00    +0.000 C 
ATOM     17  C   UNL     1       2.521   2.393  20.244  0.00  0.00    +0.000 C 
ATOM     18  C   UNL     1       3.871   2.707  19.601  0.00  0.00    +0.000 C 
ENDBRANCH   5   9
BRANCH   1  22
ATOM     19  C   UNL     1      -1.839  12.161  22.519  0.00  0.00    +0.000 A 
ATOM     20  C   UNL     1      -1.181  11.068  23.080  0.00  0.00    +0.000 A 
ATOM     21  C   UNL     1      -0.485  10.173  22.264  0.00  0.00    +0.000 A 
ATOM     22  C   UNL     1      -0.434  10.330  20.869  0.00  0.00    +0.000 A 
ATOM     23  C   UNL     1      -1.115  11.429  20.337  0.00  0.00    +0.000 A 
ATOM     24  C   UNL     1      -1.813  12.331  21.142  0.00  0.00    +0.000 A 
BRANCH  19  26
ATOM     25  C   UNL     1      -3.927  12.907  23.302  0.00  0.00    +0.000 C 
ATOM     26  O   UNL     1      -2.507  12.973  23.394  0.00  0.00    +0.000 OA
ENDBRANCH  19  26
ENDBRANCH   1  22
TORSDOF 3
ENDMDL
MODEL 9
REMARK VINA RESULT:      -6.8      2.264      3.384
REMARK  Name = 
REMARK  4 active torsions:
REMARK  status: ('A' for Active; 'I' for Inactive)
REMARK    1  A    between atoms: C_1  and  O_2
REMARK    2  A    between atoms: O_2  and  C_3
REMARK    3  A    between atoms: C_6  and  N_7
REMARK    4  A    between atoms: C_11  and  C_13
REMARK                            x       y       z     vdW  Elec       q    Type
REMARK                         _______ _______ _______ _____ _____    ______ ____
ROOT
ATOM      1  N   UNL     1       0.852   9.864  19.709  0.00  0.00    +0.000 N 
ATOM      2  C   UNL     1       1.315  11.258  19.816  0.00  0.00    +0.000 C 
ATOM      3  C   UNL     1       0.296  12.207  19.154  0.00  0.00    +0.000 C 
ATOM      4  N   UNL     1      -1.069  11.959  19.632  0.00  0.00    +0.000 N 
ATOM      5  C   UNL     1      -1.867  13.034  20.026  0.00  0.00    +0.000 C 
ATOM      6  O   UNL     1      -1.476  14.196  19.901  0.00  0.00    +0.000 OA
ATOM      7  C   UNL     1      -1.495  10.558  19.485  0.00  0.00    +0.000 C 
ATOM      8  C   UNL     1      -0.516   9.614  20.196  0.00  0.00    +0.000 C 
ENDROOT
BRANCH   5   9
ATOM      9  C   UNL     1      -3.199  12.763  20.587  0.00  0.00    +0.000 A 
ATOM     10  N   UNL     1      -3.462  12.879  21.901  0.00  0.00    +0.000 NA
ATOM     11  O   UNL     1      -4.779  12.522  22.074  0.00  0.00    +0.000 OA
ATOM     12  C   UNL     1      -5.335  12.274  20.865  0.00  0.00    +0.000 A 
ATOM     13  C   UNL     1      -4.391  12.423  19.874  0.00  0.00    +0.000 A 
ATOM     14  C   UNL     1      -4.612  12.239  18.412  0.00  0.00    +0.000 C 
ATOM     15  C   UNL     1      -5.584  11.090  18.119  0.00  0.00    +0.000 C 
ATOM     16  C   UNL     1      -7.068  11.426  18.335  0.00  0.00    +0.000 C 
ATOM     17  C   UNL     1      -7.424  12.327  19.526  0.00  0.00    +0.000 C 
ATOM     18  C   UNL     1      -6.771  11.917  20.845  0.00  0.00    +0.000 C 
ENDBRANCH   5   9
BRANCH   1  22
ATOM     19  C   UNL     1       3.278   6.741  18.258  0.00  0.00    +0.000 A 
ATOM     20  C   UNL     1       3.058   7.877  17.482  0.00  0.00    +0.000 A 
ATOM     21  C   UNL     1       2.263   8.917  17.969  0.00  0.00    +0.000 A 
ATOM     22  C   UNL     1       1.653   8.852  19.233  0.00  0.00    +0.000 A 
ATOM     23  C   UNL     1       1.884   7.694  19.981  0.00  0.00    +0.000 A 
ATOM     24  C   UNL     1       2.677   6.649  19.507  0.00  0.00    +0.000 A 
BRANCH  19  26
ATOM     25  C   UNL     1       3.451   4.481  17.633  0.00  0.00    +0.000 C 
ATOM     26  O   UNL     1       4.056   5.769  17.693  0.00  0.00    +0.000 OA
ENDBRANCH  19  26
ENDBRANCH   1  22
TORSDOF 3
ENDMDL
