MODEL 1
REMARK VINA RESULT:      -6.3      0.000      0.000
REMARK  Name = 
REMARK  12 active torsions:
REMARK  status: ('A' for Active; 'I' for Inactive)
REMARK    1  A    between atoms: C_1  and  C_2
REMARK    2  A    between atoms: C_2  and  C_3
REMARK    3  A    between atoms: C_3  and  C_4
REMARK    4  A    between atoms: C_4  and  N_5
REMARK    5  A    between atoms: N_5  and  C_6
REMARK    6  A    between atoms: N_5  and  C_10
REMARK    7  A    between atoms: C_6  and  C_7
REMARK    8  A    between atoms: C_7  and  C_8
REMARK    9  A    between atoms: C_8  and  C_9
REMARK   10  A    between atoms: C_10  and  C_11
REMARK   11  A    between atoms: C_11  and  O_12
REMARK   12  A    between atoms: C_11  and  C_13
REMARK                            x       y       z     vdW  Elec       q    Type
REMARK                         _______ _______ _______ _____ _____    ______ ____
ROOT
ATOM      1  C   UNL     1      -0.657  10.763  18.900  0.00  0.00    +0.000 A 
ATOM      2  C   UNL     1       0.346   9.731  18.988  0.00  0.00    +0.000 A 
ATOM      3  C   UNL     1       0.914   9.089  17.847  0.00  0.00    +0.000 A 
ATOM      4  C   UNL     1       1.889   8.096  17.934  0.00  0.00    +0.000 A 
ATOM      5  C   UNL     1       2.332   7.693  19.174  0.00  0.00    +0.000 A 
ATOM      6  C   UNL     1       1.793   8.288  20.313  0.00  0.00    +0.000 A 
ATOM      7  C   UNL     1       0.797   9.307  20.259  0.00  0.00    +0.000 A 
ATOM      8  C   UNL     1       0.240   9.921  21.419  0.00  0.00    +0.000 A 
ATOM      9 BR   UNL     1       0.871   9.354  23.160  0.00  0.00    +0.000 Br
ATOM     10  C   UNL     1      -0.783  10.912  21.355  0.00  0.00    +0.000 A 
ATOM     11  C   UNL     1      -1.341  11.538  22.504  0.00  0.00    +0.000 A 
ATOM     12  C   UNL     1      -2.368  12.477  22.436  0.00  0.00    +0.000 A 
ATOM     13  C   UNL     1      -2.904  12.790  21.210  0.00  0.00    +0.000 A 
ATOM     14  C   UNL     1      -2.374  12.200  20.063  0.00  0.00    +0.000 A 
ATOM     15  C   UNL     1      -1.275  11.296  20.084  0.00  0.00    +0.000 A 
ENDROOT
BRANCH   1  16
ATOM     16  C   UNL     1      -1.052  11.273  17.502  0.00  0.00    +0.000 C 
BRANCH  16  17
ATOM     17  O   UNL     1      -1.324  12.672  17.481  0.00  0.00    +0.000 OA
ATOM     18  H   UNL     1      -1.405  12.924  16.543  0.00  0.00    +0.000 HD
ENDBRANCH  16  17
BRANCH  16  19
ATOM     19  C   UNL     1      -2.247  10.460  16.925  0.00  0.00    +0.000 C 
BRANCH  19  20
ATOM     20  N   UNL     1      -2.978  11.081  15.775  0.00  0.00    +0.000 NA
BRANCH  20  21
ATOM     21  C   UNL     1      -2.916  10.168  14.601  0.00  0.00    +0.000 C 
BRANCH  21  22
ATOM     22  C   UNL     1      -4.214   9.876  13.829  0.00  0.00    +0.000 C 
BRANCH  22  24
ATOM     23  C   UNL     1      -5.401   9.602  11.639  0.00  0.00    +0.000 C 
ATOM     24  C   UNL     1      -4.048   9.801  12.312  0.00  0.00    +0.000 C 
ENDBRANCH  22  24
ENDBRANCH  21  22
ENDBRANCH  20  21
BRANCH  20  25
ATOM     25  C   UNL     1      -4.392  11.322  16.162  0.00  0.00    +0.000 C 
BRANCH  25  26
ATOM     26  C   UNL     1      -4.758  11.071  17.636  0.00  0.00    +0.000 C 
BRANCH  26  27
ATOM     27  C   UNL     1      -6.248  11.236  17.942  0.00  0.00    +0.000 C 
ATOM     28  C   UNL     1      -6.698  12.665  17.673  0.00  0.00    +0.000 C 
ENDBRANCH  26  27
ENDBRANCH  25  26
ENDBRANCH  20  25
ENDBRANCH  19  20
ENDBRANCH  16  19
ENDBRANCH   1  16
TORSDOF 10
ENDMDL
MODEL 2
REMARK VINA RESULT:      -6.2      6.599      9.622
REMARK  Name = 
REMARK  12 active torsions:
REMARK  status: ('A' for Active; 'I' for Inactive)
REMARK    1  A    between atoms: C_1  and  C_2
REMARK    2  A    between atoms: C_2  and  C_3
REMARK    3  A    between atoms: C_3  and  C_4
REMARK    4  A    between atoms: C_4  and  N_5
REMARK    5  A    between atoms: N_5  and  C_6
REMARK    6  A    between atoms: N_5  and  C_10
REMARK    7  A    between atoms: C_6  and  C_7
REMARK    8  A    between atoms: C_7  and  C_8
REMARK    9  A    between atoms: C_8  and  C_9
REMARK   10  A    between atoms: C_10  and  C_11
REMARK   11  A    between atoms: C_11  and  O_12
REMARK   12  A    between atoms: C_11  and  C_13
REMARK                            x       y       z     vdW  Elec       q    Type
REMARK                         _______ _______ _______ _____ _____    ______ ____
ROOT
ATOM      1  C   UNL     1       3.875   4.928  18.542  0.00  0.00    +0.000 A 
ATOM      2  C   UNL     1       3.314   4.192  19.647  0.00  0.00    +0.000 A 
ATOM      3  C   UNL     1       3.655   2.839  19.943  0.00  0.00    +0.000 A 
ATOM      4  C   UNL     1       3.116   2.131  21.017  0.00  0.00    +0.000 A 
ATOM      5  C   UNL     1       2.201   2.748  21.840  0.00  0.00    +0.000 A 
ATOM      6  C   UNL     1       1.833   4.066  21.577  0.00  0.00    +0.000 A 
ATOM      7  C   UNL     1       2.366   4.818  20.489  0.00  0.00    +0.000 A 
ATOM      8  C   UNL     1       1.996   6.166  20.213  0.00  0.00    +0.000 A 
ATOM      9 BR   UNL     1       0.711   7.031  21.377  0.00  0.00    +0.000 Br
ATOM     10  C   UNL     1       2.505   6.898  19.100  0.00  0.00    +0.000 A 
ATOM     11  C   UNL     1       2.151   8.246  18.818  0.00  0.00    +0.000 A 
ATOM     12  C   UNL     1       2.622   8.941  17.706  0.00  0.00    +0.000 A 
ATOM     13  C   UNL     1       3.436   8.291  16.811  0.00  0.00    +0.000 A 
ATOM     14  C   UNL     1       3.810   6.971  17.062  0.00  0.00    +0.000 A 
ATOM     15  C   UNL     1       3.412   6.252  18.225  0.00  0.00    +0.000 A 
ENDROOT
BRANCH   1  16
ATOM     16  C   UNL     1       4.978   4.253  17.707  0.00  0.00    +0.000 C 
BRANCH  16  17
ATOM     17  O   UNL     1       4.704   2.881  17.435  0.00  0.00    +0.000 OA
ATOM     18  H   UNL     1       5.538   2.398  17.583  0.00  0.00    +0.000 HD
ENDBRANCH  16  17
BRANCH  16  19
ATOM     19  C   UNL     1       6.372   4.425  18.375  0.00  0.00    +0.000 C 
BRANCH  19  20
ATOM     20  N   UNL     1       7.444   5.041  17.527  0.00  0.00    +0.000 NA
BRANCH  20  21
ATOM     21  C   UNL     1       7.457   4.380  16.194  0.00  0.00    +0.000 C 
BRANCH  21  22
ATOM     22  C   UNL     1       6.857   5.135  14.995  0.00  0.00    +0.000 C 
BRANCH  22  24
ATOM     23  C   UNL     1       6.322   3.762  12.968  0.00  0.00    +0.000 C 
ATOM     24  C   UNL     1       5.764   4.374  14.247  0.00  0.00    +0.000 C 
ENDBRANCH  22  24
ENDBRANCH  21  22
ENDBRANCH  20  21
BRANCH  20  25
ATOM     25  C   UNL     1       7.177   6.494  17.376  0.00  0.00    +0.000 C 
BRANCH  25  26
ATOM     26  C   UNL     1       8.021   7.447  18.242  0.00  0.00    +0.000 C 
BRANCH  26  27
ATOM     27  C   UNL     1       8.112   8.870  17.689  0.00  0.00    +0.000 C 
ATOM     28  C   UNL     1       8.943   9.754  18.609  0.00  0.00    +0.000 C 
ENDBRANCH  26  27
ENDBRANCH  25  26
ENDBRANCH  20  25
ENDBRANCH  19  20
ENDBRANCH  16  19
ENDBRANCH   1  16
TORSDOF 10
ENDMDL
MODEL 3
REMARK VINA RESULT:      -6.1      2.581      6.437
REMARK  Name = 
REMARK  12 active torsions:
REMARK  status: ('A' for Active; 'I' for Inactive)
REMARK    1  A    between atoms: C_1  and  C_2
REMARK    2  A    between atoms: C_2  and  C_3
REMARK    3  A    between atoms: C_3  and  C_4
REMARK    4  A    between atoms: C_4  and  N_5
REMARK    5  A    between atoms: N_5  and  C_6
REMARK    6  A    between atoms: N_5  and  C_10
REMARK    7  A    between atoms: C_6  and  C_7
REMARK    8  A    between atoms: C_7  and  C_8
REMARK    9  A    between atoms: C_8  and  C_9
REMARK   10  A    between atoms: C_10  and  C_11
REMARK   11  A    between atoms: C_11  and  O_12
REMARK   12  A    between atoms: C_11  and  C_13
REMARK                            x       y       z     vdW  Elec       q    Type
REMARK                         _______ _______ _______ _____ _____    ______ ____
ROOT
ATOM      1  C   UNL     1      -1.033  11.510  19.019  0.00  0.00    +0.000 A 
ATOM      2  C   UNL     1      -1.330  12.163  20.270  0.00  0.00    +0.000 A 
ATOM      3  C   UNL     1      -0.356  12.397  21.285  0.00  0.00    +0.000 A 
ATOM      4  C   UNL     1      -0.645  13.035  22.490  0.00  0.00    +0.000 A 
ATOM      5  C   UNL     1      -1.931  13.459  22.737  0.00  0.00    +0.000 A 
ATOM      6  C   UNL     1      -2.914  13.238  21.775  0.00  0.00    +0.000 A 
ATOM      7  C   UNL     1      -2.653  12.591  20.532  0.00  0.00    +0.000 A 
ATOM      8  C   UNL     1      -3.652  12.361  19.542  0.00  0.00    +0.000 A 
ATOM      9 BR   UNL     1      -5.459  12.964  19.893  0.00  0.00    +0.000 Br
ATOM     10  C   UNL     1      -3.388  11.679  18.318  0.00  0.00    +0.000 A 
ATOM     11  C   UNL     1      -4.374  11.450  17.319  0.00  0.00    +0.000 A 
ATOM     12  C   UNL     1      -4.118  10.748  16.143  0.00  0.00    +0.000 A 
ATOM     13  C   UNL     1      -2.869  10.212  15.946  0.00  0.00    +0.000 A 
ATOM     14  C   UNL     1      -1.876  10.425  16.903  0.00  0.00    +0.000 A 
ATOM     15  C   UNL     1      -2.077  11.201  18.080  0.00  0.00    +0.000 A 
ENDROOT
BRANCH   1  16
ATOM     16  C   UNL     1       0.434  11.148  18.721  0.00  0.00    +0.000 C 
BRANCH  16  17
ATOM     17  O   UNL     1       1.098  12.136  17.936  0.00  0.00    +0.000 OA
ATOM     18  H   UNL     1       0.593  12.963  18.048  0.00  0.00    +0.000 HD
ENDBRANCH  16  17
BRANCH  16  19
ATOM     19  C   UNL     1       0.543   9.742  18.065  0.00  0.00    +0.000 C 
BRANCH  19  20
ATOM     20  N   UNL     1       1.363   8.727  18.802  0.00  0.00    +0.000 NA
BRANCH  20  21
ATOM     21  C   UNL     1       2.660   8.538  18.099  0.00  0.00    +0.000 C 
BRANCH  21  22
ATOM     22  C   UNL     1       3.073   7.113  17.691  0.00  0.00    +0.000 C 
BRANCH  22  24
ATOM     23  C   UNL     1       2.568   4.662  17.832  0.00  0.00    +0.000 C 
ATOM     24  C   UNL     1       2.464   6.004  18.547  0.00  0.00    +0.000 C 
ENDBRANCH  22  24
ENDBRANCH  21  22
ENDBRANCH  20  21
BRANCH  20  25
ATOM     25  C   UNL     1       1.598   9.199  20.191  0.00  0.00    +0.000 C 
BRANCH  25  26
ATOM     26  C   UNL     1       0.829   8.471  21.309  0.00  0.00    +0.000 C 
BRANCH  26  27
ATOM     27  C   UNL     1       0.786   9.238  22.632  0.00  0.00    +0.000 C 
ATOM     28  C   UNL     1      -0.650   9.423  23.102  0.00  0.00    +0.000 C 
ENDBRANCH  26  27
ENDBRANCH  25  26
ENDBRANCH  20  25
ENDBRANCH  19  20
ENDBRANCH  16  19
ENDBRANCH   1  16
TORSDOF 10
ENDMDL
MODEL 4
REMARK VINA RESULT:      -6.1      2.694      6.113
REMARK  Name = 
REMARK  12 active torsions:
REMARK  status: ('A' for Active; 'I' for Inactive)
REMARK    1  A    between atoms: C_1  and  C_2
REMARK    2  A    between atoms: C_2  and  C_3
REMARK    3  A    between atoms: C_3  and  C_4
REMARK    4  A    between atoms: C_4  and  N_5
REMARK    5  A    between atoms: N_5  and  C_6
REMARK    6  A    between atoms: N_5  and  C_10
REMARK    7  A    between atoms: C_6  and  C_7
REMARK    8  A    between atoms: C_7  and  C_8
REMARK    9  A    between atoms: C_8  and  C_9
REMARK   10  A    between atoms: C_10  and  C_11
REMARK   11  A    between atoms: C_11  and  O_12
REMARK   12  A    between atoms: C_11  and  C_13
REMARK                            x       y       z     vdW  Elec       q    Type
REMARK                         _______ _______ _______ _____ _____    ______ ____
ROOT
ATOM      1  C   UNL     1      -2.083  12.255  19.613  0.00  0.00    +0.000 A 
ATOM      2  C   UNL     1      -3.372  12.009  19.017  0.00  0.00    +0.000 A 
ATOM      3  C   UNL     1      -3.543  11.529  17.685  0.00  0.00    +0.000 A 
ATOM      4  C   UNL     1      -4.790  11.285  17.113  0.00  0.00    +0.000 A 
ATOM      5  C   UNL     1      -5.928  11.522  17.852  0.00  0.00    +0.000 A 
ATOM      6  C   UNL     1      -5.803  12.003  19.153  0.00  0.00    +0.000 A 
ATOM      7  C   UNL     1      -4.544  12.260  19.769  0.00  0.00    +0.000 A 
ATOM      8  C   UNL     1      -4.407  12.752  21.099  0.00  0.00    +0.000 A 
ATOM      9 BR   UNL     1      -6.011  13.079  22.135  0.00  0.00    +0.000 Br
ATOM     10  C   UNL     1      -3.143  13.044  21.692  0.00  0.00    +0.000 A 
ATOM     11  C   UNL     1      -2.992  13.526  23.021  0.00  0.00    +0.000 A 
ATOM     12  C   UNL     1      -1.757  13.846  23.579  0.00  0.00    +0.000 A 
ATOM     13  C   UNL     1      -0.627  13.732  22.806  0.00  0.00    +0.000 A 
ATOM     14  C   UNL     1      -0.739  13.254  21.501  0.00  0.00    +0.000 A 
ATOM     15  C   UNL     1      -1.972  12.845  20.920  0.00  0.00    +0.000 A 
ENDROOT
BRANCH   1  16
ATOM     16  C   UNL     1      -0.827  11.875  18.807  0.00  0.00    +0.000 C 
BRANCH  16  17
ATOM     17  O   UNL     1      -0.599  12.743  17.699  0.00  0.00    +0.000 OA
ATOM     18  H   UNL     1      -1.453  13.172  17.503  0.00  0.00    +0.000 HD
ENDBRANCH  16  17
BRANCH  16  19
ATOM     19  C   UNL     1      -0.879  10.388  18.354  0.00  0.00    +0.000 C 
BRANCH  19  20
ATOM     20  N   UNL     1       0.228   9.506  18.843  0.00  0.00    +0.000 NA
BRANCH  20  21
ATOM     21  C   UNL     1       1.313   9.466  17.826  0.00  0.00    +0.000 C 
BRANCH  21  22
ATOM     22  C   UNL     1       2.570   8.631  18.124  0.00  0.00    +0.000 C 
BRANCH  22  24
ATOM     23  C   UNL     1       2.718   6.450  19.349  0.00  0.00    +0.000 C 
ATOM     24  C   UNL     1       2.369   7.121  18.026  0.00  0.00    +0.000 C 
ENDBRANCH  22  24
ENDBRANCH  21  22
ENDBRANCH  20  21
BRANCH  20  25
ATOM     25  C   UNL     1       0.752  10.039  20.128  0.00  0.00    +0.000 C 
BRANCH  25  26
ATOM     26  C   UNL     1       0.899   9.035  21.286  0.00  0.00    +0.000 C 
BRANCH  26  27
ATOM     27  C   UNL     1       0.748   9.662  22.672  0.00  0.00    +0.000 C 
ATOM     28  C   UNL     1      -0.712   9.982  22.964  0.00  0.00    +0.000 C 
ENDBRANCH  26  27
ENDBRANCH  25  26
ENDBRANCH  20  25
ENDBRANCH  19  20
ENDBRANCH  16  19
ENDBRANCH   1  16
TORSDOF 10
ENDMDL
MODEL 5
REMARK VINA RESULT:      -6.1      2.826      6.762
REMARK  Name = 
REMARK  12 active torsions:
REMARK  status: ('A' for Active; 'I' for Inactive)
REMARK    1  A    between atoms: C_1  and  C_2
REMARK    2  A    between atoms: C_2  and  C_3
REMARK    3  A    between atoms: C_3  and  C_4
REMARK    4  A    between atoms: C_4  and  N_5
REMARK    5  A    between atoms: N_5  and  C_6
REMARK    6  A    between atoms: N_5  and  C_10
REMARK    7  A    between atoms: C_6  and  C_7
REMARK    8  A    between atoms: C_7  and  C_8
REMARK    9  A    between atoms: C_8  and  C_9
REMARK   10  A    between atoms: C_10  and  C_11
REMARK   11  A    between atoms: C_11  and  O_12
REMARK   12  A    between atoms: C_11  and  C_13
REMARK                            x       y       z     vdW  Elec       q    Type
REMARK                         _______ _______ _______ _____ _____    ______ ____
ROOT
ATOM      1  C   UNL     1      -2.284  12.601  19.749  0.00  0.00    +0.000 A 
ATOM      2  C   UNL     1      -3.543  12.142  19.217  0.00  0.00    +0.000 A 
ATOM      3  C   UNL     1      -3.683  11.563  17.921  0.00  0.00    +0.000 A 
ATOM      4  C   UNL     1      -4.901  11.114  17.411  0.00  0.00    +0.000 A 
ATOM      5  C   UNL     1      -6.038  11.235  18.177  0.00  0.00    +0.000 A 
ATOM      6  C   UNL     1      -5.944  11.807  19.444  0.00  0.00    +0.000 A 
ATOM      7  C   UNL     1      -4.716  12.274  19.996  0.00  0.00    +0.000 A 
ATOM      8  C   UNL     1      -4.611  12.860  21.291  0.00  0.00    +0.000 A 
ATOM      9 BR   UNL     1      -6.214  13.024  22.366  0.00  0.00    +0.000 Br
ATOM     10  C   UNL     1      -3.384  13.359  21.818  0.00  0.00    +0.000 A 
ATOM     11  C   UNL     1      -3.264  13.938  23.112  0.00  0.00    +0.000 A 
ATOM     12  C   UNL     1      -2.070  14.459  23.605  0.00  0.00    +0.000 A 
ATOM     13  C   UNL     1      -0.959  14.457  22.798  0.00  0.00    +0.000 A 
ATOM     14  C   UNL     1      -1.040  13.889  21.526  0.00  0.00    +0.000 A 
ATOM     15  C   UNL     1      -2.220  13.278  21.016  0.00  0.00    +0.000 A 
ENDROOT
BRANCH   1  16
ATOM     16  C   UNL     1      -1.012  12.350  18.919  0.00  0.00    +0.000 C 
BRANCH  16  17
ATOM     17  O   UNL     1      -1.150  12.760  17.560  0.00  0.00    +0.000 OA
ATOM     18  H   UNL     1      -0.321  13.217  17.324  0.00  0.00    +0.000 HD
ENDBRANCH  16  17
BRANCH  16  19
ATOM     19  C   UNL     1      -0.562  10.865  19.015  0.00  0.00    +0.000 C 
BRANCH  19  20
ATOM     20  N   UNL     1       0.801  10.619  19.586  0.00  0.00    +0.000 NA
BRANCH  20  21
ATOM     21  C   UNL     1       0.753  10.785  21.064  0.00  0.00    +0.000 C 
BRANCH  21  22
ATOM     22  C   UNL     1       0.902   9.535  21.949  0.00  0.00    +0.000 C 
BRANCH  22  24
ATOM     23  C   UNL     1      -1.031  10.607  23.129  0.00  0.00    +0.000 C 
ATOM     24  C   UNL     1      -0.238   9.318  22.941  0.00  0.00    +0.000 C 
ENDBRANCH  22  24
ENDBRANCH  21  22
ENDBRANCH  20  21
BRANCH  20  25
ATOM     25  C   UNL     1       1.239   9.242  19.239  0.00  0.00    +0.000 C 
BRANCH  25  26
ATOM     26  C   UNL     1       2.032   9.076  17.930  0.00  0.00    +0.000 C 
BRANCH  26  27
ATOM     27  C   UNL     1       2.219   7.621  17.499  0.00  0.00    +0.000 C 
ATOM     28  C   UNL     1       3.377   6.980  18.253  0.00  0.00    +0.000 C 
ENDBRANCH  26  27
ENDBRANCH  25  26
ENDBRANCH  20  25
ENDBRANCH  19  20
ENDBRANCH  16  19
ENDBRANCH   1  16
TORSDOF 10
ENDMDL
MODEL 6
REMARK VINA RESULT:      -6.1      2.587      7.243
REMARK  Name = 
REMARK  12 active torsions:
REMARK  status: ('A' for Active; 'I' for Inactive)
REMARK    1  A    between atoms: C_1  and  C_2
REMARK    2  A    between atoms: C_2  and  C_3
REMARK    3  A    between atoms: C_3  and  C_4
REMARK    4  A    between atoms: C_4  and  N_5
REMARK    5  A    between atoms: N_5  and  C_6
REMARK    6  A    between atoms: N_5  and  C_10
REMARK    7  A    between atoms: C_6  and  C_7
REMARK    8  A    between atoms: C_7  and  C_8
REMARK    9  A    between atoms: C_8  and  C_9
REMARK   10  A    between atoms: C_10  and  C_11
REMARK   11  A    between atoms: C_11  and  O_12
REMARK   12  A    between atoms: C_11  and  C_13
REMARK                            x       y       z     vdW  Elec       q    Type
REMARK                         _______ _______ _______ _____ _____    ______ ____
ROOT
ATOM      1  C   UNL     1      -1.538  11.586  18.976  0.00  0.00    +0.000 A 
ATOM      2  C   UNL     1      -2.086  12.184  20.168  0.00  0.00    +0.000 A 
ATOM      3  C   UNL     1      -1.307  12.493  21.322  0.00  0.00    +0.000 A 
ATOM      4  C   UNL     1      -1.838  13.078  22.470  0.00  0.00    +0.000 A 
ATOM      5  C   UNL     1      -3.182  13.372  22.517  0.00  0.00    +0.000 A 
ATOM      6  C   UNL     1      -3.979  13.075  21.414  0.00  0.00    +0.000 A 
ATOM      7  C   UNL     1      -3.468  12.479  20.224  0.00  0.00    +0.000 A 
ATOM      8  C   UNL     1      -4.277  12.171  19.091  0.00  0.00    +0.000 A 
ATOM      9 BR   UNL     1      -6.167  12.592  19.161  0.00  0.00    +0.000 Br
ATOM     10  C   UNL     1      -3.763  11.540  17.921  0.00  0.00    +0.000 A 
ATOM     11  C   UNL     1      -4.556  11.236  16.780  0.00  0.00    +0.000 A 
ATOM     12  C   UNL     1      -4.055  10.583  15.656  0.00  0.00    +0.000 A 
ATOM     13  C   UNL     1      -2.745  10.173  15.653  0.00  0.00    +0.000 A 
ATOM     14  C   UNL     1      -1.937  10.463  16.752  0.00  0.00    +0.000 A 
ATOM     15  C   UNL     1      -2.390  11.194  17.886  0.00  0.00    +0.000 A 
ENDROOT
BRANCH   1  16
ATOM     16  C   UNL     1      -0.015  11.372  18.908  0.00  0.00    +0.000 C 
BRANCH  16  17
ATOM     17  O   UNL     1       0.642  12.340  18.092  0.00  0.00    +0.000 OA
ATOM     18  H   UNL     1       0.851  11.896  17.250  0.00  0.00    +0.000 HD
ENDBRANCH  16  17
BRANCH  16  19
ATOM     19  C   UNL     1       0.329   9.926  18.449  0.00  0.00    +0.000 C 
BRANCH  19  20
ATOM     20  N   UNL     1       1.484   9.268  19.139  0.00  0.00    +0.000 NA
BRANCH  20  21
ATOM     21  C   UNL     1       0.973   8.382  20.220  0.00  0.00    +0.000 C 
BRANCH  21  22
ATOM     22  C   UNL     1       1.406   8.665  21.669  0.00  0.00    +0.000 C 
BRANCH  22  24
ATOM     23  C   UNL     1      -0.555   9.416  23.038  0.00  0.00    +0.000 C 
ATOM     24  C   UNL     1       0.712   9.862  22.317  0.00  0.00    +0.000 C 
ENDBRANCH  22  24
ENDBRANCH  21  22
ENDBRANCH  20  21
BRANCH  20  25
ATOM     25  C   UNL     1       2.261   8.475  18.151  0.00  0.00    +0.000 C 
BRANCH  25  26
ATOM     26  C   UNL     1       2.254   6.946  18.332  0.00  0.00    +0.000 C 
BRANCH  26  27
ATOM     27  C   UNL     1       3.622   6.292  18.132  0.00  0.00    +0.000 C 
ATOM     28  C   UNL     1       4.460   7.087  17.140  0.00  0.00    +0.000 C 
ENDBRANCH  26  27
ENDBRANCH  25  26
ENDBRANCH  20  25
ENDBRANCH  19  20
ENDBRANCH  16  19
ENDBRANCH   1  16
TORSDOF 10
ENDMDL
MODEL 7
REMARK VINA RESULT:      -6.1      3.092      6.666
REMARK  Name = 
REMARK  12 active torsions:
REMARK  status: ('A' for Active; 'I' for Inactive)
REMARK    1  A    between atoms: C_1  and  C_2
REMARK    2  A    between atoms: C_2  and  C_3
REMARK    3  A    between atoms: C_3  and  C_4
REMARK    4  A    between atoms: C_4  and  N_5
REMARK    5  A    between atoms: N_5  and  C_6
REMARK    6  A    between atoms: N_5  and  C_10
REMARK    7  A    between atoms: C_6  and  C_7
REMARK    8  A    between atoms: C_7  and  C_8
REMARK    9  A    between atoms: C_8  and  C_9
REMARK   10  A    between atoms: C_10  and  C_11
REMARK   11  A    between atoms: C_11  and  O_12
REMARK   12  A    between atoms: C_11  and  C_13
REMARK                            x       y       z     vdW  Elec       q    Type
REMARK                         _______ _______ _______ _____ _____    ______ ____
ROOT
ATOM      1  C   UNL     1      -2.325  12.551  19.718  0.00  0.00    +0.000 A 
ATOM      2  C   UNL     1      -1.990  13.197  20.963  0.00  0.00    +0.000 A 
ATOM      3  C   UNL     1      -0.654  13.514  21.348  0.00  0.00    +0.000 A 
ATOM      4  C   UNL     1      -0.333  14.145  22.549  0.00  0.00    +0.000 A 
ATOM      5  C   UNL     1      -1.341  14.479  23.426  0.00  0.00    +0.000 A 
ATOM      6  C   UNL     1      -2.659  14.175  23.090  0.00  0.00    +0.000 A 
ATOM      7  C   UNL     1      -3.021  13.533  21.870  0.00  0.00    +0.000 A 
ATOM      8  C   UNL     1      -4.366  13.218  21.519  0.00  0.00    +0.000 A 
ATOM      9 BR   UNL     1      -5.781  13.694  22.754  0.00  0.00    +0.000 Br
ATOM     10  C   UNL     1      -4.715  12.540  20.314  0.00  0.00    +0.000 A 
ATOM     11  C   UNL     1      -6.053  12.227  19.948  0.00  0.00    +0.000 A 
ATOM     12  C   UNL     1      -6.382  11.530  18.788  0.00  0.00    +0.000 A 
ATOM     13  C   UNL     1      -5.372  11.083  17.971  0.00  0.00    +0.000 A 
ATOM     14  C   UNL     1      -4.049  11.379  18.297  0.00  0.00    +0.000 A 
ATOM     15  C   UNL     1      -3.677  12.154  19.431  0.00  0.00    +0.000 A 
ENDROOT
BRANCH   1  16
ATOM     16  C   UNL     1      -1.192  12.291  18.709  0.00  0.00    +0.000 C 
BRANCH  16  17
ATOM     17  O   UNL     1      -1.609  12.459  17.355  0.00  0.00    +0.000 OA
ATOM     18  H   UNL     1      -0.818  12.729  16.854  0.00  0.00    +0.000 HD
ENDBRANCH  16  17
BRANCH  16  19
ATOM     19  C   UNL     1      -0.553  10.890  18.929  0.00  0.00    +0.000 C 
BRANCH  19  20
ATOM     20  N   UNL     1       0.834  10.875  19.496  0.00  0.00    +0.000 NA
BRANCH  20  21
ATOM     21  C   UNL     1       1.011   9.656  20.331  0.00  0.00    +0.000 C 
BRANCH  21  22
ATOM     22  C   UNL     1      -0.200   9.116  21.110  0.00  0.00    +0.000 C 
BRANCH  22  24
ATOM     23  C   UNL     1      -0.918  10.365  23.161  0.00  0.00    +0.000 C 
ATOM     24  C   UNL     1      -0.074   9.213  22.629  0.00  0.00    +0.000 C 
ENDBRANCH  22  24
ENDBRANCH  21  22
ENDBRANCH  20  21
BRANCH  20  25
ATOM     25  C   UNL     1       1.820  10.882  18.385  0.00  0.00    +0.000 C 
BRANCH  25  26
ATOM     26  C   UNL     1       2.559  12.207  18.124  0.00  0.00    +0.000 C 
BRANCH  26  27
ATOM     27  C   UNL     1       2.323  13.270  19.197  0.00  0.00    +0.000 C 
ATOM     28  C   UNL     1       2.111  14.638  18.565  0.00  0.00    +0.000 C 
ENDBRANCH  26  27
ENDBRANCH  25  26
ENDBRANCH  20  25
ENDBRANCH  19  20
ENDBRANCH  16  19
ENDBRANCH   1  16
TORSDOF 10
ENDMDL
MODEL 8
REMARK VINA RESULT:      -6.1      3.069      6.660
REMARK  Name = 
REMARK  12 active torsions:
REMARK  status: ('A' for Active; 'I' for Inactive)
REMARK    1  A    between atoms: C_1  and  C_2
REMARK    2  A    between atoms: C_2  and  C_3
REMARK    3  A    between atoms: C_3  and  C_4
REMARK    4  A    between atoms: C_4  and  N_5
REMARK    5  A    between atoms: N_5  and  C_6
REMARK    6  A    between atoms: N_5  and  C_10
REMARK    7  A    between atoms: C_6  and  C_7
REMARK    8  A    between atoms: C_7  and  C_8
REMARK    9  A    between atoms: C_8  and  C_9
REMARK   10  A    between atoms: C_10  and  C_11
REMARK   11  A    between atoms: C_11  and  O_12
REMARK   12  A    between atoms: C_11  and  C_13
REMARK                            x       y       z     vdW  Elec       q    Type
REMARK                         _______ _______ _______ _____ _____    ______ ____
ROOT
ATOM      1  C   UNL     1       0.323  11.561  19.292  0.00  0.00    +0.000 A 
ATOM      2  C   UNL     1      -1.014  11.282  18.833  0.00  0.00    +0.000 A 
ATOM      3  C   UNL     1      -1.335  10.205  17.955  0.00  0.00    +0.000 A 
ATOM      4  C   UNL     1      -2.630   9.932  17.518  0.00  0.00    +0.000 A 
ATOM      5  C   UNL     1      -3.666  10.737  17.936  0.00  0.00    +0.000 A 
ATOM      6  C   UNL     1      -3.392  11.807  18.786  0.00  0.00    +0.000 A 
ATOM      7  C   UNL     1      -2.080  12.112  19.253  0.00  0.00    +0.000 A 
ATOM      8  C   UNL     1      -1.791  13.204  20.121  0.00  0.00    +0.000 A 
ATOM      9 BR   UNL     1      -3.253  14.331  20.711  0.00  0.00    +0.000 Br
ATOM     10  C   UNL     1      -0.470  13.524  20.551  0.00  0.00    +0.000 A 
ATOM     11  C   UNL     1      -0.168  14.605  21.425  0.00  0.00    +0.000 A 
ATOM     12  C   UNL     1       1.130  14.935  21.809  0.00  0.00    +0.000 A 
ATOM     13  C   UNL     1       2.179  14.214  21.295  0.00  0.00    +0.000 A 
ATOM     14  C   UNL     1       1.919  13.142  20.442  0.00  0.00    +0.000 A 
ATOM     15  C   UNL     1       0.604  12.726  20.087  0.00  0.00    +0.000 A 
ENDROOT
BRANCH   1  16
ATOM     16  C   UNL     1       1.443  10.580  18.901  0.00  0.00    +0.000 C 
BRANCH  16  17
ATOM     17  O   UNL     1       1.853  10.724  17.542  0.00  0.00    +0.000 OA
ATOM     18  H   UNL     1       1.138  11.205  17.088  0.00  0.00    +0.000 HD
ENDBRANCH  16  17
BRANCH  16  19
ATOM     19  C   UNL     1       1.038   9.111  19.212  0.00  0.00    +0.000 C 
BRANCH  19  20
ATOM     20  N   UNL     1       1.206   8.662  20.632  0.00  0.00    +0.000 NA
BRANCH  20  21
ATOM     21  C   UNL     1      -0.127   8.336  21.207  0.00  0.00    +0.000 C 
BRANCH  21  22
ATOM     22  C   UNL     1      -0.534   8.994  22.536  0.00  0.00    +0.000 C 
BRANCH  22  24
ATOM     23  C   UNL     1      -1.511  11.208  23.188  0.00  0.00    +0.000 C 
ATOM     24  C   UNL     1      -0.296  10.501  22.599  0.00  0.00    +0.000 C 
ENDBRANCH  22  24
ENDBRANCH  21  22
ENDBRANCH  20  21
BRANCH  20  25
ATOM     25  C   UNL     1       2.086   7.465  20.668  0.00  0.00    +0.000 C 
BRANCH  25  26
ATOM     26  C   UNL     1       2.410   6.803  19.317  0.00  0.00    +0.000 C 
BRANCH  26  27
ATOM     27  C   UNL     1       2.203   5.288  19.305  0.00  0.00    +0.000 C 
ATOM     28  C   UNL     1       1.557   4.821  20.601  0.00  0.00    +0.000 C 
ENDBRANCH  26  27
ENDBRANCH  25  26
ENDBRANCH  20  25
ENDBRANCH  19  20
ENDBRANCH  16  19
ENDBRANCH   1  16
TORSDOF 10
ENDMDL
MODEL 9
REMARK VINA RESULT:      -6.1      3.680      7.152
REMARK  Name = 
REMARK  12 active torsions:
REMARK  status: ('A' for Active; 'I' for Inactive)
REMARK    1  A    between atoms: C_1  and  C_2
REMARK    2  A    between atoms: C_2  and  C_3
REMARK    3  A    between atoms: C_3  and  C_4
REMARK    4  A    between atoms: C_4  and  N_5
REMARK    5  A    between atoms: N_5  and  C_6
REMARK    6  A    between atoms: N_5  and  C_10
REMARK    7  A    between atoms: C_6  and  C_7
REMARK    8  A    between atoms: C_7  and  C_8
REMARK    9  A    between atoms: C_8  and  C_9
REMARK   10  A    between atoms: C_10  and  C_11
REMARK   11  A    between atoms: C_11  and  O_12
REMARK   12  A    between atoms: C_11  and  C_13
REMARK                            x       y       z     vdW  Elec       q    Type
REMARK                         _______ _______ _______ _____ _____    ______ ____
ROOT
ATOM      1  C   UNL     1      -0.870  11.727  20.350  0.00  0.00    +0.000 A 
ATOM      2  C   UNL     1      -1.487  12.552  21.358  0.00  0.00    +0.000 A 
ATOM      3  C   UNL     1      -0.826  12.954  22.557  0.00  0.00    +0.000 A 
ATOM      4  C   UNL     1      -1.422  13.757  23.527  0.00  0.00    +0.000 A 
ATOM      5  C   UNL     1      -2.718  14.187  23.344  0.00  0.00    +0.000 A 
ATOM      6  C   UNL     1      -3.402  13.805  22.192  0.00  0.00    +0.000 A 
ATOM      7  C   UNL     1      -2.821  12.987  21.179  0.00  0.00    +0.000 A 
ATOM      8  C   UNL     1      -3.513  12.592  19.998  0.00  0.00    +0.000 A 
ATOM      9 BR   UNL     1      -5.334  13.204  19.743  0.00  0.00    +0.000 Br
ATOM     10  C   UNL     1      -2.937  11.742  19.009  0.00  0.00    +0.000 A 
ATOM     11  C   UNL     1      -3.613  11.347  17.822  0.00  0.00    +0.000 A 
ATOM     12  C   UNL     1      -3.057  10.485  16.880  0.00  0.00    +0.000 A 
ATOM     13  C   UNL     1      -1.815   9.951  17.117  0.00  0.00    +0.000 A 
ATOM     14  C   UNL     1      -1.120  10.323  18.268  0.00  0.00    +0.000 A 
ATOM     15  C   UNL     1      -1.621  11.260  19.215  0.00  0.00    +0.000 A 
ENDROOT
BRANCH   1  16
ATOM     16  C   UNL     1       0.613  11.355  20.525  0.00  0.00    +0.000 C 
BRANCH  16  17
ATOM     17  O   UNL     1       0.875  10.702  21.766  0.00  0.00    +0.000 OA
ATOM     18  H   UNL     1       0.738  11.369  22.463  0.00  0.00    +0.000 HD
ENDBRANCH  16  17
BRANCH  16  19
ATOM     19  C   UNL     1       1.530  12.598  20.341  0.00  0.00    +0.000 C 
BRANCH  19  20
ATOM     20  N   UNL     1       1.273  13.438  19.127  0.00  0.00    +0.000 NA
BRANCH  20  21
ATOM     21  C   UNL     1       0.860  14.803  19.552  0.00  0.00    +0.000 C 
BRANCH  21  22
ATOM     22  C   UNL     1      -0.489  15.352  19.053  0.00  0.00    +0.000 C 
BRANCH  22  24
ATOM     23  C   UNL     1      -0.382  16.514  21.271  0.00  0.00    +0.000 C 
ATOM     24  C   UNL     1      -1.278  16.142  20.095  0.00  0.00    +0.000 C 
ENDBRANCH  22  24
ENDBRANCH  21  22
ENDBRANCH  20  21
BRANCH  20  25
ATOM     25  C   UNL     1       2.509  13.510  18.307  0.00  0.00    +0.000 C 
BRANCH  25  26
ATOM     26  C   UNL     1       3.457  14.690  18.584  0.00  0.00    +0.000 C 
BRANCH  26  27
ATOM     27  C   UNL     1       3.758  15.546  17.353  0.00  0.00    +0.000 C 
ATOM     28  C   UNL     1       2.889  16.795  17.338  0.00  0.00    +0.000 C 
ENDBRANCH  26  27
ENDBRANCH  25  26
ENDBRANCH  20  25
ENDBRANCH  19  20
ENDBRANCH  16  19
ENDBRANCH   1  16
TORSDOF 10
ENDMDL
