MODEL 1
REMARK VINA RESULT:      -7.8      0.000      0.000
REMARK  Name = 
REMARK  5 active torsions:
REMARK  status: ('A' for Active; 'I' for Inactive)
REMARK    1  A    between atoms: C_2  and  C_3
REMARK    2  A    between atoms: C_10  and  C_11
REMARK    3  A    between atoms: C_17  and  S_18
REMARK    4  A    between atoms: S_18  and  C_19
REMARK    5  A    between atoms: C_19  and  C_20
REMARK                            x       y       z     vdW  Elec       q    Type
REMARK                         _______ _______ _______ _____ _____    ______ ____
ROOT
ATOM      1  O   UNL     1       5.122   3.619  19.055  0.00  0.00    +0.000 OA
ATOM      2  C   UNL     1       3.995   4.091  19.203  0.00  0.00    +0.000 C 
ATOM      3  N   UNL     1       3.785   5.391  18.691  0.00  0.00    +0.000 N 
ATOM      4  N   UNL     1       2.761   6.176  19.152  0.00  0.00    +0.000 NA
ATOM      5  C   UNL     1       2.938   7.321  18.480  0.00  0.00    +0.000 A 
ATOM      6  N   UNL     1       4.001   7.320  17.618  0.00  0.00    +0.000 NA
ATOM      7  C   UNL     1       4.530   6.131  17.781  0.00  0.00    +0.000 A 
ENDROOT
BRANCH   2   8
ATOM      8  C   UNL     1       2.971   3.318  19.887  0.00  0.00    +0.000 A 
ATOM      9  C   UNL     1       1.868   2.654  19.368  0.00  0.00    +0.000 A 
ATOM     10  C   UNL     1       1.133   2.146  20.466  0.00  0.00    +0.000 A 
ATOM     11  C   UNL     1       1.821   2.525  21.590  0.00  0.00    +0.000 A 
ATOM     12  O   UNL     1       2.933   3.236  21.254  0.00  0.00    +0.000 OA
ENDBRANCH   2   8
BRANCH   5  13
ATOM     13  C   UNL     1       2.068   8.522  18.656  0.00  0.00    +0.000 A 
ATOM     14  C   UNL     1       1.808   9.497  17.709  0.00  0.00    +0.000 A 
ATOM     15  C   UNL     1       0.931  10.433  18.312  0.00  0.00    +0.000 A 
ATOM     16  C   UNL     1       0.716   9.983  19.592  0.00  0.00    +0.000 A 
ATOM     17  O   UNL     1       1.384   8.821  19.804  0.00  0.00    +0.000 OA
ENDBRANCH   5  13
BRANCH   7  18
ATOM     18  S   UNL     1       5.900   5.553  16.883  0.00  0.00    +0.000 S 
BRANCH  18  19
ATOM     19  C   UNL     1       5.106   4.423  15.698  0.00  0.00    +0.000 C 
BRANCH  19  20
ATOM     20  C   UNL     1       5.879   4.341  14.399  0.00  0.00    +0.000 A 
ATOM     21  C   UNL     1       7.050   5.092  14.212  0.00  0.00    +0.000 A 
ATOM     22  C   UNL     1       7.749   5.036  13.003  0.00  0.00    +0.000 A 
ATOM     23  C   UNL     1       7.287   4.228  11.966  0.00  0.00    +0.000 A 
ATOM     24  C   UNL     1       6.128   3.476  12.138  0.00  0.00    +0.000 A 
ATOM     25  C   UNL     1       5.428   3.530  13.346  0.00  0.00    +0.000 A 
ENDBRANCH  19  20
ENDBRANCH  18  19
ENDBRANCH   7  18
TORSDOF 5
ENDMDL
MODEL 2
REMARK VINA RESULT:      -7.8      0.657      1.266
REMARK  Name = 
REMARK  5 active torsions:
REMARK  status: ('A' for Active; 'I' for Inactive)
REMARK    1  A    between atoms: C_2  and  C_3
REMARK    2  A    between atoms: C_10  and  C_11
REMARK    3  A    between atoms: C_17  and  S_18
REMARK    4  A    between atoms: S_18  and  C_19
REMARK    5  A    between atoms: C_19  and  C_20
REMARK                            x       y       z     vdW  Elec       q    Type
REMARK                         _______ _______ _______ _____ _____    ______ ____
ROOT
ATOM      1  O   UNL     1       5.195   3.607  19.305  0.00  0.00    +0.000 OA
ATOM      2  C   UNL     1       4.075   4.108  19.399  0.00  0.00    +0.000 C 
ATOM      3  N   UNL     1       3.888   5.356  18.765  0.00  0.00    +0.000 N 
ATOM      4  N   UNL     1       2.873   6.196  19.143  0.00  0.00    +0.000 NA
ATOM      5  C   UNL     1       3.071   7.269  18.367  0.00  0.00    +0.000 A 
ATOM      6  N   UNL     1       4.138   7.172  17.516  0.00  0.00    +0.000 NA
ATOM      7  C   UNL     1       4.648   5.995  17.795  0.00  0.00    +0.000 A 
ENDROOT
BRANCH   2   8
ATOM      8  C   UNL     1       3.035   3.417  20.146  0.00  0.00    +0.000 A 
ATOM      9  C   UNL     1       1.674   3.323  19.890  0.00  0.00    +0.000 A 
ATOM     10  C   UNL     1       1.093   2.627  20.977  0.00  0.00    +0.000 A 
ATOM     11  C   UNL     1       2.123   2.336  21.835  0.00  0.00    +0.000 A 
ATOM     12  O   UNL     1       3.302   2.811  21.345  0.00  0.00    +0.000 OA
ENDBRANCH   2   8
BRANCH   5  13
ATOM     13  C   UNL     1       2.219   8.495  18.423  0.00  0.00    +0.000 A 
ATOM     14  C   UNL     1       1.357   8.853  19.445  0.00  0.00    +0.000 A 
ATOM     15  C   UNL     1       0.768  10.088  19.074  0.00  0.00    +0.000 A 
ATOM     16  C   UNL     1       1.295  10.406  17.845  0.00  0.00    +0.000 A 
ATOM     17  O   UNL     1       2.185   9.460  17.452  0.00  0.00    +0.000 OA
ENDBRANCH   5  13
BRANCH   7  18
ATOM     18  S   UNL     1       6.014   5.316  16.965  0.00  0.00    +0.000 S 
BRANCH  18  19
ATOM     19  C   UNL     1       5.198   4.241  15.744  0.00  0.00    +0.000 C 
BRANCH  19  20
ATOM     20  C   UNL     1       5.915   4.262  14.411  0.00  0.00    +0.000 A 
ATOM     21  C   UNL     1       5.464   3.473  13.341  0.00  0.00    +0.000 A 
ATOM     22  C   UNL     1       6.141   3.473  12.118  0.00  0.00    +0.000 A 
ATOM     23  C   UNL     1       7.278   4.262  11.949  0.00  0.00    +0.000 A 
ATOM     24  C   UNL     1       7.735   5.052  13.001  0.00  0.00    +0.000 A 
ATOM     25  C   UNL     1       7.058   5.054  14.224  0.00  0.00    +0.000 A 
ENDBRANCH  19  20
ENDBRANCH  18  19
ENDBRANCH   7  18
TORSDOF 5
ENDMDL
MODEL 3
REMARK VINA RESULT:      -7.7      0.783      1.068
REMARK  Name = 
REMARK  5 active torsions:
REMARK  status: ('A' for Active; 'I' for Inactive)
REMARK    1  A    between atoms: C_2  and  C_3
REMARK    2  A    between atoms: C_10  and  C_11
REMARK    3  A    between atoms: C_17  and  S_18
REMARK    4  A    between atoms: S_18  and  C_19
REMARK    5  A    between atoms: C_19  and  C_20
REMARK                            x       y       z     vdW  Elec       q    Type
REMARK                         _______ _______ _______ _____ _____    ______ ____
ROOT
ATOM      1  O   UNL     1       5.092   3.715  19.221  0.00  0.00    +0.000 OA
ATOM      2  C   UNL     1       3.971   4.217  19.309  0.00  0.00    +0.000 C 
ATOM      3  N   UNL     1       3.799   5.482  18.705  0.00  0.00    +0.000 N 
ATOM      4  N   UNL     1       2.780   6.315  19.088  0.00  0.00    +0.000 NA
ATOM      5  C   UNL     1       2.995   7.408  18.344  0.00  0.00    +0.000 A 
ATOM      6  N   UNL     1       4.076   7.330  17.510  0.00  0.00    +0.000 NA
ATOM      7  C   UNL     1       4.578   6.145  17.766  0.00  0.00    +0.000 A 
ENDROOT
BRANCH   2   8
ATOM      8  C   UNL     1       2.917   3.510  20.019  0.00  0.00    +0.000 A 
ATOM      9  C   UNL     1       2.671   3.422  21.382  0.00  0.00    +0.000 A 
ATOM     10  C   UNL     1       1.588   2.527  21.554  0.00  0.00    +0.000 A 
ATOM     11  C   UNL     1       1.231   2.119  20.293  0.00  0.00    +0.000 A 
ATOM     12  O   UNL     1       2.029   2.703  19.357  0.00  0.00    +0.000 OA
ENDBRANCH   2   8
BRANCH   5  13
ATOM     13  C   UNL     1       2.145   8.634  18.418  0.00  0.00    +0.000 A 
ATOM     14  C   UNL     1       1.274   8.973  19.438  0.00  0.00    +0.000 A 
ATOM     15  C   UNL     1       0.692  10.217  19.088  0.00  0.00    +0.000 A 
ATOM     16  C   UNL     1       1.231  10.559  17.871  0.00  0.00    +0.000 A 
ATOM     17  O   UNL     1       2.122   9.619  17.466  0.00  0.00    +0.000 OA
ENDBRANCH   5  13
BRANCH   7  18
ATOM     18  S   UNL     1       5.957   5.483  16.942  0.00  0.00    +0.000 S 
BRANCH  18  19
ATOM     19  C   UNL     1       5.164   4.333  15.775  0.00  0.00    +0.000 C 
BRANCH  19  20
ATOM     20  C   UNL     1       5.896   4.286  14.451  0.00  0.00    +0.000 A 
ATOM     21  C   UNL     1       7.074   5.023  14.256  0.00  0.00    +0.000 A 
ATOM     22  C   UNL     1       7.735   5.000  13.025  0.00  0.00    +0.000 A 
ATOM     23  C   UNL     1       7.228   4.239  11.973  0.00  0.00    +0.000 A 
ATOM     24  C   UNL     1       6.061   3.499  12.154  0.00  0.00    +0.000 A 
ATOM     25  C   UNL     1       5.399   3.521  13.384  0.00  0.00    +0.000 A 
ENDBRANCH  19  20
ENDBRANCH  18  19
ENDBRANCH   7  18
TORSDOF 5
ENDMDL
MODEL 4
REMARK VINA RESULT:      -7.6      4.008      6.726
REMARK  Name = 
REMARK  5 active torsions:
REMARK  status: ('A' for Active; 'I' for Inactive)
REMARK    1  A    between atoms: C_2  and  C_3
REMARK    2  A    between atoms: C_10  and  C_11
REMARK    3  A    between atoms: C_17  and  S_18
REMARK    4  A    between atoms: S_18  and  C_19
REMARK    5  A    between atoms: C_19  and  C_20
REMARK                            x       y       z     vdW  Elec       q    Type
REMARK                         _______ _______ _______ _____ _____    ______ ____
ROOT
ATOM      1  O   UNL     1       5.238   6.092  19.428  0.00  0.00    +0.000 OA
ATOM      2  C   UNL     1       5.142   5.163  18.626  0.00  0.00    +0.000 C 
ATOM      3  N   UNL     1       5.926   5.259  17.455  0.00  0.00    +0.000 N 
ATOM      4  N   UNL     1       5.601   4.550  16.328  0.00  0.00    +0.000 NA
ATOM      5  C   UNL     1       6.526   4.954  15.447  0.00  0.00    +0.000 A 
ATOM      6  N   UNL     1       7.420   5.867  15.933  0.00  0.00    +0.000 NA
ATOM      7  C   UNL     1       7.019   6.066  17.167  0.00  0.00    +0.000 A 
ENDROOT
BRANCH   2   8
ATOM      8  C   UNL     1       4.246   4.053  18.910  0.00  0.00    +0.000 A 
ATOM      9  C   UNL     1       2.864   4.042  19.045  0.00  0.00    +0.000 A 
ATOM     10  C   UNL     1       2.493   2.730  19.425  0.00  0.00    +0.000 A 
ATOM     11  C   UNL     1       3.661   2.013  19.501  0.00  0.00    +0.000 A 
ATOM     12  O   UNL     1       4.728   2.803  19.196  0.00  0.00    +0.000 OA
ENDBRANCH   2   8
BRANCH   5  13
ATOM     13  C   UNL     1       6.582   4.473  14.033  0.00  0.00    +0.000 A 
ATOM     14  C   UNL     1       5.727   3.562  13.438  0.00  0.00    +0.000 A 
ATOM     15  C   UNL     1       6.153   3.414  12.095  0.00  0.00    +0.000 A 
ATOM     16  C   UNL     1       7.247   4.233  11.950  0.00  0.00    +0.000 A 
ATOM     17  O   UNL     1       7.503   4.890  13.110  0.00  0.00    +0.000 OA
ENDBRANCH   5  13
BRANCH   7  18
ATOM     18  S   UNL     1       7.833   7.111  18.290  0.00  0.00    +0.000 S 
BRANCH  18  19
ATOM     19  C   UNL     1       7.562   8.742  17.528  0.00  0.00    +0.000 C 
BRANCH  19  20
ATOM     20  C   UNL     1       8.396   9.816  18.193  0.00  0.00    +0.000 A 
ATOM     21  C   UNL     1       8.472  11.106  17.645  0.00  0.00    +0.000 A 
ATOM     22  C   UNL     1       9.263  12.090  18.245  0.00  0.00    +0.000 A 
ATOM     23  C   UNL     1       9.988  11.798  19.399  0.00  0.00    +0.000 A 
ATOM     24  C   UNL     1       9.919  10.523  19.955  0.00  0.00    +0.000 A 
ATOM     25  C   UNL     1       9.128   9.538  19.357  0.00  0.00    +0.000 A 
ENDBRANCH  19  20
ENDBRANCH  18  19
ENDBRANCH   7  18
TORSDOF 5
ENDMDL
MODEL 5
REMARK VINA RESULT:      -7.6      3.986      6.796
REMARK  Name = 
REMARK  5 active torsions:
REMARK  status: ('A' for Active; 'I' for Inactive)
REMARK    1  A    between atoms: C_2  and  C_3
REMARK    2  A    between atoms: C_10  and  C_11
REMARK    3  A    between atoms: C_17  and  S_18
REMARK    4  A    between atoms: S_18  and  C_19
REMARK    5  A    between atoms: C_19  and  C_20
REMARK                            x       y       z     vdW  Elec       q    Type
REMARK                         _______ _______ _______ _____ _____    ______ ____
ROOT
ATOM      1  O   UNL     1       5.223   6.051  19.378  0.00  0.00    +0.000 OA
ATOM      2  C   UNL     1       5.157   5.128  18.566  0.00  0.00    +0.000 C 
ATOM      3  N   UNL     1       5.964   5.247  17.413  0.00  0.00    +0.000 N 
ATOM      4  N   UNL     1       5.675   4.544  16.272  0.00  0.00    +0.000 NA
ATOM      5  C   UNL     1       6.612   4.970  15.415  0.00  0.00    +0.000 A 
ATOM      6  N   UNL     1       7.483   5.891  15.930  0.00  0.00    +0.000 NA
ATOM      7  C   UNL     1       7.052   6.072  17.156  0.00  0.00    +0.000 A 
ENDROOT
BRANCH   2   8
ATOM      8  C   UNL     1       4.271   4.003  18.820  0.00  0.00    +0.000 A 
ATOM      9  C   UNL     1       4.519   2.813  19.489  0.00  0.00    +0.000 A 
ATOM     10  C   UNL     1       3.358   2.014  19.364  0.00  0.00    +0.000 A 
ATOM     11  C   UNL     1       2.466   2.755  18.630  0.00  0.00    +0.000 A 
ATOM     12  O   UNL     1       3.008   3.958  18.292  0.00  0.00    +0.000 OA
ENDBRANCH   2   8
BRANCH   5  13
ATOM     13  C   UNL     1       6.705   4.504  13.999  0.00  0.00    +0.000 A 
ATOM     14  C   UNL     1       7.552   4.999  13.023  0.00  0.00    +0.000 A 
ATOM     15  C   UNL     1       7.300   4.256  11.843  0.00  0.00    +0.000 A 
ATOM     16  C   UNL     1       6.308   3.360  12.162  0.00  0.00    +0.000 A 
ATOM     17  O   UNL     1       5.955   3.489  13.467  0.00  0.00    +0.000 OA
ENDBRANCH   5  13
BRANCH   7  18
ATOM     18  S   UNL     1       7.827   7.117  18.307  0.00  0.00    +0.000 S 
BRANCH  18  19
ATOM     19  C   UNL     1       7.727   8.725  17.460  0.00  0.00    +0.000 C 
BRANCH  19  20
ATOM     20  C   UNL     1       8.466   9.805  18.220  0.00  0.00    +0.000 A 
ATOM     21  C   UNL     1       9.070   9.527  19.456  0.00  0.00    +0.000 A 
ATOM     22  C   UNL     1       9.731  10.531  20.170  0.00  0.00    +0.000 A 
ATOM     23  C   UNL     1       9.795  11.825  19.658  0.00  0.00    +0.000 A 
ATOM     24  C   UNL     1       9.203  12.115  18.432  0.00  0.00    +0.000 A 
ATOM     25  C   UNL     1       8.543  11.112  17.716  0.00  0.00    +0.000 A 
ENDBRANCH  19  20
ENDBRANCH  18  19
ENDBRANCH   7  18
TORSDOF 5
ENDMDL
MODEL 6
REMARK VINA RESULT:      -7.5      3.424      7.084
REMARK  Name = 
REMARK  5 active torsions:
REMARK  status: ('A' for Active; 'I' for Inactive)
REMARK    1  A    between atoms: C_2  and  C_3
REMARK    2  A    between atoms: C_10  and  C_11
REMARK    3  A    between atoms: C_17  and  S_18
REMARK    4  A    between atoms: S_18  and  C_19
REMARK    5  A    between atoms: C_19  and  C_20
REMARK                            x       y       z     vdW  Elec       q    Type
REMARK                         _______ _______ _______ _____ _____    ______ ____
ROOT
ATOM      1  O   UNL     1       5.213   4.012  15.913  0.00  0.00    +0.000 OA
ATOM      2  C   UNL     1       6.150   4.777  15.685  0.00  0.00    +0.000 C 
ATOM      3  N   UNL     1       6.587   5.577  16.764  0.00  0.00    +0.000 N 
ATOM      4  N   UNL     1       7.292   6.732  16.548  0.00  0.00    +0.000 NA
ATOM      5  C   UNL     1       7.457   7.215  17.786  0.00  0.00    +0.000 A 
ATOM      6  N   UNL     1       6.911   6.447  18.778  0.00  0.00    +0.000 NA
ATOM      7  C   UNL     1       6.353   5.453  18.128  0.00  0.00    +0.000 A 
ENDROOT
BRANCH   2   8
ATOM      8  C   UNL     1       6.736   4.826  14.354  0.00  0.00    +0.000 A 
ATOM      9  C   UNL     1       6.419   4.093  13.219  0.00  0.00    +0.000 A 
ATOM     10  C   UNL     1       7.355   4.447  12.219  0.00  0.00    +0.000 A 
ATOM     11  C   UNL     1       8.190   5.372  12.793  0.00  0.00    +0.000 A 
ATOM     12  O   UNL     1       7.828   5.607  14.085  0.00  0.00    +0.000 OA
ENDBRANCH   2   8
BRANCH   5  13
ATOM     13  C   UNL     1       8.162   8.498  18.082  0.00  0.00    +0.000 A 
ATOM     14  C   UNL     1       8.070   9.675  17.359  0.00  0.00    +0.000 A 
ATOM     15  C   UNL     1       8.899  10.623  18.007  0.00  0.00    +0.000 A 
ATOM     16  C   UNL     1       9.458   9.970  19.079  0.00  0.00    +0.000 A 
ATOM     17  O   UNL     1       9.005   8.692  19.144  0.00  0.00    +0.000 OA
ENDBRANCH   5  13
BRANCH   7  18
ATOM     18  S   UNL     1       5.544   4.127  18.903  0.00  0.00    +0.000 S 
BRANCH  18  19
ATOM     19  C   UNL     1       4.140   4.972  19.696  0.00  0.00    +0.000 C 
BRANCH  19  20
ATOM     20  C   UNL     1       2.878   4.139  19.637  0.00  0.00    +0.000 A 
ATOM     21  C   UNL     1       2.344   3.733  18.404  0.00  0.00    +0.000 A 
ATOM     22  C   UNL     1       1.164   2.985  18.349  0.00  0.00    +0.000 A 
ATOM     23  C   UNL     1       0.504   2.633  19.525  0.00  0.00    +0.000 A 
ATOM     24  C   UNL     1       1.024   3.027  20.755  0.00  0.00    +0.000 A 
ATOM     25  C   UNL     1       2.204   3.774  20.812  0.00  0.00    +0.000 A 
ENDBRANCH  19  20
ENDBRANCH  18  19
ENDBRANCH   7  18
TORSDOF 5
ENDMDL
MODEL 7
REMARK VINA RESULT:      -7.4      3.376      7.710
REMARK  Name = 
REMARK  5 active torsions:
REMARK  status: ('A' for Active; 'I' for Inactive)
REMARK    1  A    between atoms: C_2  and  C_3
REMARK    2  A    between atoms: C_10  and  C_11
REMARK    3  A    between atoms: C_17  and  S_18
REMARK    4  A    between atoms: S_18  and  C_19
REMARK    5  A    between atoms: C_19  and  C_20
REMARK                            x       y       z     vdW  Elec       q    Type
REMARK                         _______ _______ _______ _____ _____    ______ ____
ROOT
ATOM      1  O   UNL     1       7.497   6.010  19.639  0.00  0.00    +0.000 OA
ATOM      2  C   UNL     1       7.530   6.500  18.510  0.00  0.00    +0.000 C 
ATOM      3  N   UNL     1       7.074   5.679  17.454  0.00  0.00    +0.000 N 
ATOM      4  N   UNL     1       7.450   5.921  16.159  0.00  0.00    +0.000 NA
ATOM      5  C   UNL     1       6.875   4.913  15.490  0.00  0.00    +0.000 A 
ATOM      6  N   UNL     1       6.155   4.048  16.267  0.00  0.00    +0.000 NA
ATOM      7  C   UNL     1       6.311   4.519  17.482  0.00  0.00    +0.000 A 
ENDROOT
BRANCH   2   8
ATOM      8  C   UNL     1       8.032   7.852  18.324  0.00  0.00    +0.000 A 
ATOM      9  C   UNL     1       8.968   8.560  19.066  0.00  0.00    +0.000 A 
ATOM     10  C   UNL     1       9.022   9.869  18.529  0.00  0.00    +0.000 A 
ATOM     11  C   UNL     1       8.121   9.891  17.494  0.00  0.00    +0.000 A 
ATOM     12  O   UNL     1       7.514   8.679  17.362  0.00  0.00    +0.000 OA
ENDBRANCH   2   8
BRANCH   5  13
ATOM     13  C   UNL     1       7.012   4.719  14.016  0.00  0.00    +0.000 A 
ATOM     14  C   UNL     1       6.397   3.743  13.252  0.00  0.00    +0.000 A 
ATOM     15  C   UNL     1       6.811   3.946  11.912  0.00  0.00    +0.000 A 
ATOM     16  C   UNL     1       7.661   5.025  11.936  0.00  0.00    +0.000 A 
ATOM     17  O   UNL     1       7.776   5.510  13.198  0.00  0.00    +0.000 OA
ENDBRANCH   5  13
BRANCH   7  18
ATOM     18  S   UNL     1       5.560   3.831  18.888  0.00  0.00    +0.000 S 
BRANCH  18  19
ATOM     19  C   UNL     1       4.198   5.003  19.180  0.00  0.00    +0.000 C 
BRANCH  19  20
ATOM     20  C   UNL     1       2.871   4.291  19.338  0.00  0.00    +0.000 A 
ATOM     21  C   UNL     1       2.454   3.335  18.399  0.00  0.00    +0.000 A 
ATOM     22  C   UNL     1       1.217   2.696  18.532  0.00  0.00    +0.000 A 
ATOM     23  C   UNL     1       0.383   3.005  19.605  0.00  0.00    +0.000 A 
ATOM     24  C   UNL     1       0.785   3.950  20.545  0.00  0.00    +0.000 A 
ATOM     25  C   UNL     1       2.021   4.588  20.415  0.00  0.00    +0.000 A 
ENDBRANCH  19  20
ENDBRANCH  18  19
ENDBRANCH   7  18
TORSDOF 5
ENDMDL
MODEL 8
REMARK VINA RESULT:      -7.4      2.987      7.436
REMARK  Name = 
REMARK  5 active torsions:
REMARK  status: ('A' for Active; 'I' for Inactive)
REMARK    1  A    between atoms: C_2  and  C_3
REMARK    2  A    between atoms: C_10  and  C_11
REMARK    3  A    between atoms: C_17  and  S_18
REMARK    4  A    between atoms: S_18  and  C_19
REMARK    5  A    between atoms: C_19  and  C_20
REMARK                            x       y       z     vdW  Elec       q    Type
REMARK                         _______ _______ _______ _____ _____    ______ ____
ROOT
ATOM      1  O   UNL     1       6.555   5.269  19.523  0.00  0.00    +0.000 OA
ATOM      2  C   UNL     1       6.738   5.743  18.402  0.00  0.00    +0.000 C 
ATOM      3  N   UNL     1       6.239   4.993  17.313  0.00  0.00    +0.000 N 
ATOM      4  N   UNL     1       6.734   5.171  16.047  0.00  0.00    +0.000 NA
ATOM      5  C   UNL     1       6.063   4.255  15.336  0.00  0.00    +0.000 A 
ATOM      6  N   UNL     1       5.172   3.509  16.057  0.00  0.00    +0.000 NA
ATOM      7  C   UNL     1       5.313   3.959  17.282  0.00  0.00    +0.000 A 
ENDROOT
BRANCH   2   8
ATOM      8  C   UNL     1       7.446   7.006  18.257  0.00  0.00    +0.000 A 
ATOM      9  C   UNL     1       8.495   7.524  19.003  0.00  0.00    +0.000 A 
ATOM     10  C   UNL     1       8.747   8.829  18.518  0.00  0.00    +0.000 A 
ATOM     11  C   UNL     1       7.843   9.038  17.507  0.00  0.00    +0.000 A 
ATOM     12  O   UNL     1       7.049   7.944  17.342  0.00  0.00    +0.000 OA
ENDBRANCH   2   8
BRANCH   5  13
ATOM     13  C   UNL     1       6.271   4.036  13.873  0.00  0.00    +0.000 A 
ATOM     14  C   UNL     1       5.492   3.254  13.038  0.00  0.00    +0.000 A 
ATOM     15  C   UNL     1       6.057   3.346  11.742  0.00  0.00    +0.000 A 
ATOM     16  C   UNL     1       7.152   4.168  11.861  0.00  0.00    +0.000 A 
ATOM     17  O   UNL     1       7.280   4.604  13.140  0.00  0.00    +0.000 OA
ENDBRANCH   5  13
BRANCH   7  18
ATOM     18  S   UNL     1       4.374   3.396  18.630  0.00  0.00    +0.000 S 
BRANCH  18  19
ATOM     19  C   UNL     1       2.712   3.991  18.187  0.00  0.00    +0.000 C 
BRANCH  19  20
ATOM     20  C   UNL     1       2.412   5.335  18.815  0.00  0.00    +0.000 A 
ATOM     21  C   UNL     1       2.613   6.524  18.095  0.00  0.00    +0.000 A 
ATOM     22  C   UNL     1       2.360   7.766  18.684  0.00  0.00    +0.000 A 
ATOM     23  C   UNL     1       1.903   7.837  19.999  0.00  0.00    +0.000 A 
ATOM     24  C   UNL     1       1.697   6.665  20.724  0.00  0.00    +0.000 A 
ATOM     25  C   UNL     1       1.949   5.423  20.136  0.00  0.00    +0.000 A 
ENDBRANCH  19  20
ENDBRANCH  18  19
ENDBRANCH   7  18
TORSDOF 5
ENDMDL
MODEL 9
REMARK VINA RESULT:      -7.3      3.475      7.695
REMARK  Name = 
REMARK  5 active torsions:
REMARK  status: ('A' for Active; 'I' for Inactive)
REMARK    1  A    between atoms: C_2  and  C_3
REMARK    2  A    between atoms: C_10  and  C_11
REMARK    3  A    between atoms: C_17  and  S_18
REMARK    4  A    between atoms: S_18  and  C_19
REMARK    5  A    between atoms: C_19  and  C_20
REMARK                            x       y       z     vdW  Elec       q    Type
REMARK                         _______ _______ _______ _____ _____    ______ ____
ROOT
ATOM      1  O   UNL     1       7.605   6.097  19.633  0.00  0.00    +0.000 OA
ATOM      2  C   UNL     1       7.594   6.576  18.498  0.00  0.00    +0.000 C 
ATOM      3  N   UNL     1       7.123   5.735  17.465  0.00  0.00    +0.000 N 
ATOM      4  N   UNL     1       7.453   5.971  16.156  0.00  0.00    +0.000 NA
ATOM      5  C   UNL     1       6.879   4.945  15.516  0.00  0.00    +0.000 A 
ATOM      6  N   UNL     1       6.202   4.073  16.323  0.00  0.00    +0.000 NA
ATOM      7  C   UNL     1       6.385   4.560  17.527  0.00  0.00    +0.000 A 
ENDROOT
BRANCH   2   8
ATOM      8  C   UNL     1       8.062   7.936  18.283  0.00  0.00    +0.000 A 
ATOM      9  C   UNL     1       8.955   8.694  19.028  0.00  0.00    +0.000 A 
ATOM     10  C   UNL     1       8.986   9.987  18.452  0.00  0.00    +0.000 A 
ATOM     11  C   UNL     1       8.115   9.950  17.393  0.00  0.00    +0.000 A 
ATOM     12  O   UNL     1       7.547   8.717  17.282  0.00  0.00    +0.000 OA
ENDBRANCH   2   8
BRANCH   5  13
ATOM     13  C   UNL     1       6.975   4.738  14.039  0.00  0.00    +0.000 A 
ATOM     14  C   UNL     1       6.304   3.785  13.295  0.00  0.00    +0.000 A 
ATOM     15  C   UNL     1       6.695   3.964  11.945  0.00  0.00    +0.000 A 
ATOM     16  C   UNL     1       7.590   5.008  11.944  0.00  0.00    +0.000 A 
ATOM     17  O   UNL     1       7.752   5.493  13.201  0.00  0.00    +0.000 OA
ENDBRANCH   5  13
BRANCH   7  18
ATOM     18  S   UNL     1       5.692   3.871  18.963  0.00  0.00    +0.000 S 
BRANCH  18  19
ATOM     19  C   UNL     1       4.284   2.945  18.276  0.00  0.00    +0.000 C 
BRANCH  19  20
ATOM     20  C   UNL     1       2.994   3.269  18.999  0.00  0.00    +0.000 A 
ATOM     21  C   UNL     1       2.942   4.309  19.940  0.00  0.00    +0.000 A 
ATOM     22  C   UNL     1       1.757   4.592  20.626  0.00  0.00    +0.000 A 
ATOM     23  C   UNL     1       0.610   3.839  20.380  0.00  0.00    +0.000 A 
ATOM     24  C   UNL     1       0.647   2.806  19.447  0.00  0.00    +0.000 A 
ATOM     25  C   UNL     1       1.830   2.523  18.759  0.00  0.00    +0.000 A 
ENDBRANCH  19  20
ENDBRANCH  18  19
ENDBRANCH   7  18
TORSDOF 5
ENDMDL
