MODEL 1
REMARK VINA RESULT:      -7.2      0.000      0.000
REMARK  Name = 
REMARK  4 active torsions:
REMARK  status: ('A' for Active; 'I' for Inactive)
REMARK    1  A    between atoms: C_1  and  C_2
REMARK    2  A    between atoms: N_9  and  C_10
REMARK    3  A    between atoms: C_13  and  N_14
REMARK    4  A    between atoms: C_15  and  C_17
REMARK                            x       y       z     vdW  Elec       q    Type
REMARK                         _______ _______ _______ _____ _____    ______ ____
ROOT
ATOM      1  C   UNL     1       4.070   6.784  16.940  0.00  0.00    +0.000 C 
ATOM      2  C   UNL     1       3.318   6.771  18.214  0.00  0.00    +0.000 A 
ATOM      3  C   UNL     1       2.425   7.665  18.751  0.00  0.00    +0.000 A 
ATOM      4  C   UNL     1       2.095   7.159  20.034  0.00  0.00    +0.000 A 
ATOM      5  N   UNL     1       1.325   7.780  20.950  0.00  0.00    +0.000 N 
ATOM      6  C   UNL     1       0.607   8.969  20.850  0.00  0.00    +0.000 A 
ATOM      7  N   UNL     1       0.420   9.653  21.975  0.00  0.00    +0.000 NA
ATOM      8  C   UNL     1      -0.200  10.814  21.823  0.00  0.00    +0.000 A 
ATOM      9  N   UNL     1      -0.423  11.596  22.969  0.00  0.00    +0.000 N 
ATOM     10  N   UNL     1      -0.639  11.276  20.658  0.00  0.00    +0.000 NA
ATOM     11  C   UNL     1      -0.499  10.507  19.598  0.00  0.00    +0.000 A 
ATOM     12  N   UNL     1      -0.987  10.948  18.384  0.00  0.00    +0.000 N 
ATOM     13  C   UNL     1      -1.827  12.154  18.346  0.00  0.00    +0.000 C 
ATOM     14  C   UNL     1      -3.313  11.789  18.217  0.00  0.00    +0.000 C 
ATOM     15  O   UNL     1      -3.543  10.907  17.104  0.00  0.00    +0.000 OA
ATOM     16  C   UNL     1      -2.802   9.689  17.278  0.00  0.00    +0.000 C 
ATOM     17  C   UNL     1      -1.290   9.955  17.346  0.00  0.00    +0.000 C 
ATOM     18  N   UNL     1       0.133   9.350  19.664  0.00  0.00    +0.000 NA
ATOM     19  N   UNL     1       2.729   6.008  20.267  0.00  0.00    +0.000 NA
ATOM     20  N   UNL     1       3.437   5.780  19.145  0.00  0.00    +0.000 N 
ATOM     21  H   UNL     1       1.418   7.487  21.909  0.00  0.00    +0.000 HD
ATOM     22  H   UNL     1      -0.153  11.066  23.787  0.00  0.00    +0.000 HD
ATOM     23  H   UNL     1       4.005   4.940  19.101  0.00  0.00    +0.000 HD
ENDROOT
BRANCH   9  24
ATOM     24  C   UNL     1      -1.550  12.418  23.169  0.00  0.00    +0.000 A 
ATOM     25  C   UNL     1      -2.811  11.877  23.439  0.00  0.00    +0.000 A 
ATOM     26  C   UNL     1      -3.929  12.688  23.620  0.00  0.00    +0.000 A 
ATOM     27  C   UNL     1      -3.818  14.073  23.562  0.00  0.00    +0.000 A 
ATOM     28  C   UNL     1      -2.559  14.632  23.308  0.00  0.00    +0.000 A 
ATOM     29  C   UNL     1      -1.433  13.809  23.124  0.00  0.00    +0.000 A 
BRANCH  27  30
ATOM     30  N   UNL     1      -4.916  14.935  23.779  0.00  0.00    +0.000 N 
ATOM     31  C   UNL     1      -5.865  15.299  22.840  0.00  0.00    +0.000 C 
ATOM     32  O   UNL     1      -5.881  15.012  21.651  0.00  0.00    +0.000 OA
ATOM     33  H   UNL     1      -5.037  15.281  24.720  0.00  0.00    +0.000 HD
BRANCH  31  34
ATOM     34  C   UNL     1      -6.994  16.094  23.405  0.00  0.00    +0.000 C 
ATOM     35  C   UNL     1      -6.979  17.606  23.316  0.00  0.00    +0.000 C 
ATOM     36  C   UNL     1      -7.916  16.819  22.450  0.00  0.00    +0.000 C 
ENDBRANCH  31  34
ENDBRANCH  27  30
ENDBRANCH   9  24
TORSDOF 3
ENDMDL
MODEL 2
REMARK VINA RESULT:      -7.0      2.582      9.817
REMARK  Name = 
REMARK  4 active torsions:
REMARK  status: ('A' for Active; 'I' for Inactive)
REMARK    1  A    between atoms: C_1  and  C_2
REMARK    2  A    between atoms: N_9  and  C_10
REMARK    3  A    between atoms: C_13  and  N_14
REMARK    4  A    between atoms: C_15  and  C_17
REMARK                            x       y       z     vdW  Elec       q    Type
REMARK                         _______ _______ _______ _____ _____    ______ ____
ROOT
ATOM      1  C   UNL     1      -6.806  15.565  21.253  0.00  0.00    +0.000 C 
ATOM      2  C   UNL     1      -5.333  15.534  21.126  0.00  0.00    +0.000 A 
ATOM      3  C   UNL     1      -4.477  14.541  20.713  0.00  0.00    +0.000 A 
ATOM      4  C   UNL     1      -3.170  15.064  20.881  0.00  0.00    +0.000 A 
ATOM      5  N   UNL     1      -2.021  14.384  20.693  0.00  0.00    +0.000 N 
ATOM      6  C   UNL     1      -1.820  13.091  20.215  0.00  0.00    +0.000 A 
ATOM      7  N   UNL     1      -0.736  12.454  20.645  0.00  0.00    +0.000 NA
ATOM      8  C   UNL     1      -0.624  11.201  20.228  0.00  0.00    +0.000 A 
ATOM      9  N   UNL     1       0.495  10.464  20.651  0.00  0.00    +0.000 N 
ATOM     10  N   UNL     1      -1.493  10.607  19.420  0.00  0.00    +0.000 NA
ATOM     11  C   UNL     1      -2.499  11.323  18.961  0.00  0.00    +0.000 A 
ATOM     12  N   UNL     1      -3.391  10.738  18.086  0.00  0.00    +0.000 N 
ATOM     13  C   UNL     1      -3.083   9.412  17.529  0.00  0.00    +0.000 C 
ATOM     14  C   UNL     1      -2.554   9.526  16.091  0.00  0.00    +0.000 C 
ATOM     15  O   UNL     1      -3.447  10.292  15.262  0.00  0.00    +0.000 OA
ATOM     16  C   UNL     1      -3.591  11.621  15.787  0.00  0.00    +0.000 C 
ATOM     17  C   UNL     1      -4.183  11.605  17.206  0.00  0.00    +0.000 C 
ATOM     18  N   UNL     1      -2.693  12.569  19.354  0.00  0.00    +0.000 NA
ATOM     19  N   UNL     1      -3.214  16.314  21.346  0.00  0.00    +0.000 NA
ATOM     20  N   UNL     1      -4.528  16.585  21.459  0.00  0.00    +0.000 N 
ATOM     21  H   UNL     1      -1.191  14.744  21.135  0.00  0.00    +0.000 HD
ATOM     22  H   UNL     1       1.125  11.079  21.149  0.00  0.00    +0.000 HD
ATOM     23  H   UNL     1      -4.799  17.501  21.801  0.00  0.00    +0.000 HD
ENDROOT
BRANCH   9  24
ATOM     24  C   UNL     1       1.148   9.486  19.875  0.00  0.00    +0.000 A 
ATOM     25  C   UNL     1       1.481   9.716  18.537  0.00  0.00    +0.000 A 
ATOM     26  C   UNL     1       2.111   8.743  17.765  0.00  0.00    +0.000 A 
ATOM     27  C   UNL     1       2.453   7.512  18.313  0.00  0.00    +0.000 A 
ATOM     28  C   UNL     1       2.140   7.270  19.658  0.00  0.00    +0.000 A 
ATOM     29  C   UNL     1       1.502   8.255  20.434  0.00  0.00    +0.000 A 
BRANCH  27  30
ATOM     30  N   UNL     1       3.128   6.512  17.580  0.00  0.00    +0.000 N 
ATOM     31  C   UNL     1       4.472   6.509  17.251  0.00  0.00    +0.000 C 
ATOM     32  O   UNL     1       5.290   7.394  17.459  0.00  0.00    +0.000 OA
ATOM     33  H   UNL     1       2.583   5.706  17.310  0.00  0.00    +0.000 HD
BRANCH  31  34
ATOM     34  C   UNL     1       4.931   5.242  16.609  0.00  0.00    +0.000 C 
ATOM     35  C   UNL     1       5.617   4.176  17.436  0.00  0.00    +0.000 C 
ATOM     36  C   UNL     1       4.214   3.956  16.956  0.00  0.00    +0.000 C 
ENDBRANCH  31  34
ENDBRANCH  27  30
ENDBRANCH   9  24
TORSDOF 3
ENDMDL
MODEL 3
REMARK VINA RESULT:      -6.9      2.672      9.886
REMARK  Name = 
REMARK  4 active torsions:
REMARK  status: ('A' for Active; 'I' for Inactive)
REMARK    1  A    between atoms: C_1  and  C_2
REMARK    2  A    between atoms: N_9  and  C_10
REMARK    3  A    between atoms: C_13  and  N_14
REMARK    4  A    between atoms: C_15  and  C_17
REMARK                            x       y       z     vdW  Elec       q    Type
REMARK                         _______ _______ _______ _____ _____    ______ ____
ROOT
ATOM      1  C   UNL     1      -6.311  15.800  21.377  0.00  0.00    +0.000 C 
ATOM      2  C   UNL     1      -4.846  15.708  21.196  0.00  0.00    +0.000 A 
ATOM      3  C   UNL     1      -4.045  14.672  20.778  0.00  0.00    +0.000 A 
ATOM      4  C   UNL     1      -2.713  15.146  20.884  0.00  0.00    +0.000 A 
ATOM      5  N   UNL     1      -1.599  14.417  20.672  0.00  0.00    +0.000 N 
ATOM      6  C   UNL     1      -1.467  13.106  20.220  0.00  0.00    +0.000 A 
ATOM      7  N   UNL     1      -0.392  12.437  20.626  0.00  0.00    +0.000 NA
ATOM      8  C   UNL     1      -0.345  11.171  20.237  0.00  0.00    +0.000 A 
ATOM      9  N   UNL     1       0.760  10.401  20.638  0.00  0.00    +0.000 N 
ATOM     10  N   UNL     1      -1.267  10.592  19.477  0.00  0.00    +0.000 NA
ATOM     11  C   UNL     1      -2.260  11.337  19.037  0.00  0.00    +0.000 A 
ATOM     12  N   UNL     1      -3.207  10.767  18.211  0.00  0.00    +0.000 N 
ATOM     13  C   UNL     1      -2.972   9.417  17.676  0.00  0.00    +0.000 C 
ATOM     14  C   UNL     1      -2.493   9.476  16.218  0.00  0.00    +0.000 C 
ATOM     15  O   UNL     1      -3.386  10.255  15.403  0.00  0.00    +0.000 OA
ATOM     16  C   UNL     1      -3.458  11.602  15.899  0.00  0.00    +0.000 C 
ATOM     17  C   UNL     1      -3.997  11.643  17.338  0.00  0.00    +0.000 C 
ATOM     18  N   UNL     1      -2.391  12.598  19.405  0.00  0.00    +0.000 NA
ATOM     19  N   UNL     1      -2.692  16.408  21.320  0.00  0.00    +0.000 NA
ATOM     20  N   UNL     1      -3.989  16.733  21.473  0.00  0.00    +0.000 N 
ATOM     21  H   UNL     1      -0.740  14.754  21.074  0.00  0.00    +0.000 HD
ATOM     22  H   UNL     1       1.431  11.002  21.097  0.00  0.00    +0.000 HD
ATOM     23  H   UNL     1      -4.212  17.667  21.802  0.00  0.00    +0.000 HD
ENDROOT
BRANCH   9  24
ATOM     24  C   UNL     1       1.345   9.379  19.863  0.00  0.00    +0.000 A 
ATOM     25  C   UNL     1       1.597   8.111  20.396  0.00  0.00    +0.000 A 
ATOM     26  C   UNL     1       2.191   7.106  19.635  0.00  0.00    +0.000 A 
ATOM     27  C   UNL     1       2.530   7.328  18.305  0.00  0.00    +0.000 A 
ATOM     28  C   UNL     1       2.269   8.589  17.752  0.00  0.00    +0.000 A 
ATOM     29  C   UNL     1       1.671   9.602  18.523  0.00  0.00    +0.000 A 
BRANCH  27  30
ATOM     30  N   UNL     1       3.096   6.327  17.486  0.00  0.00    +0.000 N 
ATOM     31  C   UNL     1       4.334   5.735  17.660  0.00  0.00    +0.000 C 
ATOM     32  O   UNL     1       5.184   6.021  18.491  0.00  0.00    +0.000 OA
ATOM     33  H   UNL     1       2.521   5.987  16.728  0.00  0.00    +0.000 HD
BRANCH  31  34
ATOM     34  C   UNL     1       4.591   4.597  16.729  0.00  0.00    +0.000 C 
ATOM     35  C   UNL     1       5.284   4.839  15.404  0.00  0.00    +0.000 C 
ATOM     36  C   UNL     1       6.020   4.149  16.513  0.00  0.00    +0.000 C 
ENDBRANCH  31  34
ENDBRANCH  27  30
ENDBRANCH   9  24
TORSDOF 3
ENDMDL
MODEL 4
REMARK VINA RESULT:      -6.8      3.261     10.107
REMARK  Name = 
REMARK  4 active torsions:
REMARK  status: ('A' for Active; 'I' for Inactive)
REMARK    1  A    between atoms: C_1  and  C_2
REMARK    2  A    between atoms: N_9  and  C_10
REMARK    3  A    between atoms: C_13  and  N_14
REMARK    4  A    between atoms: C_15  and  C_17
REMARK                            x       y       z     vdW  Elec       q    Type
REMARK                         _______ _______ _______ _____ _____    ______ ____
ROOT
ATOM      1  C   UNL     1      -3.497  17.954  23.389  0.00  0.00    +0.000 C 
ATOM      2  C   UNL     1      -3.035  16.603  23.772  0.00  0.00    +0.000 A 
ATOM      3  C   UNL     1      -2.312  15.660  23.082  0.00  0.00    +0.000 A 
ATOM      4  C   UNL     1      -2.245  14.527  23.931  0.00  0.00    +0.000 A 
ATOM      5  N   UNL     1      -1.713  13.331  23.607  0.00  0.00    +0.000 N 
ATOM      6  C   UNL     1      -1.036  12.942  22.453  0.00  0.00    +0.000 A 
ATOM      7  N   UNL     1      -1.120  11.660  22.111  0.00  0.00    +0.000 NA
ATOM      8  C   UNL     1      -0.527  11.349  20.968  0.00  0.00    +0.000 A 
ATOM      9  N   UNL     1      -0.585  10.012  20.540  0.00  0.00    +0.000 N 
ATOM     10  N   UNL     1       0.132  12.218  20.212  0.00  0.00    +0.000 NA
ATOM     11  C   UNL     1       0.252  13.453  20.654  0.00  0.00    +0.000 A 
ATOM     12  N   UNL     1       0.970  14.364  19.905  0.00  0.00    +0.000 N 
ATOM     13  C   UNL     1       1.752  13.886  18.755  0.00  0.00    +0.000 C 
ATOM     14  C   UNL     1       3.245  13.786  19.105  0.00  0.00    +0.000 C 
ATOM     15  O   UNL     1       3.741  15.022  19.648  0.00  0.00    +0.000 OA
ATOM     16  C   UNL     1       3.027  15.355  20.850  0.00  0.00    +0.000 C 
ATOM     17  C   UNL     1       1.526  15.544  20.578  0.00  0.00    +0.000 C 
ATOM     18  N   UNL     1      -0.335  13.846  21.770  0.00  0.00    +0.000 NA
ATOM     19  N   UNL     1      -2.869  14.762  25.087  0.00  0.00    +0.000 NA
ATOM     20  N   UNL     1      -3.312  16.028  24.979  0.00  0.00    +0.000 N 
ATOM     21  H   UNL     1      -1.998  12.533  24.151  0.00  0.00    +0.000 HD
ATOM     22  H   UNL     1      -1.003   9.450  21.270  0.00  0.00    +0.000 HD
ATOM     23  H   UNL     1      -3.825  16.424  25.761  0.00  0.00    +0.000 HD
ENDROOT
BRANCH   9  24
ATOM     24  C   UNL     1       0.441   9.355  19.832  0.00  0.00    +0.000 A 
ATOM     25  C   UNL     1       0.709   9.649  18.492  0.00  0.00    +0.000 A 
ATOM     26  C   UNL     1       1.713   8.988  17.787  0.00  0.00    +0.000 A 
ATOM     27  C   UNL     1       2.501   8.025  18.408  0.00  0.00    +0.000 A 
ATOM     28  C   UNL     1       2.255   7.729  19.755  0.00  0.00    +0.000 A 
ATOM     29  C   UNL     1       1.240   8.398  20.463  0.00  0.00    +0.000 A 
BRANCH  27  30
ATOM     30  N   UNL     1       3.554   7.358  17.744  0.00  0.00    +0.000 N 
ATOM     31  C   UNL     1       3.612   6.006  17.458  0.00  0.00    +0.000 C 
ATOM     32  O   UNL     1       2.814   5.142  17.794  0.00  0.00    +0.000 OA
ATOM     33  H   UNL     1       4.314   7.936  17.413  0.00  0.00    +0.000 HD
BRANCH  31  34
ATOM     34  C   UNL     1       4.776   5.621  16.608  0.00  0.00    +0.000 C 
ATOM     35  C   UNL     1       5.925   4.834  17.202  0.00  0.00    +0.000 C 
ATOM     36  C   UNL     1       4.968   4.160  16.264  0.00  0.00    +0.000 C 
ENDBRANCH  31  34
ENDBRANCH  27  30
ENDBRANCH   9  24
TORSDOF 3
ENDMDL
MODEL 5
REMARK VINA RESULT:      -6.8      2.638      9.687
REMARK  Name = 
REMARK  4 active torsions:
REMARK  status: ('A' for Active; 'I' for Inactive)
REMARK    1  A    between atoms: C_1  and  C_2
REMARK    2  A    between atoms: N_9  and  C_10
REMARK    3  A    between atoms: C_13  and  N_14
REMARK    4  A    between atoms: C_15  and  C_17
REMARK                            x       y       z     vdW  Elec       q    Type
REMARK                         _______ _______ _______ _____ _____    ______ ____
ROOT
ATOM      1  C   UNL     1      -7.074  15.842  20.871  0.00  0.00    +0.000 C 
ATOM      2  C   UNL     1      -5.597  15.806  20.804  0.00  0.00    +0.000 A 
ATOM      3  C   UNL     1      -4.726  14.790  20.491  0.00  0.00    +0.000 A 
ATOM      4  C   UNL     1      -3.426  15.324  20.676  0.00  0.00    +0.000 A 
ATOM      5  N   UNL     1      -2.271  14.636  20.578  0.00  0.00    +0.000 N 
ATOM      6  C   UNL     1      -2.053  13.315  20.193  0.00  0.00    +0.000 A 
ATOM      7  N   UNL     1      -0.987  12.709  20.705  0.00  0.00    +0.000 NA
ATOM      8  C   UNL     1      -0.860  11.432  20.375  0.00  0.00    +0.000 A 
ATOM      9  N   UNL     1       0.241  10.726  20.890  0.00  0.00    +0.000 N 
ATOM     10  N   UNL     1      -1.697  10.785  19.574  0.00  0.00    +0.000 NA
ATOM     11  C   UNL     1      -2.683  11.468  19.030  0.00  0.00    +0.000 A 
ATOM     12  N   UNL     1      -3.541  10.826  18.161  0.00  0.00    +0.000 N 
ATOM     13  C   UNL     1      -3.212   9.468  17.703  0.00  0.00    +0.000 C 
ATOM     14  C   UNL     1      -2.627   9.489  16.283  0.00  0.00    +0.000 C 
ATOM     15  O   UNL     1      -3.485  10.198  15.372  0.00  0.00    +0.000 OA
ATOM     16  C   UNL     1      -3.649  11.558  15.803  0.00  0.00    +0.000 C 
ATOM     17  C   UNL     1      -4.296  11.633  17.195  0.00  0.00    +0.000 C 
ATOM     18  N   UNL     1      -2.892  12.737  19.334  0.00  0.00    +0.000 NA
ATOM     19  N   UNL     1      -3.488  16.602  21.057  0.00  0.00    +0.000 NA
ATOM     20  N   UNL     1      -4.805  16.877  21.101  0.00  0.00    +0.000 N 
ATOM     21  H   UNL     1      -1.459  15.025  21.028  0.00  0.00    +0.000 HD
ATOM     22  H   UNL     1       0.852  11.373  21.371  0.00  0.00    +0.000 HD
ATOM     23  H   UNL     1      -5.089  17.813  21.372  0.00  0.00    +0.000 HD
ENDROOT
BRANCH   9  24
ATOM     24  C   UNL     1       0.924   9.701  20.205  0.00  0.00    +0.000 A 
ATOM     25  C   UNL     1       1.272   8.505  20.838  0.00  0.00    +0.000 A 
ATOM     26  C   UNL     1       1.961   7.498  20.166  0.00  0.00    +0.000 A 
ATOM     27  C   UNL     1       2.304   7.644  18.827  0.00  0.00    +0.000 A 
ATOM     28  C   UNL     1       1.949   8.831  18.172  0.00  0.00    +0.000 A 
ATOM     29  C   UNL     1       1.254   9.846  18.855  0.00  0.00    +0.000 A 
BRANCH  27  30
ATOM     30  N   UNL     1       2.967   6.634  18.095  0.00  0.00    +0.000 N 
ATOM     31  C   UNL     1       2.682   5.280  18.131  0.00  0.00    +0.000 C 
ATOM     32  O   UNL     1       1.875   4.711  18.852  0.00  0.00    +0.000 OA
ATOM     33  H   UNL     1       3.687   6.939  17.456  0.00  0.00    +0.000 HD
BRANCH  31  34
ATOM     34  C   UNL     1       3.444   4.479  17.130  0.00  0.00    +0.000 C 
ATOM     35  C   UNL     1       4.872   4.062  17.416  0.00  0.00    +0.000 C 
ATOM     36  C   UNL     1       3.776   3.040  17.456  0.00  0.00    +0.000 C 
ENDBRANCH  31  34
ENDBRANCH  27  30
ENDBRANCH   9  24
TORSDOF 3
ENDMDL
MODEL 6
REMARK VINA RESULT:      -6.7      0.819      1.185
REMARK  Name = 
REMARK  4 active torsions:
REMARK  status: ('A' for Active; 'I' for Inactive)
REMARK    1  A    between atoms: C_1  and  C_2
REMARK    2  A    between atoms: N_9  and  C_10
REMARK    3  A    between atoms: C_13  and  N_14
REMARK    4  A    between atoms: C_15  and  C_17
REMARK                            x       y       z     vdW  Elec       q    Type
REMARK                         _______ _______ _______ _____ _____    ______ ____
ROOT
ATOM      1  C   UNL     1       3.899   6.770  17.331  0.00  0.00    +0.000 C 
ATOM      2  C   UNL     1       3.118   6.825  18.586  0.00  0.00    +0.000 A 
ATOM      3  C   UNL     1       2.204   7.741  19.049  0.00  0.00    +0.000 A 
ATOM      4  C   UNL     1       1.849   7.308  20.351  0.00  0.00    +0.000 A 
ATOM      5  N   UNL     1       1.053   7.974  21.211  0.00  0.00    +0.000 N 
ATOM      6  C   UNL     1       0.326   9.148  21.024  0.00  0.00    +0.000 A 
ATOM      7  N   UNL     1       0.107   9.895  22.101  0.00  0.00    +0.000 NA
ATOM      8  C   UNL     1      -0.519  11.039  21.866  0.00  0.00    +0.000 A 
ATOM      9  N   UNL     1      -0.776  11.885  22.959  0.00  0.00    +0.000 N 
ATOM     10  N   UNL     1      -0.935  11.426  20.667  0.00  0.00    +0.000 NA
ATOM     11  C   UNL     1      -0.764  10.598  19.657  0.00  0.00    +0.000 A 
ATOM     12  N   UNL     1      -1.226  10.961  18.409  0.00  0.00    +0.000 N 
ATOM     13  C   UNL     1      -2.076  12.154  18.279  0.00  0.00    +0.000 C 
ATOM     14  C   UNL     1      -3.556  11.766  18.139  0.00  0.00    +0.000 C 
ATOM     15  O   UNL     1      -3.752  10.818  17.075  0.00  0.00    +0.000 OA
ATOM     16  C   UNL     1      -3.004   9.619  17.337  0.00  0.00    +0.000 C 
ATOM     17  C   UNL     1      -1.496   9.905  17.425  0.00  0.00    +0.000 C 
ATOM     18  N   UNL     1      -0.123   9.452  19.807  0.00  0.00    +0.000 NA
ATOM     19  N   UNL     1       2.487   6.179  20.667  0.00  0.00    +0.000 NA
ATOM     20  N   UNL     1       3.224   5.892  19.577  0.00  0.00    +0.000 N 
ATOM     21  H   UNL     1       1.126   7.740  22.188  0.00  0.00    +0.000 HD
ATOM     22  H   UNL     1      -0.521  11.406  23.813  0.00  0.00    +0.000 HD
ATOM     23  H   UNL     1       3.800   5.057  19.596  0.00  0.00    +0.000 HD
ENDROOT
BRANCH   9  24
ATOM     24  C   UNL     1      -1.915  12.705  23.084  0.00  0.00    +0.000 A 
ATOM     25  C   UNL     1      -1.847  14.087  22.885  0.00  0.00    +0.000 A 
ATOM     26  C   UNL     1      -2.969  14.900  23.025  0.00  0.00    +0.000 A 
ATOM     27  C   UNL     1      -4.207  14.354  23.345  0.00  0.00    +0.000 A 
ATOM     28  C   UNL     1      -4.296  12.968  23.533  0.00  0.00    +0.000 A 
ATOM     29  C   UNL     1      -3.160  12.151  23.392  0.00  0.00    +0.000 A 
BRANCH  27  30
ATOM     30  N   UNL     1      -5.378  15.134  23.457  0.00  0.00    +0.000 N 
ATOM     31  C   UNL     1      -5.434  16.482  23.767  0.00  0.00    +0.000 C 
ATOM     32  O   UNL     1      -4.503  17.212  24.075  0.00  0.00    +0.000 OA
ATOM     33  H   UNL     1      -6.251  14.669  23.250  0.00  0.00    +0.000 HD
BRANCH  31  34
ATOM     34  C   UNL     1      -6.802  17.067  23.656  0.00  0.00    +0.000 C 
ATOM     35  C   UNL     1      -7.274  17.656  22.343  0.00  0.00    +0.000 C 
ATOM     36  C   UNL     1      -7.831  16.346  22.814  0.00  0.00    +0.000 C 
ENDBRANCH  31  34
ENDBRANCH  27  30
ENDBRANCH   9  24
TORSDOF 3
ENDMDL
MODEL 7
REMARK VINA RESULT:      -6.6      3.205      9.959
REMARK  Name = 
REMARK  4 active torsions:
REMARK  status: ('A' for Active; 'I' for Inactive)
REMARK    1  A    between atoms: C_1  and  C_2
REMARK    2  A    between atoms: N_9  and  C_10
REMARK    3  A    between atoms: C_13  and  N_14
REMARK    4  A    between atoms: C_15  and  C_17
REMARK                            x       y       z     vdW  Elec       q    Type
REMARK                         _______ _______ _______ _____ _____    ______ ____
ROOT
ATOM      1  C   UNL     1      -3.581  17.459  22.479  0.00  0.00    +0.000 C 
ATOM      2  C   UNL     1      -2.938  16.262  23.064  0.00  0.00    +0.000 A 
ATOM      3  C   UNL     1      -2.197  15.257  22.490  0.00  0.00    +0.000 A 
ATOM      4  C   UNL     1      -1.918  14.339  23.534  0.00  0.00    +0.000 A 
ATOM      5  N   UNL     1      -1.299  13.150  23.391  0.00  0.00    +0.000 N 
ATOM      6  C   UNL     1      -0.712  12.582  22.262  0.00  0.00    +0.000 A 
ATOM      7  N   UNL     1      -0.695  11.255  22.199  0.00  0.00    +0.000 NA
ATOM      8  C   UNL     1      -0.199  10.758  21.075  0.00  0.00    +0.000 A 
ATOM      9  N   UNL     1      -0.158   9.360  20.936  0.00  0.00    +0.000 N 
ATOM     10  N   UNL     1       0.278  11.498  20.082  0.00  0.00    +0.000 NA
ATOM     11  C   UNL     1       0.312  12.804  20.248  0.00  0.00    +0.000 A 
ATOM     12  N   UNL     1       0.844  13.591  19.246  0.00  0.00    +0.000 N 
ATOM     13  C   UNL     1       1.544  12.947  18.125  0.00  0.00    +0.000 C 
ATOM     14  C   UNL     1       3.067  13.047  18.294  0.00  0.00    +0.000 C 
ATOM     15  O   UNL     1       3.484  14.406  18.511  0.00  0.00    +0.000 OA
ATOM     16  C   UNL     1       2.872  14.927  19.702  0.00  0.00    +0.000 C 
ATOM     17  C   UNL     1       1.339  14.929  19.592  0.00  0.00    +0.000 C 
ATOM     18  N   UNL     1      -0.190  13.375  21.328  0.00  0.00    +0.000 NA
ATOM     19  N   UNL     1      -2.435  14.763  24.690  0.00  0.00    +0.000 NA
ATOM     20  N   UNL     1      -3.020  15.936  24.387  0.00  0.00    +0.000 N 
ATOM     21  H   UNL     1      -1.436  12.465  24.117  0.00  0.00    +0.000 HD
ATOM     22  H   UNL     1      -0.433   8.934  21.811  0.00  0.00    +0.000 HD
ATOM     23  H   UNL     1      -3.485  16.445  25.132  0.00  0.00    +0.000 HD
ENDROOT
BRANCH   9  24
ATOM     24  C   UNL     1       0.850   8.655  20.249  0.00  0.00    +0.000 A 
ATOM     25  C   UNL     1       1.411   7.486  20.772  0.00  0.00    +0.000 A 
ATOM     26  C   UNL     1       2.419   6.798  20.101  0.00  0.00    +0.000 A 
ATOM     27  C   UNL     1       2.885   7.243  18.869  0.00  0.00    +0.000 A 
ATOM     28  C   UNL     1       2.323   8.405  18.324  0.00  0.00    +0.000 A 
ATOM     29  C   UNL     1       1.306   9.098  19.005  0.00  0.00    +0.000 A 
BRANCH  27  30
ATOM     30  N   UNL     1       3.877   6.556  18.135  0.00  0.00    +0.000 N 
ATOM     31  C   UNL     1       3.709   5.360  17.459  0.00  0.00    +0.000 C 
ATOM     32  O   UNL     1       2.713   4.651  17.441  0.00  0.00    +0.000 OA
ATOM     33  H   UNL     1       4.779   7.005  18.067  0.00  0.00    +0.000 HD
BRANCH  31  34
ATOM     34  C   UNL     1       4.893   4.961  16.644  0.00  0.00    +0.000 C 
ATOM     35  C   UNL     1       5.266   5.750  15.406  0.00  0.00    +0.000 C 
ATOM     36  C   UNL     1       6.107   5.863  16.642  0.00  0.00    +0.000 C 
ENDBRANCH  31  34
ENDBRANCH  27  30
ENDBRANCH   9  24
TORSDOF 3
ENDMDL
MODEL 8
REMARK VINA RESULT:      -6.6      0.620      1.047
REMARK  Name = 
REMARK  4 active torsions:
REMARK  status: ('A' for Active; 'I' for Inactive)
REMARK    1  A    between atoms: C_1  and  C_2
REMARK    2  A    between atoms: N_9  and  C_10
REMARK    3  A    between atoms: C_13  and  N_14
REMARK    4  A    between atoms: C_15  and  C_17
REMARK                            x       y       z     vdW  Elec       q    Type
REMARK                         _______ _______ _______ _____ _____    ______ ____
ROOT
ATOM      1  C   UNL     1       4.309   6.619  16.366  0.00  0.00    +0.000 C 
ATOM      2  C   UNL     1       3.635   6.625  17.683  0.00  0.00    +0.000 A 
ATOM      3  C   UNL     1       2.754   7.515  18.248  0.00  0.00    +0.000 A 
ATOM      4  C   UNL     1       2.513   7.038  19.562  0.00  0.00    +0.000 A 
ATOM      5  N   UNL     1       1.785   7.667  20.506  0.00  0.00    +0.000 N 
ATOM      6  C   UNL     1       1.033   8.837  20.417  0.00  0.00    +0.000 A 
ATOM      7  N   UNL     1       0.897   9.548  21.531  0.00  0.00    +0.000 NA
ATOM      8  C   UNL     1       0.241  10.690  21.385  0.00  0.00    +0.000 A 
ATOM      9  N   UNL     1       0.068  11.499  22.521  0.00  0.00    +0.000 N 
ATOM     10  N   UNL     1      -0.277  11.108  20.237  0.00  0.00    +0.000 NA
ATOM     11  C   UNL     1      -0.182  10.313  19.192  0.00  0.00    +0.000 A 
ATOM     12  N   UNL     1      -0.752  10.708  17.998  0.00  0.00    +0.000 N 
ATOM     13  C   UNL     1      -1.621  11.893  17.977  0.00  0.00    +0.000 C 
ATOM     14  C   UNL     1      -3.104  11.491  17.948  0.00  0.00    +0.000 C 
ATOM     15  O   UNL     1      -3.378  10.573  16.875  0.00  0.00    +0.000 OA
ATOM     16  C   UNL     1      -2.598   9.377  17.037  0.00  0.00    +0.000 C 
ATOM     17  C   UNL     1      -1.091   9.679  17.008  0.00  0.00    +0.000 C 
ATOM     18  N   UNL     1       0.481   9.172  19.251  0.00  0.00    +0.000 NA
ATOM     19  N   UNL     1       3.187   5.908  19.787  0.00  0.00    +0.000 NA
ATOM     20  N   UNL     1       3.833   5.665  18.632  0.00  0.00    +0.000 N 
ATOM     21  H   UNL     1       1.942   7.405  21.465  0.00  0.00    +0.000 HD
ATOM     22  H   UNL     1       0.399  10.999  23.335  0.00  0.00    +0.000 HD
ATOM     23  H   UNL     1       4.417   4.837  18.576  0.00  0.00    +0.000 HD
ENDROOT
BRANCH   9  24
ATOM     24  C   UNL     1      -1.065  12.301  22.766  0.00  0.00    +0.000 A 
ATOM     25  C   UNL     1      -1.035  13.686  22.582  0.00  0.00    +0.000 A 
ATOM     26  C   UNL     1      -2.149  14.480  22.840  0.00  0.00    +0.000 A 
ATOM     27  C   UNL     1      -3.343  13.911  23.269  0.00  0.00    +0.000 A 
ATOM     28  C   UNL     1      -3.395  12.522  23.444  0.00  0.00    +0.000 A 
ATOM     29  C   UNL     1      -2.267  11.723  23.184  0.00  0.00    +0.000 A 
BRANCH  27  30
ATOM     30  N   UNL     1      -4.510  14.672  23.504  0.00  0.00    +0.000 N 
ATOM     31  C   UNL     1      -5.557  14.853  22.619  0.00  0.00    +0.000 C 
ATOM     32  O   UNL     1      -5.627  14.463  21.462  0.00  0.00    +0.000 OA
ATOM     33  H   UNL     1      -4.600  15.085  24.421  0.00  0.00    +0.000 HD
BRANCH  31  34
ATOM     34  C   UNL     1      -6.723  15.576  23.207  0.00  0.00    +0.000 C 
ATOM     35  C   UNL     1      -7.038  16.992  22.773  0.00  0.00    +0.000 C 
ATOM     36  C   UNL     1      -7.917  15.863  22.324  0.00  0.00    +0.000 C 
ENDBRANCH  31  34
ENDBRANCH  27  30
ENDBRANCH   9  24
TORSDOF 3
ENDMDL
MODEL 9
REMARK VINA RESULT:      -6.5      2.976      9.953
REMARK  Name = 
REMARK  4 active torsions:
REMARK  status: ('A' for Active; 'I' for Inactive)
REMARK    1  A    between atoms: C_1  and  C_2
REMARK    2  A    between atoms: N_9  and  C_10
REMARK    3  A    between atoms: C_13  and  N_14
REMARK    4  A    between atoms: C_15  and  C_17
REMARK                            x       y       z     vdW  Elec       q    Type
REMARK                         _______ _______ _______ _____ _____    ______ ____
ROOT
ATOM      1  C   UNL     1      -4.792  17.152  23.483  0.00  0.00    +0.000 C 
ATOM      2  C   UNL     1      -3.943  16.018  23.907  0.00  0.00    +0.000 A 
ATOM      3  C   UNL     1      -3.145  15.161  23.188  0.00  0.00    +0.000 A 
ATOM      4  C   UNL     1      -2.642  14.224  24.124  0.00  0.00    +0.000 A 
ATOM      5  N   UNL     1      -1.896  13.140  23.829  0.00  0.00    +0.000 N 
ATOM      6  C   UNL     1      -1.365  12.731  22.608  0.00  0.00    +0.000 A 
ATOM      7  N   UNL     1      -1.185  11.425  22.439  0.00  0.00    +0.000 NA
ATOM      8  C   UNL     1      -0.752  11.074  21.237  0.00  0.00    +0.000 A 
ATOM      9  N   UNL     1      -0.549   9.706  20.985  0.00  0.00    +0.000 N 
ATOM     10  N   UNL     1      -0.481  11.934  20.264  0.00  0.00    +0.000 NA
ATOM     11  C   UNL     1      -0.597  13.220  20.527  0.00  0.00    +0.000 A 
ATOM     12  N   UNL     1      -0.279  14.134  19.544  0.00  0.00    +0.000 N 
ATOM     13  C   UNL     1       0.374  13.664  18.313  0.00  0.00    +0.000 C 
ATOM     14  C   UNL     1       1.882  13.957  18.341  0.00  0.00    +0.000 C 
ATOM     15  O   UNL     1       2.142  15.344  18.622  0.00  0.00    +0.000 OA
ATOM     16  C   UNL     1       1.599  15.699  19.904  0.00  0.00    +0.000 C 
ATOM     17  C   UNL     1       0.075  15.501  19.943  0.00  0.00    +0.000 C 
ATOM     18  N   UNL     1      -1.050  13.647  21.692  0.00  0.00    +0.000 NA
ATOM     19  N   UNL     1      -3.083  14.497  25.354  0.00  0.00    +0.000 NA
ATOM     20  N   UNL     1      -3.842  15.598  25.202  0.00  0.00    +0.000 N 
ATOM     21  H   UNL     1      -1.867  12.398  24.509  0.00  0.00    +0.000 HD
ATOM     22  H   UNL     1      -0.672   9.191  21.847  0.00  0.00    +0.000 HD
ATOM     23  H   UNL     1      -4.286  15.990  26.026  0.00  0.00    +0.000 HD
ENDROOT
BRANCH   9  24
ATOM     24  C   UNL     1       0.462   9.189  20.151  0.00  0.00    +0.000 A 
ATOM     25  C   UNL     1       1.292   8.145  20.569  0.00  0.00    +0.000 A 
ATOM     26  C   UNL     1       2.303   7.645  19.751  0.00  0.00    +0.000 A 
ATOM     27  C   UNL     1       2.502   8.157  18.474  0.00  0.00    +0.000 A 
ATOM     28  C   UNL     1       1.669   9.195  18.034  0.00  0.00    +0.000 A 
ATOM     29  C   UNL     1       0.650   9.698  18.863  0.00  0.00    +0.000 A 
BRANCH  27  30
ATOM     30  N   UNL     1       3.487   7.655  17.596  0.00  0.00    +0.000 N 
ATOM     31  C   UNL     1       3.981   6.362  17.578  0.00  0.00    +0.000 C 
ATOM     32  O   UNL     1       3.720   5.457  18.358  0.00  0.00    +0.000 OA
ATOM     33  H   UNL     1       3.828   8.292  16.890  0.00  0.00    +0.000 HD
BRANCH  31  34
ATOM     34  C   UNL     1       4.898   6.086  16.434  0.00  0.00    +0.000 C 
ATOM     35  C   UNL     1       6.339   5.699  16.690  0.00  0.00    +0.000 C 
ATOM     36  C   UNL     1       5.366   4.665  16.211  0.00  0.00    +0.000 C 
ENDBRANCH  31  34
ENDBRANCH  27  30
ENDBRANCH   9  24
TORSDOF 3
ENDMDL
