MODEL 1
REMARK VINA RESULT:      -6.9      0.000      0.000
REMARK  Name = 
REMARK  6 active torsions:
REMARK  status: ('A' for Active; 'I' for Inactive)
REMARK    1  A    between atoms: C_1  and  O_2
REMARK    2  A    between atoms: O_2  and  C_3
REMARK    3  A    between atoms: C_3  and  C_5
REMARK    4  A    between atoms: C_10  and  C_11
REMARK    5  A    between atoms: C_18  and  C_19
REMARK    6  A    between atoms: C_21  and  C_22
REMARK                            x       y       z     vdW  Elec       q    Type
REMARK                         _______ _______ _______ _____ _____    ______ ____
ROOT
ATOM      1  C   UNL     1      -0.216  11.224  18.749  0.00  0.00    +0.000 C 
ATOM      2  C   UNL     1      -1.700  11.172  18.443  0.00  0.00    +0.000 C 
ATOM      3  N   UNL     1      -2.314  11.934  19.565  0.00  0.00    +0.000 NA
ATOM      4  N   UNL     1      -1.437  12.610  20.194  0.00  0.00    +0.000 NA
ATOM      5  C   UNL     1      -0.199  12.621  19.387  0.00  0.00    +0.000 C 
ATOM      6  C   UNL     1      -0.316  13.996  18.651  0.00  0.00    +0.000 C 
ATOM      7  C   UNL     1       1.037  14.611  18.791  0.00  0.00    +0.000 A 
ATOM      8  C   UNL     1       1.498  15.905  18.692  0.00  0.00    +0.000 A 
ATOM      9  C   UNL     1       0.749  17.034  19.342  0.00  0.00    +0.000 C 
ATOM     10  C   UNL     1       2.850  16.067  18.356  0.00  0.00    +0.000 A 
ATOM     11  C   UNL     1       3.722  14.960  18.343  0.00  0.00    +0.000 A 
ATOM     12  C   UNL     1       5.083  15.072  17.731  0.00  0.00    +0.000 C 
ATOM     13  C   UNL     1       3.287  13.764  18.921  0.00  0.00    +0.000 A 
ATOM     14  C   UNL     1       1.943  13.670  19.205  0.00  0.00    +0.000 A 
ATOM     15  C   UNL     1       1.162  12.752  20.027  0.00  0.00    +0.000 C 
ATOM     16  O   UNL     1       1.614  12.255  21.042  0.00  0.00    +0.000 OA
ENDROOT
BRANCH   1  22
ATOM     17  C   UNL     1       1.205   9.117  19.520  0.00  0.00    +0.000 A 
ATOM     18  C   UNL     1       1.518   8.165  20.527  0.00  0.00    +0.000 A 
ATOM     19  C   UNL     1       0.841   8.117  21.741  0.00  0.00    +0.000 A 
ATOM     20  C   UNL     1      -0.176   9.017  21.971  0.00  0.00    +0.000 A 
ATOM     21  C   UNL     1      -0.489   9.959  20.988  0.00  0.00    +0.000 A 
ATOM     22  C   UNL     1       0.185  10.068  19.735  0.00  0.00    +0.000 A 
BRANCH  17  23
ATOM     23  C   UNL     1       1.989   8.905  18.278  0.00  0.00    +0.000 C 
ATOM     24  O   UNL     1       2.263   9.833  17.532  0.00  0.00    +0.000 OA
BRANCH  23  26
ATOM     25  C   UNL     1       3.584   7.367  17.565  0.00  0.00    +0.000 C 
ATOM     26  O   UNL     1       2.249   7.599  18.034  0.00  0.00    +0.000 OA
ENDBRANCH  23  26
ENDBRANCH  17  23
ENDBRANCH   1  22
TORSDOF 3
ENDMDL
MODEL 2
REMARK VINA RESULT:      -6.9      1.064      1.241
REMARK  Name = 
REMARK  6 active torsions:
REMARK  status: ('A' for Active; 'I' for Inactive)
REMARK    1  A    between atoms: C_1  and  O_2
REMARK    2  A    between atoms: O_2  and  C_3
REMARK    3  A    between atoms: C_3  and  C_5
REMARK    4  A    between atoms: C_10  and  C_11
REMARK    5  A    between atoms: C_18  and  C_19
REMARK    6  A    between atoms: C_21  and  C_22
REMARK                            x       y       z     vdW  Elec       q    Type
REMARK                         _______ _______ _______ _____ _____    ______ ____
ROOT
ATOM      1  C   UNL     1      -0.539  11.879  19.515  0.00  0.00    +0.000 C 
ATOM      2  C   UNL     1      -2.015  11.952  19.181  0.00  0.00    +0.000 C 
ATOM      3  N   UNL     1      -2.524  13.023  20.081  0.00  0.00    +0.000 NA
ATOM      4  N   UNL     1      -1.565  13.705  20.569  0.00  0.00    +0.000 NA
ATOM      5  C   UNL     1      -0.336  13.371  19.821  0.00  0.00    +0.000 C 
ATOM      6  C   UNL     1      -0.267  14.545  18.789  0.00  0.00    +0.000 C 
ATOM      7  C   UNL     1       1.156  14.994  18.830  0.00  0.00    +0.000 A 
ATOM      8  C   UNL     1       1.785  16.160  18.455  0.00  0.00    +0.000 A 
ATOM      9  C   UNL     1       1.193  17.496  18.809  0.00  0.00    +0.000 C 
ATOM     10  C   UNL     1       3.147  16.065  18.136  0.00  0.00    +0.000 A 
ATOM     11  C   UNL     1       3.865  14.881  18.402  0.00  0.00    +0.000 A 
ATOM     12  C   UNL     1       5.229  14.673  17.824  0.00  0.00    +0.000 C 
ATOM     13  C   UNL     1       3.272  13.916  19.221  0.00  0.00    +0.000 A 
ATOM     14  C   UNL     1       1.927  14.064  19.475  0.00  0.00    +0.000 A 
ATOM     15  C   UNL     1       1.029  13.467  20.458  0.00  0.00    +0.000 C 
ATOM     16  O   UNL     1       1.409  13.161  21.573  0.00  0.00    +0.000 OA
ENDROOT
BRANCH   1  22
ATOM     17  C   UNL     1       0.592   9.842  20.790  0.00  0.00    +0.000 A 
ATOM     18  C   UNL     1       0.772   9.113  21.996  0.00  0.00    +0.000 A 
ATOM     19  C   UNL     1       0.087   9.427  23.165  0.00  0.00    +0.000 A 
ATOM     20  C   UNL     1      -0.805  10.476  23.150  0.00  0.00    +0.000 A 
ATOM     21  C   UNL     1      -0.987  11.201  21.970  0.00  0.00    +0.000 A 
ATOM     22  C   UNL     1      -0.297  10.937  20.749  0.00  0.00    +0.000 A 
BRANCH  17  23
ATOM     23  C   UNL     1       1.349   9.257  19.656  0.00  0.00    +0.000 C 
ATOM     24  O   UNL     1       1.418   9.824  18.576  0.00  0.00    +0.000 OA
BRANCH  23  26
ATOM     25  C   UNL     1       2.437   7.390  18.789  0.00  0.00    +0.000 C 
ATOM     26  O   UNL     1       1.835   8.022  19.926  0.00  0.00    +0.000 OA
ENDBRANCH  23  26
ENDBRANCH  17  23
ENDBRANCH   1  22
TORSDOF 3
ENDMDL
MODEL 3
REMARK VINA RESULT:      -6.9      4.507      6.938
REMARK  Name = 
REMARK  6 active torsions:
REMARK  status: ('A' for Active; 'I' for Inactive)
REMARK    1  A    between atoms: C_1  and  O_2
REMARK    2  A    between atoms: O_2  and  C_3
REMARK    3  A    between atoms: C_3  and  C_5
REMARK    4  A    between atoms: C_10  and  C_11
REMARK    5  A    between atoms: C_18  and  C_19
REMARK    6  A    between atoms: C_21  and  C_22
REMARK                            x       y       z     vdW  Elec       q    Type
REMARK                         _______ _______ _______ _____ _____    ______ ____
ROOT
ATOM      1  C   UNL     1      -4.477  12.764  22.926  0.00  0.00    +0.000 C 
ATOM      2  C   UNL     1      -5.757  12.836  23.734  0.00  0.00    +0.000 C 
ATOM      3  N   UNL     1      -6.472  14.005  23.152  0.00  0.00    +0.000 NA
ATOM      4  N   UNL     1      -5.965  14.341  22.033  0.00  0.00    +0.000 NA
ATOM      5  C   UNL     1      -5.062  13.258  21.593  0.00  0.00    +0.000 C 
ATOM      6  C   UNL     1      -5.982  12.459  20.613  0.00  0.00    +0.000 C 
ATOM      7  C   UNL     1      -5.125  12.210  19.416  0.00  0.00    +0.000 A 
ATOM      8  C   UNL     1      -5.408  11.892  18.106  0.00  0.00    +0.000 A 
ATOM      9  C   UNL     1      -6.503  12.608  17.365  0.00  0.00    +0.000 C 
ATOM     10  C   UNL     1      -4.404  11.224  17.391  0.00  0.00    +0.000 A 
ATOM     11  C   UNL     1      -3.108  11.091  17.929  0.00  0.00    +0.000 A 
ATOM     12  C   UNL     1      -2.118  10.157  17.307  0.00  0.00    +0.000 C 
ATOM     13  C   UNL     1      -2.773  11.858  19.049  0.00  0.00    +0.000 A 
ATOM     14  C   UNL     1      -3.813  12.468  19.712  0.00  0.00    +0.000 A 
ATOM     15  C   UNL     1      -3.869  13.531  20.710  0.00  0.00    +0.000 C 
ATOM     16  O   UNL     1      -3.063  14.444  20.723  0.00  0.00    +0.000 OA
ENDROOT
BRANCH   1  22
ATOM     17  C   UNL     1      -1.989  13.520  23.468  0.00  0.00    +0.000 A 
ATOM     18  C   UNL     1      -1.105  14.498  23.996  0.00  0.00    +0.000 A 
ATOM     19  C   UNL     1      -1.561  15.663  24.603  0.00  0.00    +0.000 A 
ATOM     20  C   UNL     1      -2.918  15.872  24.704  0.00  0.00    +0.000 A 
ATOM     21  C   UNL     1      -3.796  14.918  24.184  0.00  0.00    +0.000 A 
ATOM     22  C   UNL     1      -3.386  13.716  23.534  0.00  0.00    +0.000 A 
BRANCH  17  23
ATOM     23  C   UNL     1      -1.274  12.321  22.966  0.00  0.00    +0.000 C 
ATOM     24  O   UNL     1      -1.633  11.192  23.268  0.00  0.00    +0.000 OA
BRANCH  23  26
ATOM     25  C   UNL     1       0.189  11.627  21.294  0.00  0.00    +0.000 C 
ATOM     26  O   UNL     1      -0.160  12.627  22.259  0.00  0.00    +0.000 OA
ENDBRANCH  23  26
ENDBRANCH  17  23
ENDBRANCH   1  22
TORSDOF 3
ENDMDL
MODEL 4
REMARK VINA RESULT:      -6.7      1.700      2.162
REMARK  Name = 
REMARK  6 active torsions:
REMARK  status: ('A' for Active; 'I' for Inactive)
REMARK    1  A    between atoms: C_1  and  O_2
REMARK    2  A    between atoms: O_2  and  C_3
REMARK    3  A    between atoms: C_3  and  C_5
REMARK    4  A    between atoms: C_10  and  C_11
REMARK    5  A    between atoms: C_18  and  C_19
REMARK    6  A    between atoms: C_21  and  C_22
REMARK                            x       y       z     vdW  Elec       q    Type
REMARK                         _______ _______ _______ _____ _____    ______ ____
ROOT
ATOM      1  C   UNL     1      -1.554  12.804  20.238  0.00  0.00    +0.000 C 
ATOM      2  C   UNL     1      -3.016  13.047  20.558  0.00  0.00    +0.000 C 
ATOM      3  N   UNL     1      -2.971  13.816  21.832  0.00  0.00    +0.000 NA
ATOM      4  N   UNL     1      -1.801  14.269  22.053  0.00  0.00    +0.000 NA
ATOM      5  C   UNL     1      -1.008  14.120  20.815  0.00  0.00    +0.000 C 
ATOM      6  C   UNL     1      -1.133  15.548  20.188  0.00  0.00    +0.000 C 
ATOM      7  C   UNL     1       0.258  15.893  19.768  0.00  0.00    +0.000 A 
ATOM      8  C   UNL     1       0.887  17.086  19.491  0.00  0.00    +0.000 A 
ATOM      9  C   UNL     1       0.698  18.277  20.388  0.00  0.00    +0.000 C 
ATOM     10  C   UNL     1       1.999  17.026  18.638  0.00  0.00    +0.000 A 
ATOM     11  C   UNL     1       2.557  15.784  18.274  0.00  0.00    +0.000 A 
ATOM     12  C   UNL     1       3.556  15.696  17.163  0.00  0.00    +0.000 C 
ATOM     13  C   UNL     1       2.158  14.645  18.979  0.00  0.00    +0.000 A 
ATOM     14  C   UNL     1       1.047  14.774  19.781  0.00  0.00    +0.000 A 
ATOM     15  C   UNL     1       0.490  13.950  20.849  0.00  0.00    +0.000 C 
ATOM     16  O   UNL     1       1.200  13.300  21.596  0.00  0.00    +0.000 OA
ENDROOT
BRANCH   1  22
ATOM     17  C   UNL     1      -0.242  10.501  20.405  0.00  0.00    +0.000 A 
ATOM     18  C   UNL     1       0.227   9.425  21.206  0.00  0.00    +0.000 A 
ATOM     19  C   UNL     1      -0.075   9.319  22.560  0.00  0.00    +0.000 A 
ATOM     20  C   UNL     1      -0.864  10.286  23.142  0.00  0.00    +0.000 A 
ATOM     21  C   UNL     1      -1.328  11.349  22.364  0.00  0.00    +0.000 A 
ATOM     22  C   UNL     1      -1.033  11.520  20.978  0.00  0.00    +0.000 A 
BRANCH  17  23
ATOM     23  C   UNL     1       0.121  10.343  18.975  0.00  0.00    +0.000 C 
ATOM     24  O   UNL     1      -0.722  10.084  18.129  0.00  0.00    +0.000 OA
BRANCH  23  26
ATOM     25  C   UNL     1       1.932   9.395  17.861  0.00  0.00    +0.000 C 
ATOM     26  O   UNL     1       1.457  10.406  18.759  0.00  0.00    +0.000 OA
ENDBRANCH  23  26
ENDBRANCH  17  23
ENDBRANCH   1  22
TORSDOF 3
ENDMDL
MODEL 5
REMARK VINA RESULT:      -6.7      4.733      7.318
REMARK  Name = 
REMARK  6 active torsions:
REMARK  status: ('A' for Active; 'I' for Inactive)
REMARK    1  A    between atoms: C_1  and  O_2
REMARK    2  A    between atoms: O_2  and  C_3
REMARK    3  A    between atoms: C_3  and  C_5
REMARK    4  A    between atoms: C_10  and  C_11
REMARK    5  A    between atoms: C_18  and  C_19
REMARK    6  A    between atoms: C_21  and  C_22
REMARK                            x       y       z     vdW  Elec       q    Type
REMARK                         _______ _______ _______ _____ _____    ______ ____
ROOT
ATOM      1  C   UNL     1      -5.934  12.149  21.061  0.00  0.00    +0.000 C 
ATOM      2  C   UNL     1      -7.398  11.896  20.760  0.00  0.00    +0.000 C 
ATOM      3  N   UNL     1      -7.673  12.782  19.595  0.00  0.00    +0.000 NA
ATOM      4  N   UNL     1      -6.589  13.188  19.064  0.00  0.00    +0.000 NA
ATOM      5  C   UNL     1      -5.477  12.385  19.613  0.00  0.00    +0.000 C 
ATOM      6  C   UNL     1      -5.286  11.307  18.496  0.00  0.00    +0.000 C 
ATOM      7  C   UNL     1      -3.810  11.249  18.282  0.00  0.00    +0.000 A 
ATOM      8  C   UNL     1      -3.027  10.795  17.244  0.00  0.00    +0.000 A 
ATOM      9  C   UNL     1      -3.375  11.130  15.821  0.00  0.00    +0.000 C 
ATOM     10  C   UNL     1      -1.720  10.403  17.568  0.00  0.00    +0.000 A 
ATOM     11  C   UNL     1      -1.186  10.673  18.844  0.00  0.00    +0.000 A 
ATOM     12  C   UNL     1       0.089  10.027  19.287  0.00  0.00    +0.000 C 
ATOM     13  C   UNL     1      -1.873  11.561  19.677  0.00  0.00    +0.000 A 
ATOM     14  C   UNL     1      -3.158  11.885  19.306  0.00  0.00    +0.000 A 
ATOM     15  C   UNL     1      -4.078  12.939  19.721  0.00  0.00    +0.000 C 
ATOM     16  O   UNL     1      -3.683  14.042  20.052  0.00  0.00    +0.000 OA
ENDROOT
BRANCH   1  22
ATOM     17  C   UNL     1      -4.801  13.555  23.009  0.00  0.00    +0.000 A 
ATOM     18  C   UNL     1      -4.712  14.773  23.734  0.00  0.00    +0.000 A 
ATOM     19  C   UNL     1      -5.564  15.846  23.494  0.00  0.00    +0.000 A 
ATOM     20  C   UNL     1      -6.535  15.719  22.525  0.00  0.00    +0.000 A 
ATOM     21  C   UNL     1      -6.629  14.526  21.804  0.00  0.00    +0.000 A 
ATOM     22  C   UNL     1      -5.770  13.403  21.993  0.00  0.00    +0.000 A 
BRANCH  17  23
ATOM     23  C   UNL     1      -3.859  12.526  23.513  0.00  0.00    +0.000 C 
ATOM     24  O   UNL     1      -4.163  11.779  24.431  0.00  0.00    +0.000 OA
BRANCH  23  26
ATOM     25  C   UNL     1      -1.793  11.484  23.252  0.00  0.00    +0.000 C 
ATOM     26  O   UNL     1      -2.639  12.595  22.928  0.00  0.00    +0.000 OA
ENDBRANCH  23  26
ENDBRANCH  17  23
ENDBRANCH   1  22
TORSDOF 3
ENDMDL
MODEL 6
REMARK VINA RESULT:      -6.6      7.041      9.938
REMARK  Name = 
REMARK  6 active torsions:
REMARK  status: ('A' for Active; 'I' for Inactive)
REMARK    1  A    between atoms: C_1  and  O_2
REMARK    2  A    between atoms: O_2  and  C_3
REMARK    3  A    between atoms: C_3  and  C_5
REMARK    4  A    between atoms: C_10  and  C_11
REMARK    5  A    between atoms: C_18  and  C_19
REMARK    6  A    between atoms: C_21  and  C_22
REMARK                            x       y       z     vdW  Elec       q    Type
REMARK                         _______ _______ _______ _____ _____    ______ ____
ROOT
ATOM      1  C   UNL     1       9.357  12.803  18.821  0.00  0.00    +0.000 C 
ATOM      2  C   UNL     1      10.086  11.543  18.400  0.00  0.00    +0.000 C 
ATOM      3  N   UNL     1      11.228  11.465  19.352  0.00  0.00    +0.000 NA
ATOM      4  N   UNL     1      11.052  12.245  20.343  0.00  0.00    +0.000 NA
ATOM      5  C   UNL     1       9.646  12.700  20.327  0.00  0.00    +0.000 C 
ATOM      6  C   UNL     1       8.985  11.716  21.348  0.00  0.00    +0.000 C 
ATOM      7  C   UNL     1       8.141  12.591  22.215  0.00  0.00    +0.000 A 
ATOM      8  C   UNL     1       7.601  12.430  23.472  0.00  0.00    +0.000 A 
ATOM      9  C   UNL     1       8.425  11.856  24.590  0.00  0.00    +0.000 C 
ATOM     10  C   UNL     1       6.459  13.188  23.766  0.00  0.00    +0.000 A 
ATOM     11  C   UNL     1       6.033  14.211  22.896  0.00  0.00    +0.000 A 
ATOM     12  C   UNL     1       4.681  14.834  23.057  0.00  0.00    +0.000 C 
ATOM     13  C   UNL     1       6.906  14.631  21.888  0.00  0.00    +0.000 A 
ATOM     14  C   UNL     1       7.995  13.826  21.641  0.00  0.00    +0.000 A 
ATOM     15  C   UNL     1       9.238  14.032  20.905  0.00  0.00    +0.000 C 
ATOM     16  O   UNL     1       9.779  15.121  20.850  0.00  0.00    +0.000 OA
ENDROOT
BRANCH   1  22
ATOM     17  C   UNL     1       9.328  15.276  17.852  0.00  0.00    +0.000 A 
ATOM     18  C   UNL     1      10.042  16.371  17.295  0.00  0.00    +0.000 A 
ATOM     19  C   UNL     1      11.398  16.300  16.995  0.00  0.00    +0.000 A 
ATOM     20  C   UNL     1      12.072  15.123  17.239  0.00  0.00    +0.000 A 
ATOM     21  C   UNL     1      11.380  14.042  17.790  0.00  0.00    +0.000 A 
ATOM     22  C   UNL     1       9.996  14.065  18.136  0.00  0.00    +0.000 A 
BRANCH  17  23
ATOM     23  C   UNL     1       7.877  15.555  17.985  0.00  0.00    +0.000 C 
ATOM     24  O   UNL     1       7.469  16.514  18.623  0.00  0.00    +0.000 OA
BRANCH  23  26
ATOM     25  C   UNL     1       5.729  14.670  17.838  0.00  0.00    +0.000 C 
ATOM     26  O   UNL     1       7.101  14.593  17.431  0.00  0.00    +0.000 OA
ENDBRANCH  23  26
ENDBRANCH  17  23
ENDBRANCH   1  22
TORSDOF 3
ENDMDL
MODEL 7
REMARK VINA RESULT:      -6.6      2.009      6.153
REMARK  Name = 
REMARK  6 active torsions:
REMARK  status: ('A' for Active; 'I' for Inactive)
REMARK    1  A    between atoms: C_1  and  O_2
REMARK    2  A    between atoms: O_2  and  C_3
REMARK    3  A    between atoms: C_3  and  C_5
REMARK    4  A    between atoms: C_10  and  C_11
REMARK    5  A    between atoms: C_18  and  C_19
REMARK    6  A    between atoms: C_21  and  C_22
REMARK                            x       y       z     vdW  Elec       q    Type
REMARK                         _______ _______ _______ _____ _____    ______ ____
ROOT
ATOM      1  C   UNL     1       1.169  10.366  20.946  0.00  0.00    +0.000 C 
ATOM      2  C   UNL     1       0.735  10.303  22.396  0.00  0.00    +0.000 C 
ATOM      3  N   UNL     1      -0.435   9.383  22.371  0.00  0.00    +0.000 NA
ATOM      4  N   UNL     1      -0.487   8.738  21.273  0.00  0.00    +0.000 NA
ATOM      5  C   UNL     1       0.799   8.923  20.570  0.00  0.00    +0.000 C 
ATOM      6  C   UNL     1       1.566   7.619  20.969  0.00  0.00    +0.000 C 
ATOM      7  C   UNL     1       2.157   7.128  19.689  0.00  0.00    +0.000 A 
ATOM      8  C   UNL     1       2.626   5.899  19.279  0.00  0.00    +0.000 A 
ATOM      9  C   UNL     1       1.852   4.646  19.582  0.00  0.00    +0.000 C 
ATOM     10  C   UNL     1       3.572   5.901  18.245  0.00  0.00    +0.000 A 
ATOM     11  C   UNL     1       3.849   7.083  17.529  0.00  0.00    +0.000 A 
ATOM     12  C   UNL     1       5.036   7.161  16.621  0.00  0.00    +0.000 C 
ATOM     13  C   UNL     1       2.986   8.171  17.684  0.00  0.00    +0.000 A 
ATOM     14  C   UNL     1       2.097   8.108  18.733  0.00  0.00    +0.000 A 
ATOM     15  C   UNL     1       0.894   8.864  19.065  0.00  0.00    +0.000 C 
ATOM     16  O   UNL     1       0.154   9.304  18.205  0.00  0.00    +0.000 OA
ENDROOT
BRANCH   1  22
ATOM     17  C   UNL     1       0.841  12.291  19.145  0.00  0.00    +0.000 A 
ATOM     18  C   UNL     1      -0.030  13.189  18.471  0.00  0.00    +0.000 A 
ATOM     19  C   UNL     1      -1.379  13.296  18.790  0.00  0.00    +0.000 A 
ATOM     20  C   UNL     1      -1.887  12.511  19.801  0.00  0.00    +0.000 A 
ATOM     21  C   UNL     1      -1.040  11.624  20.468  0.00  0.00    +0.000 A 
ATOM     22  C   UNL     1       0.345  11.457  20.170  0.00  0.00    +0.000 A 
BRANCH  17  23
ATOM     23  C   UNL     1       2.251  12.431  18.704  0.00  0.00    +0.000 C 
ATOM     24  O   UNL     1       2.736  11.675  17.876  0.00  0.00    +0.000 OA
BRANCH  23  26
ATOM     25  C   UNL     1       3.553  14.354  18.535  0.00  0.00    +0.000 C 
ATOM     26  O   UNL     1       2.927  13.386  19.387  0.00  0.00    +0.000 OA
ENDBRANCH  23  26
ENDBRANCH  17  23
ENDBRANCH   1  22
TORSDOF 3
ENDMDL
MODEL 8
REMARK VINA RESULT:      -6.4      2.423      3.192
REMARK  Name = 
REMARK  6 active torsions:
REMARK  status: ('A' for Active; 'I' for Inactive)
REMARK    1  A    between atoms: C_1  and  O_2
REMARK    2  A    between atoms: O_2  and  C_3
REMARK    3  A    between atoms: C_3  and  C_5
REMARK    4  A    between atoms: C_10  and  C_11
REMARK    5  A    between atoms: C_18  and  C_19
REMARK    6  A    between atoms: C_21  and  C_22
REMARK                            x       y       z     vdW  Elec       q    Type
REMARK                         _______ _______ _______ _____ _____    ______ ____
ROOT
ATOM      1  C   UNL     1      -1.429  13.309  21.308  0.00  0.00    +0.000 C 
ATOM      2  C   UNL     1      -2.606  13.615  22.212  0.00  0.00    +0.000 C 
ATOM      3  N   UNL     1      -1.967  13.951  23.515  0.00  0.00    +0.000 NA
ATOM      4  N   UNL     1      -0.721  14.174  23.370  0.00  0.00    +0.000 NA
ATOM      5  C   UNL     1      -0.444  14.314  21.925  0.00  0.00    +0.000 C 
ATOM      6  C   UNL     1      -0.451  15.868  21.752  0.00  0.00    +0.000 C 
ATOM      7  C   UNL     1       0.759  16.157  20.926  0.00  0.00    +0.000 A 
ATOM      8  C   UNL     1       1.507  17.294  20.720  0.00  0.00    +0.000 A 
ATOM      9  C   UNL     1       1.899  18.172  21.875  0.00  0.00    +0.000 C 
ATOM     10  C   UNL     1       2.226  17.364  19.517  0.00  0.00    +0.000 A 
ATOM     11  C   UNL     1       2.339  16.233  18.683  0.00  0.00    +0.000 A 
ATOM     12  C   UNL     1       2.863  16.367  17.288  0.00  0.00    +0.000 C 
ATOM     13  C   UNL     1       1.958  14.990  19.196  0.00  0.00    +0.000 A 
ATOM     14  C   UNL     1       1.238  15.001  20.369  0.00  0.00    +0.000 A 
ATOM     15  C   UNL     1       0.902  13.965  21.340  0.00  0.00    +0.000 C 
ATOM     16  O   UNL     1       1.657  13.040  21.580  0.00  0.00    +0.000 OA
ENDROOT
BRANCH   1  22
ATOM     17  C   UNL     1      -0.550  10.965  20.421  0.00  0.00    +0.000 A 
ATOM     18  C   UNL     1      -0.108   9.645  20.708  0.00  0.00    +0.000 A 
ATOM     19  C   UNL     1      -0.100   9.127  21.998  0.00  0.00    +0.000 A 
ATOM     20  C   UNL     1      -0.545   9.919  23.034  0.00  0.00    +0.000 A 
ATOM     21  C   UNL     1      -0.978  11.219  22.763  0.00  0.00    +0.000 A 
ATOM     22  C   UNL     1      -0.989  11.808  21.464  0.00  0.00    +0.000 A 
BRANCH  17  23
ATOM     23  C   UNL     1      -0.565  11.253  18.966  0.00  0.00    +0.000 C 
ATOM     24  O   UNL     1       0.217  12.048  18.466  0.00  0.00    +0.000 OA
BRANCH  23  26
ATOM     25  C   UNL     1      -2.456  11.551  17.642  0.00  0.00    +0.000 C 
ATOM     26  O   UNL     1      -1.581  10.637  18.315  0.00  0.00    +0.000 OA
ENDBRANCH  23  26
ENDBRANCH  17  23
ENDBRANCH   1  22
TORSDOF 3
ENDMDL
MODEL 9
REMARK VINA RESULT:      -6.4      2.817      5.114
REMARK  Name = 
REMARK  6 active torsions:
REMARK  status: ('A' for Active; 'I' for Inactive)
REMARK    1  A    between atoms: C_1  and  O_2
REMARK    2  A    between atoms: O_2  and  C_3
REMARK    3  A    between atoms: C_3  and  C_5
REMARK    4  A    between atoms: C_10  and  C_11
REMARK    5  A    between atoms: C_18  and  C_19
REMARK    6  A    between atoms: C_21  and  C_22
REMARK                            x       y       z     vdW  Elec       q    Type
REMARK                         _______ _______ _______ _____ _____    ______ ____
ROOT
ATOM      1  C   UNL     1      -0.943  11.115  19.937  0.00  0.00    +0.000 C 
ATOM      2  C   UNL     1      -0.308   9.782  20.280  0.00  0.00    +0.000 C 
ATOM      3  N   UNL     1       0.850   9.697  19.347  0.00  0.00    +0.000 NA
ATOM      4  N   UNL     1       1.104  10.833  18.828  0.00  0.00    +0.000 NA
ATOM      5  C   UNL     1       0.351  11.860  19.577  0.00  0.00    +0.000 C 
ATOM      6  C   UNL     1       1.442  12.388  20.567  0.00  0.00    +0.000 C 
ATOM      7  C   UNL     1       1.318  13.874  20.500  0.00  0.00    +0.000 A 
ATOM      8  C   UNL     1       2.170  14.905  20.828  0.00  0.00    +0.000 A 
ATOM      9  C   UNL     1       3.619  14.854  20.433  0.00  0.00    +0.000 C 
ATOM     10  C   UNL     1       1.575  16.136  21.140  0.00  0.00    +0.000 A 
ATOM     11  C   UNL     1       0.201  16.348  20.910  0.00  0.00    +0.000 A 
ATOM     12  C   UNL     1      -0.491  17.544  21.484  0.00  0.00    +0.000 C 
ATOM     13  C   UNL     1      -0.492  15.418  20.129  0.00  0.00    +0.000 A 
ATOM     14  C   UNL     1       0.147  14.224  19.881  0.00  0.00    +0.000 A 
ATOM     15  C   UNL     1      -0.094  13.146  18.927  0.00  0.00    +0.000 C 
ATOM     16  O   UNL     1      -0.554  13.359  17.820  0.00  0.00    +0.000 OA
ENDROOT
BRANCH   1  22
ATOM     17  C   UNL     1      -3.190  11.604  18.607  0.00  0.00    +0.000 A 
ATOM     18  C   UNL     1      -3.967  11.432  17.431  0.00  0.00    +0.000 A 
ATOM     19  C   UNL     1      -3.553  10.626  16.376  0.00  0.00    +0.000 A 
ATOM     20  C   UNL     1      -2.350   9.963  16.480  0.00  0.00    +0.000 A 
ATOM     21  C   UNL     1      -1.576  10.128  17.632  0.00  0.00    +0.000 A 
ATOM     22  C   UNL     1      -1.942  10.957  18.734  0.00  0.00    +0.000 A 
BRANCH  17  23
ATOM     23  C   UNL     1      -3.885  12.423  19.631  0.00  0.00    +0.000 C 
ATOM     24  O   UNL     1      -3.281  13.235  20.315  0.00  0.00    +0.000 OA
BRANCH  23  26
ATOM     25  C   UNL     1      -5.709  12.402  21.077  0.00  0.00    +0.000 C 
ATOM     26  O   UNL     1      -5.189  12.088  19.779  0.00  0.00    +0.000 OA
ENDBRANCH  23  26
ENDBRANCH  17  23
ENDBRANCH   1  22
TORSDOF 3
ENDMDL
