MODEL 1
REMARK VINA RESULT:      -6.8      0.000      0.000
REMARK  Name = 
REMARK  9 active torsions:
REMARK  status: ('A' for Active; 'I' for Inactive)
REMARK    1  A    between atoms: C_1  and  C_2
REMARK    2  A    between atoms: C_2  and  O_3
REMARK    3  A    between atoms: O_3  and  C_4
REMARK    4  A    between atoms: C_11  and  O_12
REMARK    5  A    between atoms: O_12  and  C_13
REMARK    6  A    between atoms: C_16  and  C_17
REMARK    7  A    between atoms: C_17  and  C_18
REMARK    8  A    between atoms: C_17  and  N_19
REMARK    9  A    between atoms: C_20  and  C_21
REMARK                            x       y       z     vdW  Elec       q    Type
REMARK                         _______ _______ _______ _____ _____    ______ ____
ROOT
ATOM      1  C   UNL     1      -4.406  11.540  17.169  0.00  0.00    +0.000 A 
ATOM      2  C   UNL     1      -3.542  10.651  16.579  0.00  0.00    +0.000 A 
ATOM      3  N   UNL     1      -2.387  10.237  17.131  0.00  0.00    +0.000 NA
ATOM      4  C   UNL     1      -2.043  10.737  18.327  0.00  0.00    +0.000 A 
ATOM      5  N   UNL     1      -0.884  10.275  18.897  0.00  0.00    +0.000 N 
ATOM      6  C   UNL     1      -0.143  11.095  19.836  0.00  0.00    +0.000 C 
ATOM      7  C   UNL     1       1.285  11.055  19.297  0.00  0.00    +0.000 C 
ATOM      8  C   UNL     1       1.410   9.660  18.682  0.00  0.00    +0.000 C 
ATOM      9  C   UNL     1       0.012   9.462  18.070  0.00  0.00    +0.000 C 
ATOM     10  N   UNL     1      -2.803  11.641  18.975  0.00  0.00    +0.000 NA
ATOM     11  C   UNL     1      -3.966  12.011  18.386  0.00  0.00    +0.000 A 
ENDROOT
BRANCH   1  12
ATOM     12  O   UNL     1      -5.599  11.972  16.680  0.00  0.00    +0.000 OA
BRANCH  12  14
ATOM     13  C   UNL     1      -7.350  13.440  17.439  0.00  0.00    +0.000 C 
ATOM     14  C   UNL     1      -6.636  12.121  17.657  0.00  0.00    +0.000 C 
ENDBRANCH  12  14
ENDBRANCH   1  12
BRANCH   8  15
ATOM     15  O   UNL     1       1.643   8.645  19.667  0.00  0.00    +0.000 OA
BRANCH  15  16
ATOM     16  C   UNL     1       2.265   7.516  19.200  0.00  0.00    +0.000 A 
ATOM     17  C   UNL     1       2.103   6.257  19.765  0.00  0.00    +0.000 A 
ATOM     18  C   UNL     1       2.676   5.131  19.165  0.00  0.00    +0.000 A 
ATOM     19  C   UNL     1       3.432   5.252  17.990  0.00  0.00    +0.000 A 
ATOM     20  C   UNL     1       3.632   6.533  17.455  0.00  0.00    +0.000 A 
ATOM     21  C   UNL     1       3.032   7.657  18.043  0.00  0.00    +0.000 A 
BRANCH  19  22
ATOM     22  C   UNL     1       3.962   3.998  17.315  0.00  0.00    +0.000 C 
ATOM     23  C   UNL     1       3.691   2.743  18.144  0.00  0.00    +0.000 C 
BRANCH  22  24
ATOM     24  N   UNL     1       5.381   4.140  17.030  0.00  0.00    +0.000 N 
ATOM     25  C   UNL     1       5.855   4.403  15.769  0.00  0.00    +0.000 C 
ATOM     26  C   UNL     1       7.358   4.430  15.664  0.00  0.00    +0.000 C 
ATOM     27  O   UNL     1       5.135   4.591  14.794  0.00  0.00    +0.000 OA
ATOM     28  H   UNL     1       6.038   3.968  17.779  0.00  0.00    +0.000 HD
ENDBRANCH  22  24
ENDBRANCH  19  22
ENDBRANCH  15  16
ENDBRANCH   8  15
TORSDOF 6
ENDMDL
MODEL 2
REMARK VINA RESULT:      -6.8      3.419      4.890
REMARK  Name = 
REMARK  9 active torsions:
REMARK  status: ('A' for Active; 'I' for Inactive)
REMARK    1  A    between atoms: C_1  and  C_2
REMARK    2  A    between atoms: C_2  and  O_3
REMARK    3  A    between atoms: O_3  and  C_4
REMARK    4  A    between atoms: C_11  and  O_12
REMARK    5  A    between atoms: O_12  and  C_13
REMARK    6  A    between atoms: C_16  and  C_17
REMARK    7  A    between atoms: C_17  and  C_18
REMARK    8  A    between atoms: C_17  and  N_19
REMARK    9  A    between atoms: C_20  and  C_21
REMARK                            x       y       z     vdW  Elec       q    Type
REMARK                         _______ _______ _______ _____ _____    ______ ____
ROOT
ATOM      1  C   UNL     1      -0.419  10.805  20.455  0.00  0.00    +0.000 A 
ATOM      2  C   UNL     1       0.037   9.733  21.182  0.00  0.00    +0.000 A 
ATOM      3  N   UNL     1       0.898   8.812  20.714  0.00  0.00    +0.000 NA
ATOM      4  C   UNL     1       1.327   8.932  19.449  0.00  0.00    +0.000 A 
ATOM      5  N   UNL     1       2.236   8.009  18.998  0.00  0.00    +0.000 N 
ATOM      6  C   UNL     1       2.331   7.691  17.586  0.00  0.00    +0.000 C 
ATOM      7  C   UNL     1       2.271   6.166  17.558  0.00  0.00    +0.000 C 
ATOM      8  C   UNL     1       2.968   5.744  18.853  0.00  0.00    +0.000 C 
ATOM      9  C   UNL     1       2.492   6.832  19.832  0.00  0.00    +0.000 C 
ATOM     10  N   UNL     1       0.914   9.927  18.640  0.00  0.00    +0.000 NA
ATOM     11  C   UNL     1       0.062  10.841  19.165  0.00  0.00    +0.000 A 
ENDROOT
BRANCH   1  12
ATOM     12  O   UNL     1      -1.261  11.786  20.879  0.00  0.00    +0.000 OA
BRANCH  12  14
ATOM     13  C   UNL     1      -1.283  13.035  22.936  0.00  0.00    +0.000 C 
ATOM     14  C   UNL     1      -1.621  11.719  22.263  0.00  0.00    +0.000 C 
ENDBRANCH  12  14
ENDBRANCH   1  12
BRANCH   8  15
ATOM     15  O   UNL     1       4.397   5.794  18.749  0.00  0.00    +0.000 OA
BRANCH  15  16
ATOM     16  C   UNL     1       4.910   5.293  17.581  0.00  0.00    +0.000 A 
ATOM     17  C   UNL     1       5.067   3.935  17.328  0.00  0.00    +0.000 A 
ATOM     18  C   UNL     1       5.487   3.492  16.069  0.00  0.00    +0.000 A 
ATOM     19  C   UNL     1       5.767   4.407  15.044  0.00  0.00    +0.000 A 
ATOM     20  C   UNL     1       5.653   5.777  15.324  0.00  0.00    +0.000 A 
ATOM     21  C   UNL     1       5.204   6.218  16.578  0.00  0.00    +0.000 A 
BRANCH  19  22
ATOM     22  C   UNL     1       6.132   3.887  13.664  0.00  0.00    +0.000 C 
ATOM     23  C   UNL     1       7.312   4.646  13.059  0.00  0.00    +0.000 C 
BRANCH  22  24
ATOM     24  N   UNL     1       4.973   3.935  12.785  0.00  0.00    +0.000 N 
ATOM     25  C   UNL     1       4.776   3.024  11.778  0.00  0.00    +0.000 C 
ATOM     26  C   UNL     1       3.564   3.294  10.926  0.00  0.00    +0.000 C 
ATOM     27  O   UNL     1       5.519   2.071  11.564  0.00  0.00    +0.000 OA
ATOM     28  H   UNL     1       4.333   4.712  12.881  0.00  0.00    +0.000 HD
ENDBRANCH  22  24
ENDBRANCH  19  22
ENDBRANCH  15  16
ENDBRANCH   8  15
TORSDOF 6
ENDMDL
MODEL 3
REMARK VINA RESULT:      -6.7      1.568      2.101
REMARK  Name = 
REMARK  9 active torsions:
REMARK  status: ('A' for Active; 'I' for Inactive)
REMARK    1  A    between atoms: C_1  and  C_2
REMARK    2  A    between atoms: C_2  and  O_3
REMARK    3  A    between atoms: O_3  and  C_4
REMARK    4  A    between atoms: C_11  and  O_12
REMARK    5  A    between atoms: O_12  and  C_13
REMARK    6  A    between atoms: C_16  and  C_17
REMARK    7  A    between atoms: C_17  and  C_18
REMARK    8  A    between atoms: C_17  and  N_19
REMARK    9  A    between atoms: C_20  and  C_21
REMARK                            x       y       z     vdW  Elec       q    Type
REMARK                         _______ _______ _______ _____ _____    ______ ____
ROOT
ATOM      1  C   UNL     1      -5.855  11.821  18.260  0.00  0.00    +0.000 A 
ATOM      2  C   UNL     1      -4.983  10.943  17.665  0.00  0.00    +0.000 A 
ATOM      3  N   UNL     1      -3.685  10.823  17.997  0.00  0.00    +0.000 NA
ATOM      4  C   UNL     1      -3.201  11.626  18.956  0.00  0.00    +0.000 A 
ATOM      5  N   UNL     1      -1.886  11.465  19.312  0.00  0.00    +0.000 N 
ATOM      6  C   UNL     1      -1.130  12.569  19.871  0.00  0.00    +0.000 C 
ATOM      7  C   UNL     1       0.141  12.597  19.027  0.00  0.00    +0.000 C 
ATOM      8  C   UNL     1       0.389  11.127  18.682  0.00  0.00    +0.000 C 
ATOM      9  C   UNL     1      -1.046  10.610  18.470  0.00  0.00    +0.000 C 
ATOM     10  N   UNL     1      -3.964  12.546  19.578  0.00  0.00    +0.000 NA
ATOM     11  C   UNL     1      -5.270  12.613  19.223  0.00  0.00    +0.000 A 
ENDROOT
BRANCH   1  12
ATOM     12  O   UNL     1      -7.182  11.967  17.995  0.00  0.00    +0.000 OA
BRANCH  12  14
ATOM     13  C   UNL     1      -7.297  14.018  16.740  0.00  0.00    +0.000 C 
ATOM     14  C   UNL     1      -7.662  13.316  18.032  0.00  0.00    +0.000 C 
ENDBRANCH  12  14
ENDBRANCH   1  12
BRANCH   8  15
ATOM     15  O   UNL     1       0.997  10.406  19.761  0.00  0.00    +0.000 OA
BRANCH  15  16
ATOM     16  C   UNL     1       1.508   9.179  19.422  0.00  0.00    +0.000 A 
ATOM     17  C   UNL     1       2.153   8.920  18.218  0.00  0.00    +0.000 A 
ATOM     18  C   UNL     1       2.752   7.676  17.989  0.00  0.00    +0.000 A 
ATOM     19  C   UNL     1       2.705   6.668  18.962  0.00  0.00    +0.000 A 
ATOM     20  C   UNL     1       2.008   6.922  20.152  0.00  0.00    +0.000 A 
ATOM     21  C   UNL     1       1.433   8.179  20.392  0.00  0.00    +0.000 A 
BRANCH  19  22
ATOM     22  C   UNL     1       3.444   5.363  18.716  0.00  0.00    +0.000 C 
ATOM     23  C   UNL     1       2.923   4.233  19.602  0.00  0.00    +0.000 C 
BRANCH  22  24
ATOM     24  N   UNL     1       4.875   5.553  18.899  0.00  0.00    +0.000 N 
ATOM     25  C   UNL     1       5.764   5.495  17.854  0.00  0.00    +0.000 C 
ATOM     26  C   UNL     1       7.208   5.632  18.261  0.00  0.00    +0.000 C 
ATOM     27  O   UNL     1       5.433   5.332  16.684  0.00  0.00    +0.000 OA
ATOM     28  H   UNL     1       5.226   5.662  19.841  0.00  0.00    +0.000 HD
ENDBRANCH  22  24
ENDBRANCH  19  22
ENDBRANCH  15  16
ENDBRANCH   8  15
TORSDOF 6
ENDMDL
MODEL 4
REMARK VINA RESULT:      -6.7      3.372      4.635
REMARK  Name = 
REMARK  9 active torsions:
REMARK  status: ('A' for Active; 'I' for Inactive)
REMARK    1  A    between atoms: C_1  and  C_2
REMARK    2  A    between atoms: C_2  and  O_3
REMARK    3  A    between atoms: O_3  and  C_4
REMARK    4  A    between atoms: C_11  and  O_12
REMARK    5  A    between atoms: O_12  and  C_13
REMARK    6  A    between atoms: C_16  and  C_17
REMARK    7  A    between atoms: C_17  and  C_18
REMARK    8  A    between atoms: C_17  and  N_19
REMARK    9  A    between atoms: C_20  and  C_21
REMARK                            x       y       z     vdW  Elec       q    Type
REMARK                         _______ _______ _______ _____ _____    ______ ____
ROOT
ATOM      1  C   UNL     1      -0.501  11.007  21.812  0.00  0.00    +0.000 A 
ATOM      2  C   UNL     1      -0.253   9.758  22.326  0.00  0.00    +0.000 A 
ATOM      3  N   UNL     1       0.521   8.834  21.730  0.00  0.00    +0.000 NA
ATOM      4  C   UNL     1       1.071   9.138  20.546  0.00  0.00    +0.000 A 
ATOM      5  N   UNL     1       1.890   8.201  19.969  0.00  0.00    +0.000 N 
ATOM      6  C   UNL     1       2.068   8.158  18.530  0.00  0.00    +0.000 C 
ATOM      7  C   UNL     1       1.816   6.693  18.182  0.00  0.00    +0.000 C 
ATOM      8  C   UNL     1       2.335   5.928  19.401  0.00  0.00    +0.000 C 
ATOM      9  C   UNL     1       1.918   6.859  20.554  0.00  0.00    +0.000 C 
ATOM     10  N   UNL     1       0.863  10.322  19.937  0.00  0.00    +0.000 NA
ATOM     11  C   UNL     1       0.092  11.227  20.588  0.00  0.00    +0.000 A 
ENDROOT
BRANCH   1  12
ATOM     12  O   UNL     1      -1.245  11.995  22.378  0.00  0.00    +0.000 OA
BRANCH  12  14
ATOM     13  C   UNL     1      -2.695  13.876  21.985  0.00  0.00    +0.000 C 
ATOM     14  C   UNL     1      -2.344  12.457  21.584  0.00  0.00    +0.000 C 
ENDBRANCH  12  14
ENDBRANCH   1  12
BRANCH   8  15
ATOM     15  O   UNL     1       3.762   5.792  19.396  0.00  0.00    +0.000 OA
BRANCH  15  16
ATOM     16  C   UNL     1       4.309   5.477  18.179  0.00  0.00    +0.000 A 
ATOM     17  C   UNL     1       5.284   6.244  17.551  0.00  0.00    +0.000 A 
ATOM     18  C   UNL     1       5.880   5.799  16.365  0.00  0.00    +0.000 A 
ATOM     19  C   UNL     1       5.500   4.581  15.785  0.00  0.00    +0.000 A 
ATOM     20  C   UNL     1       4.480   3.840  16.398  0.00  0.00    +0.000 A 
ATOM     21  C   UNL     1       3.904   4.273  17.602  0.00  0.00    +0.000 A 
BRANCH  19  22
ATOM     22  C   UNL     1       6.233   4.087  14.549  0.00  0.00    +0.000 C 
ATOM     23  C   UNL     1       7.281   5.088  14.064  0.00  0.00    +0.000 C 
BRANCH  22  24
ATOM     24  N   UNL     1       5.284   3.770  13.493  0.00  0.00    +0.000 N 
ATOM     25  C   UNL     1       5.679   3.285  12.271  0.00  0.00    +0.000 C 
ATOM     26  C   UNL     1       4.555   3.101  11.285  0.00  0.00    +0.000 C 
ATOM     27  O   UNL     1       6.843   3.027  11.981  0.00  0.00    +0.000 OA
ATOM     28  H   UNL     1       4.308   3.985  13.648  0.00  0.00    +0.000 HD
ENDBRANCH  22  24
ENDBRANCH  19  22
ENDBRANCH  15  16
ENDBRANCH   8  15
TORSDOF 6
ENDMDL
MODEL 5
REMARK VINA RESULT:      -6.6      1.751      9.851
REMARK  Name = 
REMARK  9 active torsions:
REMARK  status: ('A' for Active; 'I' for Inactive)
REMARK    1  A    between atoms: C_1  and  C_2
REMARK    2  A    between atoms: C_2  and  O_3
REMARK    3  A    between atoms: O_3  and  C_4
REMARK    4  A    between atoms: C_11  and  O_12
REMARK    5  A    between atoms: O_12  and  C_13
REMARK    6  A    between atoms: C_16  and  C_17
REMARK    7  A    between atoms: C_17  and  C_18
REMARK    8  A    between atoms: C_17  and  N_19
REMARK    9  A    between atoms: C_20  and  C_21
REMARK                            x       y       z     vdW  Elec       q    Type
REMARK                         _______ _______ _______ _____ _____    ______ ____
ROOT
ATOM      1  C   UNL     1       6.806   4.949  15.306  0.00  0.00    +0.000 A 
ATOM      2  C   UNL     1       5.633   5.650  15.176  0.00  0.00    +0.000 A 
ATOM      3  N   UNL     1       4.824   5.968  16.202  0.00  0.00    +0.000 NA
ATOM      4  C   UNL     1       5.170   5.560  17.431  0.00  0.00    +0.000 A 
ATOM      5  N   UNL     1       4.357   5.925  18.474  0.00  0.00    +0.000 N 
ATOM      6  C   UNL     1       4.292   5.123  19.680  0.00  0.00    +0.000 C 
ATOM      7  C   UNL     1       2.794   4.919  19.894  0.00  0.00    +0.000 C 
ATOM      8  C   UNL     1       2.166   6.212  19.370  0.00  0.00    +0.000 C 
ATOM      9  C   UNL     1       3.057   6.522  18.154  0.00  0.00    +0.000 C 
ATOM     10  N   UNL     1       6.283   4.836  17.663  0.00  0.00    +0.000 NA
ATOM     11  C   UNL     1       7.076   4.559  16.599  0.00  0.00    +0.000 A 
ENDROOT
BRANCH   1  12
ATOM     12  O   UNL     1       7.682   4.625  14.317  0.00  0.00    +0.000 OA
BRANCH  12  14
ATOM     13  C   UNL     1       6.557   3.489  12.518  0.00  0.00    +0.000 C 
ATOM     14  C   UNL     1       7.180   4.788  12.985  0.00  0.00    +0.000 C 
ENDBRANCH  12  14
ENDBRANCH   1  12
BRANCH   8  15
ATOM     15  O   UNL     1       2.259   7.288  20.312  0.00  0.00    +0.000 OA
BRANCH  15  16
ATOM     16  C   UNL     1       1.562   8.418  19.971  0.00  0.00    +0.000 A 
ATOM     17  C   UNL     1       1.701   9.070  18.751  0.00  0.00    +0.000 A 
ATOM     18  C   UNL     1       0.872  10.149  18.426  0.00  0.00    +0.000 A 
ATOM     19  C   UNL     1      -0.105  10.599  19.325  0.00  0.00    +0.000 A 
ATOM     20  C   UNL     1      -0.204   9.967  20.573  0.00  0.00    +0.000 A 
ATOM     21  C   UNL     1       0.609   8.867  20.886  0.00  0.00    +0.000 A 
BRANCH  19  22
ATOM     22  C   UNL     1      -1.048  11.713  18.902  0.00  0.00    +0.000 C 
ATOM     23  C   UNL     1      -1.020  12.889  19.877  0.00  0.00    +0.000 C 
BRANCH  22  24
ATOM     24  N   UNL     1      -2.398  11.197  18.743  0.00  0.00    +0.000 N 
ATOM     25  C   UNL     1      -3.022  11.132  17.522  0.00  0.00    +0.000 C 
ATOM     26  C   UNL     1      -4.447  10.648  17.579  0.00  0.00    +0.000 C 
ATOM     27  O   UNL     1      -2.487  11.449  16.464  0.00  0.00    +0.000 OA
ATOM     28  H   UNL     1      -2.915  10.945  19.576  0.00  0.00    +0.000 HD
ENDBRANCH  22  24
ENDBRANCH  19  22
ENDBRANCH  15  16
ENDBRANCH   8  15
TORSDOF 6
ENDMDL
MODEL 6
REMARK VINA RESULT:      -6.6      3.233     10.323
REMARK  Name = 
REMARK  9 active torsions:
REMARK  status: ('A' for Active; 'I' for Inactive)
REMARK    1  A    between atoms: C_1  and  C_2
REMARK    2  A    between atoms: C_2  and  O_3
REMARK    3  A    between atoms: O_3  and  C_4
REMARK    4  A    between atoms: C_11  and  O_12
REMARK    5  A    between atoms: O_12  and  C_13
REMARK    6  A    between atoms: C_16  and  C_17
REMARK    7  A    between atoms: C_17  and  C_18
REMARK    8  A    between atoms: C_17  and  N_19
REMARK    9  A    between atoms: C_20  and  C_21
REMARK                            x       y       z     vdW  Elec       q    Type
REMARK                         _______ _______ _______ _____ _____    ______ ____
ROOT
ATOM      1  C   UNL     1       6.235   5.164  15.645  0.00  0.00    +0.000 A 
ATOM      2  C   UNL     1       5.312   6.180  15.610  0.00  0.00    +0.000 A 
ATOM      3  N   UNL     1       4.524   6.523  16.645  0.00  0.00    +0.000 NA
ATOM      4  C   UNL     1       4.626   5.816  17.779  0.00  0.00    +0.000 A 
ATOM      5  N   UNL     1       3.844   6.201  18.839  0.00  0.00    +0.000 N 
ATOM      6  C   UNL     1       3.449   5.244  19.854  0.00  0.00    +0.000 C 
ATOM      7  C   UNL     1       1.938   5.437  19.959  0.00  0.00    +0.000 C 
ATOM      8  C   UNL     1       1.735   6.928  19.681  0.00  0.00    +0.000 C 
ATOM      9  C   UNL     1       2.791   7.189  18.592  0.00  0.00    +0.000 C 
ATOM     10  N   UNL     1       5.475   4.777  17.907  0.00  0.00    +0.000 NA
ATOM     11  C   UNL     1       6.262   4.485  16.843  0.00  0.00    +0.000 A 
ENDROOT
BRANCH   1  12
ATOM     12  O   UNL     1       7.083   4.791  14.649  0.00  0.00    +0.000 OA
BRANCH  12  14
ATOM     13  C   UNL     1       7.063   4.298  12.293  0.00  0.00    +0.000 C 
ATOM     14  C   UNL     1       6.510   3.933  13.656  0.00  0.00    +0.000 C 
ENDBRANCH  12  14
ENDBRANCH   1  12
BRANCH   8  15
ATOM     15  O   UNL     1       2.024   7.744  20.824  0.00  0.00    +0.000 OA
BRANCH  15  16
ATOM     16  C   UNL     1       1.209   8.835  20.978  0.00  0.00    +0.000 A 
ATOM     17  C   UNL     1       0.739   9.601  19.917  0.00  0.00    +0.000 A 
ATOM     18  C   UNL     1      -0.183  10.629  20.139  0.00  0.00    +0.000 A 
ATOM     19  C   UNL     1      -0.643  10.913  21.433  0.00  0.00    +0.000 A 
ATOM     20  C   UNL     1      -0.125  10.168  22.502  0.00  0.00    +0.000 A 
ATOM     21  C   UNL     1       0.778   9.118  22.274  0.00  0.00    +0.000 A 
BRANCH  19  22
ATOM     22  C   UNL     1      -1.713  11.975  21.625  0.00  0.00    +0.000 C 
ATOM     23  C   UNL     1      -2.250  12.495  20.292  0.00  0.00    +0.000 C 
BRANCH  22  24
ATOM     24  N   UNL     1      -1.201  13.063  22.444  0.00  0.00    +0.000 N 
ATOM     25  C   UNL     1      -1.910  13.587  23.496  0.00  0.00    +0.000 C 
ATOM     26  C   UNL     1      -1.247  14.763  24.165  0.00  0.00    +0.000 C 
ATOM     27  O   UNL     1      -2.997  13.157  23.869  0.00  0.00    +0.000 OA
ATOM     28  H   UNL     1      -0.324  13.490  22.177  0.00  0.00    +0.000 HD
ENDBRANCH  22  24
ENDBRANCH  19  22
ENDBRANCH  15  16
ENDBRANCH   8  15
TORSDOF 6
ENDMDL
MODEL 7
REMARK VINA RESULT:      -6.6      1.262      2.087
REMARK  Name = 
REMARK  9 active torsions:
REMARK  status: ('A' for Active; 'I' for Inactive)
REMARK    1  A    between atoms: C_1  and  C_2
REMARK    2  A    between atoms: C_2  and  O_3
REMARK    3  A    between atoms: O_3  and  C_4
REMARK    4  A    between atoms: C_11  and  O_12
REMARK    5  A    between atoms: O_12  and  C_13
REMARK    6  A    between atoms: C_16  and  C_17
REMARK    7  A    between atoms: C_17  and  C_18
REMARK    8  A    between atoms: C_17  and  N_19
REMARK    9  A    between atoms: C_20  and  C_21
REMARK                            x       y       z     vdW  Elec       q    Type
REMARK                         _______ _______ _______ _____ _____    ______ ____
ROOT
ATOM      1  C   UNL     1      -4.424  11.512  17.146  0.00  0.00    +0.000 A 
ATOM      2  C   UNL     1      -3.590  10.697  16.423  0.00  0.00    +0.000 A 
ATOM      3  N   UNL     1      -2.382  10.282  16.846  0.00  0.00    +0.000 NA
ATOM      4  C   UNL     1      -1.951  10.706  18.042  0.00  0.00    +0.000 A 
ATOM      5  N   UNL     1      -0.735  10.243  18.478  0.00  0.00    +0.000 N 
ATOM      6  C   UNL     1       0.061  11.017  19.411  0.00  0.00    +0.000 C 
ATOM      7  C   UNL     1       1.439  11.062  18.754  0.00  0.00    +0.000 C 
ATOM      8  C   UNL     1       1.547   9.719  18.029  0.00  0.00    +0.000 C 
ATOM      9  C   UNL     1       0.108   9.520  17.522  0.00  0.00    +0.000 C 
ATOM     10  N   UNL     1      -2.676  11.537  18.816  0.00  0.00    +0.000 NA
ATOM     11  C   UNL     1      -3.894  11.910  18.354  0.00  0.00    +0.000 A 
ENDROOT
BRANCH   1  12
ATOM     12  O   UNL     1      -5.665  11.940  16.791  0.00  0.00    +0.000 OA
BRANCH  12  14
ATOM     13  C   UNL     1      -7.500  13.329  17.497  0.00  0.00    +0.000 C 
ATOM     14  C   UNL     1      -6.547  12.217  17.886  0.00  0.00    +0.000 C 
ENDBRANCH  12  14
ENDBRANCH   1  12
BRANCH   8  15
ATOM     15  O   UNL     1       1.890   8.645  18.914  0.00  0.00    +0.000 OA
BRANCH  15  16
ATOM     16  C   UNL     1       2.610   7.629  18.340  0.00  0.00    +0.000 A 
ATOM     17  C   UNL     1       3.858   7.805  17.755  0.00  0.00    +0.000 A 
ATOM     18  C   UNL     1       4.586   6.703  17.293  0.00  0.00    +0.000 A 
ATOM     19  C   UNL     1       4.068   5.405  17.402  0.00  0.00    +0.000 A 
ATOM     20  C   UNL     1       2.787   5.243  17.948  0.00  0.00    +0.000 A 
ATOM     21  C   UNL     1       2.071   6.346  18.437  0.00  0.00    +0.000 A 
BRANCH  19  22
ATOM     22  C   UNL     1       4.925   4.225  16.975  0.00  0.00    +0.000 C 
ATOM     23  C   UNL     1       5.241   4.257  15.480  0.00  0.00    +0.000 C 
BRANCH  22  24
ATOM     24  N   UNL     1       4.282   2.975  17.347  0.00  0.00    +0.000 N 
ATOM     25  C   UNL     1       4.362   2.455  18.615  0.00  0.00    +0.000 C 
ATOM     26  C   UNL     1       3.702   1.111  18.778  0.00  0.00    +0.000 C 
ATOM     27  O   UNL     1       4.930   3.015  19.548  0.00  0.00    +0.000 OA
ATOM     28  H   UNL     1       3.820   2.440  16.623  0.00  0.00    +0.000 HD
ENDBRANCH  22  24
ENDBRANCH  19  22
ENDBRANCH  15  16
ENDBRANCH   8  15
TORSDOF 6
ENDMDL
MODEL 8
REMARK VINA RESULT:      -6.6      3.384     10.342
REMARK  Name = 
REMARK  9 active torsions:
REMARK  status: ('A' for Active; 'I' for Inactive)
REMARK    1  A    between atoms: C_1  and  C_2
REMARK    2  A    between atoms: C_2  and  O_3
REMARK    3  A    between atoms: O_3  and  C_4
REMARK    4  A    between atoms: C_11  and  O_12
REMARK    5  A    between atoms: O_12  and  C_13
REMARK    6  A    between atoms: C_16  and  C_17
REMARK    7  A    between atoms: C_17  and  C_18
REMARK    8  A    between atoms: C_17  and  N_19
REMARK    9  A    between atoms: C_20  and  C_21
REMARK                            x       y       z     vdW  Elec       q    Type
REMARK                         _______ _______ _______ _____ _____    ______ ____
ROOT
ATOM      1  C   UNL     1       6.183   5.347  15.586  0.00  0.00    +0.000 A 
ATOM      2  C   UNL     1       5.227   6.333  15.581  0.00  0.00    +0.000 A 
ATOM      3  N   UNL     1       4.444   6.633  16.633  0.00  0.00    +0.000 NA
ATOM      4  C   UNL     1       4.586   5.912  17.754  0.00  0.00    +0.000 A 
ATOM      5  N   UNL     1       3.809   6.254  18.831  0.00  0.00    +0.000 N 
ATOM      6  C   UNL     1       3.460   5.269  19.836  0.00  0.00    +0.000 C 
ATOM      7  C   UNL     1       1.945   5.411  19.967  0.00  0.00    +0.000 C 
ATOM      8  C   UNL     1       1.690   6.899  19.716  0.00  0.00    +0.000 C 
ATOM      9  C   UNL     1       2.721   7.211  18.616  0.00  0.00    +0.000 C 
ATOM     10  N   UNL     1       5.470   4.899  17.852  0.00  0.00    +0.000 NA
ATOM     11  C   UNL     1       6.251   4.650  16.772  0.00  0.00    +0.000 A 
ENDROOT
BRANCH   1  12
ATOM     12  O   UNL     1       7.028   5.017  14.572  0.00  0.00    +0.000 OA
BRANCH  12  14
ATOM     13  C   UNL     1       7.003   4.259  12.287  0.00  0.00    +0.000 C 
ATOM     14  C   UNL     1       6.559   3.975  13.708  0.00  0.00    +0.000 C 
ENDBRANCH  12  14
ENDBRANCH   1  12
BRANCH   8  15
ATOM     15  O   UNL     1       1.970   7.705  20.868  0.00  0.00    +0.000 OA
BRANCH  15  16
ATOM     16  C   UNL     1       1.184   8.820  20.998  0.00  0.00    +0.000 A 
ATOM     17  C   UNL     1       0.676   9.535  19.920  0.00  0.00    +0.000 A 
ATOM     18  C   UNL     1      -0.215  10.594  20.127  0.00  0.00    +0.000 A 
ATOM     19  C   UNL     1      -0.604  10.960  21.424  0.00  0.00    +0.000 A 
ATOM     20  C   UNL     1      -0.047  10.265  22.508  0.00  0.00    +0.000 A 
ATOM     21  C   UNL     1       0.823   9.185  22.296  0.00  0.00    +0.000 A 
BRANCH  19  22
ATOM     22  C   UNL     1      -1.643  12.053  21.607  0.00  0.00    +0.000 C 
ATOM     23  C   UNL     1      -1.041  13.449  21.450  0.00  0.00    +0.000 C 
BRANCH  22  24
ATOM     24  N   UNL     1      -2.303  11.910  22.895  0.00  0.00    +0.000 N 
ATOM     25  C   UNL     1      -3.524  12.478  23.163  0.00  0.00    +0.000 C 
ATOM     26  C   UNL     1      -4.000  12.287  24.580  0.00  0.00    +0.000 C 
ATOM     27  O   UNL     1      -4.183  13.102  22.337  0.00  0.00    +0.000 OA
ATOM     28  H   UNL     1      -1.806  11.434  23.636  0.00  0.00    +0.000 HD
ENDBRANCH  22  24
ENDBRANCH  19  22
ENDBRANCH  15  16
ENDBRANCH   8  15
TORSDOF 6
ENDMDL
MODEL 9
REMARK VINA RESULT:      -6.6      1.023      1.370
REMARK  Name = 
REMARK  9 active torsions:
REMARK  status: ('A' for Active; 'I' for Inactive)
REMARK    1  A    between atoms: C_1  and  C_2
REMARK    2  A    between atoms: C_2  and  O_3
REMARK    3  A    between atoms: O_3  and  C_4
REMARK    4  A    between atoms: C_11  and  O_12
REMARK    5  A    between atoms: O_12  and  C_13
REMARK    6  A    between atoms: C_16  and  C_17
REMARK    7  A    between atoms: C_17  and  C_18
REMARK    8  A    between atoms: C_17  and  N_19
REMARK    9  A    between atoms: C_20  and  C_21
REMARK                            x       y       z     vdW  Elec       q    Type
REMARK                         _______ _______ _______ _____ _____    ______ ____
ROOT
ATOM      1  C   UNL     1      -4.606  11.410  17.384  0.00  0.00    +0.000 A 
ATOM      2  C   UNL     1      -3.775  10.487  16.799  0.00  0.00    +0.000 A 
ATOM      3  N   UNL     1      -2.558  10.159  17.268  0.00  0.00    +0.000 NA
ATOM      4  C   UNL     1      -2.114  10.786  18.367  0.00  0.00    +0.000 A 
ATOM      5  N   UNL     1      -0.889  10.413  18.858  0.00  0.00    +0.000 N 
ATOM      6  C   UNL     1      -0.087  11.341  19.631  0.00  0.00    +0.000 C 
ATOM      7  C   UNL     1       1.281  11.282  18.956  0.00  0.00    +0.000 C 
ATOM      8  C   UNL     1       1.392   9.835  18.471  0.00  0.00    +0.000 C 
ATOM      9  C   UNL     1      -0.053   9.542  18.028  0.00  0.00    +0.000 C 
ATOM     10  N   UNL     1      -2.836  11.733  18.998  0.00  0.00    +0.000 NA
ATOM     11  C   UNL     1      -4.064  12.013  18.497  0.00  0.00    +0.000 A 
ENDROOT
BRANCH   1  12
ATOM     12  O   UNL     1      -5.857  11.762  16.979  0.00  0.00    +0.000 OA
BRANCH  12  14
ATOM     13  C   UNL     1      -7.590  12.971  18.132  0.00  0.00    +0.000 C 
ATOM     14  C   UNL     1      -6.278  13.071  17.380  0.00  0.00    +0.000 C 
ENDBRANCH  12  14
ENDBRANCH   1  12
BRANCH   8  15
ATOM     15  O   UNL     1       1.757   8.931  19.523  0.00  0.00    +0.000 OA
BRANCH  15  16
ATOM     16  C   UNL     1       2.221   7.711  19.103  0.00  0.00    +0.000 A 
ATOM     17  C   UNL     1       2.921   7.521  17.917  0.00  0.00    +0.000 A 
ATOM     18  C   UNL     1       3.466   6.269  17.610  0.00  0.00    +0.000 A 
ATOM     19  C   UNL     1       3.309   5.184  18.483  0.00  0.00    +0.000 A 
ATOM     20  C   UNL     1       2.558   5.374  19.653  0.00  0.00    +0.000 A 
ATOM     21  C   UNL     1       2.037   6.637  19.973  0.00  0.00    +0.000 A 
BRANCH  19  22
ATOM     22  C   UNL     1       3.992   3.866  18.161  0.00  0.00    +0.000 C 
ATOM     23  C   UNL     1       4.560   3.194  19.411  0.00  0.00    +0.000 C 
BRANCH  22  24
ATOM     24  N   UNL     1       5.027   4.066  17.159  0.00  0.00    +0.000 N 
ATOM     25  C   UNL     1       6.307   4.438  17.488  0.00  0.00    +0.000 C 
ATOM     26  C   UNL     1       7.207   4.678  16.304  0.00  0.00    +0.000 C 
ATOM     27  O   UNL     1       6.702   4.581  18.641  0.00  0.00    +0.000 OA
ATOM     28  H   UNL     1       4.768   3.997  16.184  0.00  0.00    +0.000 HD
ENDBRANCH  22  24
ENDBRANCH  19  22
ENDBRANCH  15  16
ENDBRANCH   8  15
TORSDOF 6
ENDMDL
