MODEL 1
REMARK VINA RESULT:      -8.0      0.000      0.000
REMARK  Name = 
REMARK  3 active torsions:
REMARK  status: ('A' for Active; 'I' for Inactive)
REMARK    1  A    between atoms: C_2  and  C_3
REMARK    2  A    between atoms: C_2  and  C_9
REMARK    3  A    between atoms: N_13  and  O_14
REMARK                            x       y       z     vdW  Elec       q    Type
REMARK                         _______ _______ _______ _____ _____    ______ ____
ROOT
ATOM      1  C   UNL     1       5.446   4.800  16.745  0.00  0.00    +0.000 A 
ATOM      2  N   UNL     1       4.164   4.863  16.413  0.00  0.00    +0.000 NA
ATOM      3  C   UNL     1       3.471   4.305  17.459  0.00  0.00    +0.000 A 
ATOM      4  C   UNL     1       4.341   3.887  18.447  0.00  0.00    +0.000 A 
ATOM      5  N   UNL     1       5.581   4.202  17.972  0.00  0.00    +0.000 N 
ATOM      6  C   UNL     1       4.067   3.280  19.776  0.00  0.00    +0.000 C 
ATOM      7  C   UNL     1       2.835   3.920  20.419  0.00  0.00    +0.000 C 
ATOM      8  C   UNL     1       1.490   3.447  19.853  0.00  0.00    +0.000 C 
ATOM      9  C   UNL     1       1.407   3.164  18.347  0.00  0.00    +0.000 C 
ATOM     10  C   UNL     1       1.983   4.262  17.454  0.00  0.00    +0.000 C 
ENDROOT
BRANCH   1  12
ATOM     11  O   UNL     1       7.355   6.116  16.305  0.00  0.00    +0.000 OA
ATOM     12  C   UNL     1       6.523   5.298  15.920  0.00  0.00    +0.000 C 
BRANCH  12  13
ATOM     13  C   UNL     1       6.636   4.783  14.517  0.00  0.00    +0.000 A 
ATOM     14  C   UNL     1       7.581   5.351  13.652  0.00  0.00    +0.000 A 
ATOM     15  C   UNL     1       7.690   4.898  12.335  0.00  0.00    +0.000 A 
ATOM     16  C   UNL     1       6.847   3.889  11.871  0.00  0.00    +0.000 A 
ATOM     17  C   UNL     1       5.894   3.329  12.720  0.00  0.00    +0.000 A 
ATOM     18  C   UNL     1       5.786   3.776  14.038  0.00  0.00    +0.000 A 
ENDBRANCH  12  13
ENDBRANCH   1  12
BRANCH   5  19
ATOM     19  O   UNL     1       6.751   4.080  18.708  0.00  0.00    +0.000 OA
ATOM     20  H   UNL     1       7.079   4.991  18.636  0.00  0.00    +0.000 HD
ENDBRANCH   5  19
TORSDOF 3
ENDMDL
MODEL 2
REMARK VINA RESULT:      -7.9      0.088      1.112
REMARK  Name = 
REMARK  3 active torsions:
REMARK  status: ('A' for Active; 'I' for Inactive)
REMARK    1  A    between atoms: C_2  and  C_3
REMARK    2  A    between atoms: C_2  and  C_9
REMARK    3  A    between atoms: N_13  and  O_14
REMARK                            x       y       z     vdW  Elec       q    Type
REMARK                         _______ _______ _______ _____ _____    ______ ____
ROOT
ATOM      1  C   UNL     1       5.497   4.813  16.756  0.00  0.00    +0.000 A 
ATOM      2  N   UNL     1       4.214   4.838  16.422  0.00  0.00    +0.000 NA
ATOM      3  C   UNL     1       3.535   4.259  17.465  0.00  0.00    +0.000 A 
ATOM      4  C   UNL     1       4.415   3.865  18.455  0.00  0.00    +0.000 A 
ATOM      5  N   UNL     1       5.647   4.217  17.983  0.00  0.00    +0.000 N 
ATOM      6  C   UNL     1       4.156   3.249  19.783  0.00  0.00    +0.000 C 
ATOM      7  C   UNL     1       2.905   3.852  20.423  0.00  0.00    +0.000 C 
ATOM      8  C   UNL     1       1.576   3.340  19.854  0.00  0.00    +0.000 C 
ATOM      9  C   UNL     1       1.504   3.056  18.348  0.00  0.00    +0.000 C 
ATOM     10  C   UNL     1       2.049   4.172  17.458  0.00  0.00    +0.000 C 
ENDROOT
BRANCH   1  12
ATOM     11  O   UNL     1       7.393   6.153  16.335  0.00  0.00    +0.000 OA
ATOM     12  C   UNL     1       6.560   5.343  15.934  0.00  0.00    +0.000 C 
BRANCH  12  13
ATOM     13  C   UNL     1       6.658   4.873  14.514  0.00  0.00    +0.000 A 
ATOM     14  C   UNL     1       5.773   3.886  14.057  0.00  0.00    +0.000 A 
ATOM     15  C   UNL     1       5.859   3.420  12.743  0.00  0.00    +0.000 A 
ATOM     16  C   UNL     1       6.835   3.924  11.885  0.00  0.00    +0.000 A 
ATOM     17  C   UNL     1       7.729   4.895  12.336  0.00  0.00    +0.000 A 
ATOM     18  C   UNL     1       7.642   5.365  13.647  0.00  0.00    +0.000 A 
ENDBRANCH  12  13
ENDBRANCH   1  12
BRANCH   5  19
ATOM     19  O   UNL     1       6.818   4.128  18.721  0.00  0.00    +0.000 OA
ATOM     20  H   UNL     1       6.457   4.279  19.610  0.00  0.00    +0.000 HD
ENDBRANCH   5  19
TORSDOF 3
ENDMDL
MODEL 3
REMARK VINA RESULT:      -7.8      1.184      1.707
REMARK  Name = 
REMARK  3 active torsions:
REMARK  status: ('A' for Active; 'I' for Inactive)
REMARK    1  A    between atoms: C_2  and  C_3
REMARK    2  A    between atoms: C_2  and  C_9
REMARK    3  A    between atoms: N_13  and  O_14
REMARK                            x       y       z     vdW  Elec       q    Type
REMARK                         _______ _______ _______ _____ _____    ______ ____
ROOT
ATOM      1  C   UNL     1       5.430   4.726  16.568  0.00  0.00    +0.000 A 
ATOM      2  N   UNL     1       5.226   3.439  16.813  0.00  0.00    +0.000 NA
ATOM      3  C   UNL     1       4.063   3.368  17.540  0.00  0.00    +0.000 A 
ATOM      4  C   UNL     1       3.548   4.632  17.751  0.00  0.00    +0.000 A 
ATOM      5  N   UNL     1       4.429   5.473  17.136  0.00  0.00    +0.000 N 
ATOM      6  C   UNL     1       2.295   5.060  18.428  0.00  0.00    +0.000 C 
ATOM      7  C   UNL     1       1.155   4.089  18.117  0.00  0.00    +0.000 C 
ATOM      8  C   UNL     1       1.200   2.766  18.894  0.00  0.00    +0.000 C 
ATOM      9  C   UNL     1       2.576   2.143  19.164  0.00  0.00    +0.000 C 
ATOM     10  C   UNL     1       3.492   2.055  17.944  0.00  0.00    +0.000 C 
ENDROOT
BRANCH   1  12
ATOM     11  O   UNL     1       7.380   6.020  16.265  0.00  0.00    +0.000 OA
ATOM     12  C   UNL     1       6.548   5.239  15.809  0.00  0.00    +0.000 C 
BRANCH  12  13
ATOM     13  C   UNL     1       6.705   4.789  14.388  0.00  0.00    +0.000 A 
ATOM     14  C   UNL     1       7.678   5.395  13.581  0.00  0.00    +0.000 A 
ATOM     15  C   UNL     1       7.828   5.003  12.248  0.00  0.00    +0.000 A 
ATOM     16  C   UNL     1       7.001   4.018  11.712  0.00  0.00    +0.000 A 
ATOM     17  C   UNL     1       6.020   3.421  12.503  0.00  0.00    +0.000 A 
ATOM     18  C   UNL     1       5.871   3.807  13.836  0.00  0.00    +0.000 A 
ENDBRANCH  12  13
ENDBRANCH   1  12
BRANCH   5  19
ATOM     19  O   UNL     1       4.227   6.837  16.982  0.00  0.00    +0.000 OA
ATOM     20  H   UNL     1       3.354   6.820  16.557  0.00  0.00    +0.000 HD
ENDBRANCH   5  19
TORSDOF 3
ENDMDL
MODEL 4
REMARK VINA RESULT:      -7.7      1.191      2.033
REMARK  Name = 
REMARK  3 active torsions:
REMARK  status: ('A' for Active; 'I' for Inactive)
REMARK    1  A    between atoms: C_2  and  C_3
REMARK    2  A    between atoms: C_2  and  C_9
REMARK    3  A    between atoms: N_13  and  O_14
REMARK                            x       y       z     vdW  Elec       q    Type
REMARK                         _______ _______ _______ _____ _____    ______ ____
ROOT
ATOM      1  C   UNL     1       5.418   4.744  16.565  0.00  0.00    +0.000 A 
ATOM      2  N   UNL     1       5.222   3.454  16.797  0.00  0.00    +0.000 NA
ATOM      3  C   UNL     1       4.064   3.369  17.530  0.00  0.00    +0.000 A 
ATOM      4  C   UNL     1       3.543   4.628  17.759  0.00  0.00    +0.000 A 
ATOM      5  N   UNL     1       4.417   5.480  17.149  0.00  0.00    +0.000 N 
ATOM      6  C   UNL     1       2.293   5.040  18.449  0.00  0.00    +0.000 C 
ATOM      7  C   UNL     1       1.156   4.068  18.134  0.00  0.00    +0.000 C 
ATOM      8  C   UNL     1       1.213   2.736  18.894  0.00  0.00    +0.000 C 
ATOM      9  C   UNL     1       2.593   2.117  19.148  0.00  0.00    +0.000 C 
ATOM     10  C   UNL     1       3.502   2.047  17.922  0.00  0.00    +0.000 C 
ENDROOT
BRANCH   1  12
ATOM     11  O   UNL     1       7.359   6.052  16.266  0.00  0.00    +0.000 OA
ATOM     12  C   UNL     1       6.529   5.273  15.806  0.00  0.00    +0.000 C 
BRANCH  12  13
ATOM     13  C   UNL     1       6.679   4.839  14.379  0.00  0.00    +0.000 A 
ATOM     14  C   UNL     1       5.827   3.849  13.871  0.00  0.00    +0.000 A 
ATOM     15  C   UNL     1       5.963   3.417  12.549  0.00  0.00    +0.000 A 
ATOM     16  C   UNL     1       6.957   3.958  11.735  0.00  0.00    +0.000 A 
ATOM     17  C   UNL     1       7.819   4.932  12.238  0.00  0.00    +0.000 A 
ATOM     18  C   UNL     1       7.682   5.369  13.556  0.00  0.00    +0.000 A 
ENDBRANCH  12  13
ENDBRANCH   1  12
BRANCH   5  19
ATOM     19  O   UNL     1       4.207   6.844  17.012  0.00  0.00    +0.000 OA
ATOM     20  H   UNL     1       4.224   6.911  16.043  0.00  0.00    +0.000 HD
ENDBRANCH   5  19
TORSDOF 3
ENDMDL
MODEL 5
REMARK VINA RESULT:      -7.6      1.553      2.409
REMARK  Name = 
REMARK  3 active torsions:
REMARK  status: ('A' for Active; 'I' for Inactive)
REMARK    1  A    between atoms: C_2  and  C_3
REMARK    2  A    between atoms: C_2  and  C_9
REMARK    3  A    between atoms: N_13  and  O_14
REMARK                            x       y       z     vdW  Elec       q    Type
REMARK                         _______ _______ _______ _____ _____    ______ ____
ROOT
ATOM      1  C   UNL     1       5.225   4.838  18.489  0.00  0.00    +0.000 A 
ATOM      2  N   UNL     1       5.203   3.667  19.111  0.00  0.00    +0.000 NA
ATOM      3  C   UNL     1       4.007   3.613  19.783  0.00  0.00    +0.000 A 
ATOM      4  C   UNL     1       3.284   4.772  19.577  0.00  0.00    +0.000 A 
ATOM      5  N   UNL     1       4.074   5.533  18.765  0.00  0.00    +0.000 N 
ATOM      6  C   UNL     1       1.926   5.154  20.046  0.00  0.00    +0.000 C 
ATOM      7  C   UNL     1       0.982   3.951  20.007  0.00  0.00    +0.000 C 
ATOM      8  C   UNL     1       1.166   2.948  21.153  0.00  0.00    +0.000 C 
ATOM      9  C   UNL     1       2.593   2.683  21.650  0.00  0.00    +0.000 C 
ATOM     10  C   UNL     1       3.614   2.399  20.550  0.00  0.00    +0.000 C 
ENDROOT
BRANCH   1  12
ATOM     11  O   UNL     1       7.238   5.988  18.053  0.00  0.00    +0.000 OA
ATOM     12  C   UNL     1       6.310   5.291  17.650  0.00  0.00    +0.000 C 
BRANCH  12  13
ATOM     13  C   UNL     1       6.308   4.882  16.208  0.00  0.00    +0.000 A 
ATOM     14  C   UNL     1       7.414   5.194  15.406  0.00  0.00    +0.000 A 
ATOM     15  C   UNL     1       7.424   4.838  14.054  0.00  0.00    +0.000 A 
ATOM     16  C   UNL     1       6.327   4.184  13.496  0.00  0.00    +0.000 A 
ATOM     17  C   UNL     1       5.216   3.883  14.283  0.00  0.00    +0.000 A 
ATOM     18  C   UNL     1       5.206   4.234  15.634  0.00  0.00    +0.000 A 
ENDBRANCH  12  13
ENDBRANCH   1  12
BRANCH   5  19
ATOM     19  O   UNL     1       3.676   6.732  18.193  0.00  0.00    +0.000 OA
ATOM     20  H   UNL     1       3.471   7.232  19.000  0.00  0.00    +0.000 HD
ENDBRANCH   5  19
TORSDOF 3
ENDMDL
MODEL 6
REMARK VINA RESULT:      -7.6      1.541      2.624
REMARK  Name = 
REMARK  3 active torsions:
REMARK  status: ('A' for Active; 'I' for Inactive)
REMARK    1  A    between atoms: C_2  and  C_3
REMARK    2  A    between atoms: C_2  and  C_9
REMARK    3  A    between atoms: N_13  and  O_14
REMARK                            x       y       z     vdW  Elec       q    Type
REMARK                         _______ _______ _______ _____ _____    ______ ____
ROOT
ATOM      1  C   UNL     1       5.268   4.818  18.472  0.00  0.00    +0.000 A 
ATOM      2  N   UNL     1       5.233   3.653  19.105  0.00  0.00    +0.000 NA
ATOM      3  C   UNL     1       4.029   3.612  19.763  0.00  0.00    +0.000 A 
ATOM      4  C   UNL     1       3.315   4.773  19.538  0.00  0.00    +0.000 A 
ATOM      5  N   UNL     1       4.119   5.522  18.728  0.00  0.00    +0.000 N 
ATOM      6  C   UNL     1       1.954   5.168  19.988  0.00  0.00    +0.000 C 
ATOM      7  C   UNL     1       1.004   3.970  19.950  0.00  0.00    +0.000 C 
ATOM      8  C   UNL     1       1.169   2.976  21.108  0.00  0.00    +0.000 C 
ATOM      9  C   UNL     1       2.589   2.709  21.623  0.00  0.00    +0.000 C 
ATOM     10  C   UNL     1       3.621   2.408  20.538  0.00  0.00    +0.000 C 
ENDROOT
BRANCH   1  12
ATOM     11  O   UNL     1       7.322   5.905  18.059  0.00  0.00    +0.000 OA
ATOM     12  C   UNL     1       6.366   5.256  17.641  0.00  0.00    +0.000 C 
BRANCH  12  13
ATOM     13  C   UNL     1       6.341   4.893  16.187  0.00  0.00    +0.000 A 
ATOM     14  C   UNL     1       5.218   4.237  15.664  0.00  0.00    +0.000 A 
ATOM     15  C   UNL     1       5.182   3.872  14.316  0.00  0.00    +0.000 A 
ATOM     16  C   UNL     1       6.270   4.145  13.489  0.00  0.00    +0.000 A 
ATOM     17  C   UNL     1       7.398   4.783  14.004  0.00  0.00    +0.000 A 
ATOM     18  C   UNL     1       7.434   5.153  15.350  0.00  0.00    +0.000 A 
ENDBRANCH  12  13
ENDBRANCH   1  12
BRANCH   5  19
ATOM     19  O   UNL     1       3.734   6.718  18.140  0.00  0.00    +0.000 OA
ATOM     20  H   UNL     1       3.929   6.508  17.212  0.00  0.00    +0.000 HD
ENDBRANCH   5  19
TORSDOF 3
ENDMDL
MODEL 7
REMARK VINA RESULT:      -7.5      2.724      3.834
REMARK  Name = 
REMARK  3 active torsions:
REMARK  status: ('A' for Active; 'I' for Inactive)
REMARK    1  A    between atoms: C_2  and  C_3
REMARK    2  A    between atoms: C_2  and  C_9
REMARK    3  A    between atoms: N_13  and  O_14
REMARK                            x       y       z     vdW  Elec       q    Type
REMARK                         _______ _______ _______ _____ _____    ______ ____
ROOT
ATOM      1  C   UNL     1       4.509   5.363  16.924  0.00  0.00    +0.000 A 
ATOM      2  N   UNL     1       3.429   5.674  17.628  0.00  0.00    +0.000 NA
ATOM      3  C   UNL     1       2.858   4.482  18.000  0.00  0.00    +0.000 A 
ATOM      4  C   UNL     1       3.595   3.421  17.512  0.00  0.00    +0.000 A 
ATOM      5  N   UNL     1       4.627   3.999  16.830  0.00  0.00    +0.000 N 
ATOM      6  C   UNL     1       3.409   1.957  17.693  0.00  0.00    +0.000 C 
ATOM      7  C   UNL     1       2.944   1.643  19.116  0.00  0.00    +0.000 C 
ATOM      8  C   UNL     1       1.463   1.931  19.391  0.00  0.00    +0.000 C 
ATOM      9  C   UNL     1       0.837   3.162  18.722  0.00  0.00    +0.000 C 
ATOM     10  C   UNL     1       1.646   4.451  18.862  0.00  0.00    +0.000 C 
ENDROOT
BRANCH   1  12
ATOM     11  O   UNL     1       5.313   6.771  15.209  0.00  0.00    +0.000 OA
ATOM     12  C   UNL     1       5.414   6.335  16.354  0.00  0.00    +0.000 C 
BRANCH  12  13
ATOM     13  C   UNL     1       6.534   6.846  17.208  0.00  0.00    +0.000 A 
ATOM     14  C   UNL     1       7.094   6.003  18.178  0.00  0.00    +0.000 A 
ATOM     15  C   UNL     1       8.126   6.465  18.999  0.00  0.00    +0.000 A 
ATOM     16  C   UNL     1       8.593   7.772  18.866  0.00  0.00    +0.000 A 
ATOM     17  C   UNL     1       8.031   8.622  17.913  0.00  0.00    +0.000 A 
ATOM     18  C   UNL     1       7.003   8.161  17.090  0.00  0.00    +0.000 A 
ENDBRANCH  12  13
ENDBRANCH   1  12
BRANCH   5  19
ATOM     19  O   UNL     1       5.694   3.297  16.290  0.00  0.00    +0.000 OA
ATOM     20  H   UNL     1       6.346   4.014  16.240  0.00  0.00    +0.000 HD
ENDBRANCH   5  19
TORSDOF 3
ENDMDL
MODEL 8
REMARK VINA RESULT:      -7.4      1.959      2.199
REMARK  Name = 
REMARK  3 active torsions:
REMARK  status: ('A' for Active; 'I' for Inactive)
REMARK    1  A    between atoms: C_2  and  C_3
REMARK    2  A    between atoms: C_2  and  C_9
REMARK    3  A    between atoms: N_13  and  O_14
REMARK                            x       y       z     vdW  Elec       q    Type
REMARK                         _______ _______ _______ _____ _____    ______ ____
ROOT
ATOM      1  C   UNL     1       5.745   5.290  16.786  0.00  0.00    +0.000 A 
ATOM      2  N   UNL     1       5.360   6.551  16.642  0.00  0.00    +0.000 NA
ATOM      3  C   UNL     1       4.234   6.698  17.412  0.00  0.00    +0.000 A 
ATOM      4  C   UNL     1       3.916   5.507  18.035  0.00  0.00    +0.000 A 
ATOM      5  N   UNL     1       4.877   4.631  17.620  0.00  0.00    +0.000 N 
ATOM      6  C   UNL     1       2.830   5.185  18.999  0.00  0.00    +0.000 C 
ATOM      7  C   UNL     1       2.610   6.344  19.972  0.00  0.00    +0.000 C 
ATOM      8  C   UNL     1       1.834   7.535  19.395  0.00  0.00    +0.000 C 
ATOM      9  C   UNL     1       2.086   7.911  17.929  0.00  0.00    +0.000 C 
ATOM     10  C   UNL     1       3.559   8.019  17.537  0.00  0.00    +0.000 C 
ENDROOT
BRANCH   1  12
ATOM     11  O   UNL     1       7.923   4.382  16.758  0.00  0.00    +0.000 OA
ATOM     12  C   UNL     1       6.910   4.720  16.149  0.00  0.00    +0.000 C 
BRANCH  12  13
ATOM     13  C   UNL     1       6.879   4.522  14.664  0.00  0.00    +0.000 A 
ATOM     14  C   UNL     1       7.745   5.270  13.855  0.00  0.00    +0.000 A 
ATOM     15  C   UNL     1       7.719   5.115  12.467  0.00  0.00    +0.000 A 
ATOM     16  C   UNL     1       6.821   4.226  11.879  0.00  0.00    +0.000 A 
ATOM     17  C   UNL     1       5.945   3.489  12.676  0.00  0.00    +0.000 A 
ATOM     18  C   UNL     1       5.972   3.638  14.063  0.00  0.00    +0.000 A 
ENDBRANCH  12  13
ENDBRANCH   1  12
BRANCH   5  19
ATOM     19  O   UNL     1       5.023   3.343  18.113  0.00  0.00    +0.000 OA
ATOM     20  H   UNL     1       5.900   3.134  17.752  0.00  0.00    +0.000 HD
ENDBRANCH   5  19
TORSDOF 3
ENDMDL
MODEL 9
REMARK VINA RESULT:      -7.4      3.582      4.559
REMARK  Name = 
REMARK  3 active torsions:
REMARK  status: ('A' for Active; 'I' for Inactive)
REMARK    1  A    between atoms: C_2  and  C_3
REMARK    2  A    between atoms: C_2  and  C_9
REMARK    3  A    between atoms: N_13  and  O_14
REMARK                            x       y       z     vdW  Elec       q    Type
REMARK                         _______ _______ _______ _____ _____    ______ ____
ROOT
ATOM      1  C   UNL     1       3.334   5.669  19.055  0.00  0.00    +0.000 A 
ATOM      2  N   UNL     1       3.288   6.656  18.170  0.00  0.00    +0.000 NA
ATOM      3  C   UNL     1       2.434   7.596  18.689  0.00  0.00    +0.000 A 
ATOM      4  C   UNL     1       1.941   7.179  19.911  0.00  0.00    +0.000 A 
ATOM      5  N   UNL     1       2.515   5.958  20.117  0.00  0.00    +0.000 N 
ATOM      6  C   UNL     1       1.036   7.868  20.869  0.00  0.00    +0.000 C 
ATOM      7  C   UNL     1       1.353   9.363  20.931  0.00  0.00    +0.000 C 
ATOM      8  C   UNL     1       0.830  10.185  19.746  0.00  0.00    +0.000 C 
ATOM      9  C   UNL     1       0.860   9.536  18.356  0.00  0.00    +0.000 C 
ATOM     10  C   UNL     1       2.189   8.882  17.981  0.00  0.00    +0.000 C 
ENDROOT
BRANCH   1  12
ATOM     11  O   UNL     1       4.056   3.500  19.641  0.00  0.00    +0.000 OA
ATOM     12  C   UNL     1       4.136   4.477  18.901  0.00  0.00    +0.000 C 
BRANCH  12  13
ATOM     13  C   UNL     1       5.118   4.427  17.769  0.00  0.00    +0.000 A 
ATOM     14  C   UNL     1       6.462   4.738  18.014  0.00  0.00    +0.000 A 
ATOM     15  C   UNL     1       7.390   4.716  16.970  0.00  0.00    +0.000 A 
ATOM     16  C   UNL     1       6.979   4.399  15.676  0.00  0.00    +0.000 A 
ATOM     17  C   UNL     1       5.640   4.103  15.421  0.00  0.00    +0.000 A 
ATOM     18  C   UNL     1       4.712   4.120  16.463  0.00  0.00    +0.000 A 
ENDBRANCH  12  13
ENDBRANCH   1  12
BRANCH   5  19
ATOM     19  O   UNL     1       2.402   5.234  21.295  0.00  0.00    +0.000 OA
ATOM     20  H   UNL     1       2.214   5.961  21.910  0.00  0.00    +0.000 HD
ENDBRANCH   5  19
TORSDOF 3
ENDMDL
