MODEL 1
REMARK VINA RESULT:      -7.5      0.000      0.000
REMARK  Name = 
REMARK  9 active torsions:
REMARK  status: ('A' for Active; 'I' for Inactive)
REMARK    1  A    between atoms: C_1  and  O_2
REMARK    2  A    between atoms: O_2  and  C_3
REMARK    3  A    between atoms: C_3  and  C_4
REMARK    4  A    between atoms: C_4  and  N_5
REMARK    5  A    between atoms: C_4  and  C_22
REMARK    6  A    between atoms: C_14  and  O_15
REMARK    7  A    between atoms: O_15  and  C_16
REMARK    8  A    between atoms: CA_18  and  C_19
REMARK    9  A    between atoms: C_19  and  O_20
REMARK                            x       y       z     vdW  Elec       q    Type
REMARK                         _______ _______ _______ _____ _____    ______ ____
ROOT
ATOM      1  N   UNL     1       3.467   6.752  18.555  0.00  0.00    +0.000 N 
ATOM      2  C   UNL     1       2.439   7.524  19.028  0.00  0.00    +0.000 C 
ATOM      3  O   UNL     1       1.856   7.294  20.082  0.00  0.00    +0.000 OA
ATOM      4  N   UNL     1       2.106   8.537  18.162  0.00  0.00    +0.000 N 
ATOM      5  C   UNL     1       1.067   9.405  18.510  0.00  0.00    +0.000 A 
ATOM      6  C   UNL     1       1.100  10.066  19.736  0.00  0.00    +0.000 A 
ATOM      7  C   UNL     1       0.007  10.878  19.997  0.00  0.00    +0.000 A 
ATOM      8  N   UNL     1      -0.278  11.663  21.077  0.00  0.00    +0.000 N 
ATOM      9  N   UNL     1      -1.448  12.304  20.989  0.00  0.00    +0.000 NA
ATOM     10  C   UNL     1      -1.936  11.900  19.813  0.00  0.00    +0.000 A 
ATOM     11  C   UNL     1      -1.072  11.006  19.126  0.00  0.00    +0.000 A 
ATOM     12  CA  UNL     1      -1.050  10.280  17.918  0.00  0.00    +0.000 A 
ATOM     13  N   UNL     1       0.072   9.534  17.614  0.00  0.00    +0.000 NA
ATOM     14  H   UNL     1       4.190   7.249  18.054  0.00  0.00    +0.000 HD
ATOM     15  H   UNL     1       2.063   8.237  17.199  0.00  0.00    +0.000 HD
ATOM     16  H   UNL     1       0.289  11.805  21.907  0.00  0.00    +0.000 HD
ENDROOT
BRANCH  10  17
ATOM     17  O   UNL     1      -3.138  12.361  19.395  0.00  0.00    +0.000 OA
ATOM     18  C   UNL     1      -3.903  12.980  20.434  0.00  0.00    +0.000 C 
ENDBRANCH  10  17
BRANCH   1  19
ATOM     19  C   UNL     1       3.900   5.545  19.273  0.00  0.00    +0.000 C 
BRANCH  19  20
ATOM     20  C   UNL     1       2.794   4.490  19.337  0.00  0.00    +0.000 A 
ATOM     21  C   UNL     1       2.321   3.991  20.555  0.00  0.00    +0.000 A 
ATOM     22  C   UNL     1       1.359   2.989  20.570  0.00  0.00    +0.000 A 
ATOM     23  C   UNL     1       0.878   2.503  19.365  0.00  0.00    +0.000 A 
ATOM     24  C   UNL     1       1.384   3.042  18.194  0.00  0.00    +0.000 A 
ATOM     25  N   UNL     1       2.327   4.015  18.150  0.00  0.00    +0.000 NA
ENDBRANCH  19  20
BRANCH  19  26
ATOM     26  C   UNL     1       5.242   4.981  18.741  0.00  0.00    +0.000 C 
BRANCH  26  28
ATOM     27  C   UNL     1       7.480   5.619  19.048  0.00  0.00    +0.000 C 
ATOM     28  O   UNL     1       6.303   5.137  19.693  0.00  0.00    +0.000 OA
ENDBRANCH  26  28
ENDBRANCH  19  26
ENDBRANCH   1  19
BRANCH  12  29
ATOM     29  C   UNL     1      -2.166  10.208  16.910  0.00  0.00    +0.000 C 
BRANCH  29  30
ATOM     30  O   UNL     1      -2.388  11.503  16.332  0.00  0.00    +0.000 OA
ATOM     31  H   UNL     1      -1.541  11.980  16.441  0.00  0.00    +0.000 HD
ENDBRANCH  29  30
ENDBRANCH  12  29
TORSDOF 7
ENDMDL
MODEL 2
REMARK VINA RESULT:      -7.5      2.670      8.451
REMARK  Name = 
REMARK  9 active torsions:
REMARK  status: ('A' for Active; 'I' for Inactive)
REMARK    1  A    between atoms: C_1  and  O_2
REMARK    2  A    between atoms: O_2  and  C_3
REMARK    3  A    between atoms: C_3  and  C_4
REMARK    4  A    between atoms: C_4  and  N_5
REMARK    5  A    between atoms: C_4  and  C_22
REMARK    6  A    between atoms: C_14  and  O_15
REMARK    7  A    between atoms: O_15  and  C_16
REMARK    8  A    between atoms: CA_18  and  C_19
REMARK    9  A    between atoms: C_19  and  O_20
REMARK                            x       y       z     vdW  Elec       q    Type
REMARK                         _______ _______ _______ _____ _____    ______ ____
ROOT
ATOM      1  N   UNL     1       0.812   9.787  19.166  0.00  0.00    +0.000 N 
ATOM      2  C   UNL     1       1.708   9.092  18.400  0.00  0.00    +0.000 C 
ATOM      3  O   UNL     1       2.077   9.466  17.291  0.00  0.00    +0.000 OA
ATOM      4  N   UNL     1       2.093   7.912  18.988  0.00  0.00    +0.000 N 
ATOM      5  C   UNL     1       3.003   7.090  18.317  0.00  0.00    +0.000 A 
ATOM      6  C   UNL     1       4.220   7.615  17.887  0.00  0.00    +0.000 A 
ATOM      7  C   UNL     1       5.035   6.726  17.204  0.00  0.00    +0.000 A 
ATOM      8  N   UNL     1       6.277   6.897  16.660  0.00  0.00    +0.000 N 
ATOM      9  N   UNL     1       6.760   5.807  16.055  0.00  0.00    +0.000 NA
ATOM     10  C   UNL     1       5.782   4.910  16.205  0.00  0.00    +0.000 A 
ATOM     11  C   UNL     1       4.666   5.412  16.926  0.00  0.00    +0.000 A 
ATOM     12  CA  UNL     1       3.404   4.963  17.364  0.00  0.00    +0.000 A 
ATOM     13  N   UNL     1       2.621   5.816  18.116  0.00  0.00    +0.000 NA
ATOM     14  H   UNL     1       0.967   9.746  20.164  0.00  0.00    +0.000 HD
ATOM     15  H   UNL     1       1.322   7.399  19.390  0.00  0.00    +0.000 HD
ATOM     16  H   UNL     1       6.847   7.736  16.671  0.00  0.00    +0.000 HD
ENDROOT
BRANCH  10  17
ATOM     17  O   UNL     1       5.935   3.664  15.697  0.00  0.00    +0.000 OA
ATOM     18  C   UNL     1       6.077   3.643  14.273  0.00  0.00    +0.000 C 
ENDBRANCH  10  17
BRANCH   1  19
ATOM     19  C   UNL     1       0.184  11.020  18.668  0.00  0.00    +0.000 C 
BRANCH  19  20
ATOM     20  C   UNL     1      -1.285  10.806  18.301  0.00  0.00    +0.000 A 
ATOM     21  C   UNL     1      -1.678   9.853  17.355  0.00  0.00    +0.000 A 
ATOM     22  C   UNL     1      -3.017   9.731  17.005  0.00  0.00    +0.000 A 
ATOM     23  C   UNL     1      -3.947  10.561  17.610  0.00  0.00    +0.000 A 
ATOM     24  C   UNL     1      -3.494  11.480  18.541  0.00  0.00    +0.000 A 
ATOM     25  N   UNL     1      -2.194  11.625  18.898  0.00  0.00    +0.000 NA
ENDBRANCH  19  20
BRANCH  19  26
ATOM     26  C   UNL     1       0.400  12.227  19.614  0.00  0.00    +0.000 C 
BRANCH  26  28
ATOM     27  C   UNL     1       1.946  13.679  20.619  0.00  0.00    +0.000 C 
ATOM     28  O   UNL     1       1.787  12.575  19.732  0.00  0.00    +0.000 OA
ENDBRANCH  26  28
ENDBRANCH  19  26
ENDBRANCH   1  19
BRANCH  12  29
ATOM     29  C   UNL     1       2.791   3.620  17.064  0.00  0.00    +0.000 C 
BRANCH  29  30
ATOM     30  O   UNL     1       3.634   2.574  17.569  0.00  0.00    +0.000 OA
ATOM     31  H   UNL     1       3.431   1.793  17.016  0.00  0.00    +0.000 HD
ENDBRANCH  29  30
ENDBRANCH  12  29
TORSDOF 7
ENDMDL
MODEL 3
REMARK VINA RESULT:      -7.5      2.347      8.276
REMARK  Name = 
REMARK  9 active torsions:
REMARK  status: ('A' for Active; 'I' for Inactive)
REMARK    1  A    between atoms: C_1  and  O_2
REMARK    2  A    between atoms: O_2  and  C_3
REMARK    3  A    between atoms: C_3  and  C_4
REMARK    4  A    between atoms: C_4  and  N_5
REMARK    5  A    between atoms: C_4  and  C_22
REMARK    6  A    between atoms: C_14  and  O_15
REMARK    7  A    between atoms: O_15  and  C_16
REMARK    8  A    between atoms: CA_18  and  C_19
REMARK    9  A    between atoms: C_19  and  O_20
REMARK                            x       y       z     vdW  Elec       q    Type
REMARK                         _______ _______ _______ _____ _____    ______ ____
ROOT
ATOM      1  N   UNL     1       0.674  10.082  19.720  0.00  0.00    +0.000 N 
ATOM      2  C   UNL     1       1.314   8.923  19.373  0.00  0.00    +0.000 C 
ATOM      3  O   UNL     1       1.611   8.639  18.216  0.00  0.00    +0.000 OA
ATOM      4  N   UNL     1       1.529   8.101  20.452  0.00  0.00    +0.000 N 
ATOM      5  C   UNL     1       2.170   6.875  20.248  0.00  0.00    +0.000 A 
ATOM      6  C   UNL     1       3.404   6.841  19.603  0.00  0.00    +0.000 A 
ATOM      7  C   UNL     1       3.939   5.575  19.422  0.00  0.00    +0.000 A 
ATOM      8  N   UNL     1       5.113   5.180  18.847  0.00  0.00    +0.000 N 
ATOM      9  N   UNL     1       5.294   3.855  18.836  0.00  0.00    +0.000 NA
ATOM     10  C   UNL     1       4.185   3.386  19.413  0.00  0.00    +0.000 A 
ATOM     11  C   UNL     1       3.287   4.409  19.817  0.00  0.00    +0.000 A 
ATOM     12  CA  UNL     1       2.025   4.522  20.435  0.00  0.00    +0.000 A 
ATOM     13  N   UNL     1       1.524   5.783  20.692  0.00  0.00    +0.000 NA
ATOM     14  H   UNL     1       0.939  10.476  20.612  0.00  0.00    +0.000 HD
ATOM     15  H   UNL     1       0.728   8.030  21.061  0.00  0.00    +0.000 HD
ATOM     16  H   UNL     1       5.834   5.769  18.445  0.00  0.00    +0.000 HD
ENDROOT
BRANCH  10  17
ATOM     17  O   UNL     1       4.026   2.049  19.567  0.00  0.00    +0.000 OA
ATOM     18  C   UNL     1       3.548   1.394  18.388  0.00  0.00    +0.000 C 
ENDBRANCH  10  17
BRANCH   1  19
ATOM     19  C   UNL     1       0.244  11.047  18.697  0.00  0.00    +0.000 C 
BRANCH  19  20
ATOM     20  C   UNL     1      -1.217  10.841  18.294  0.00  0.00    +0.000 A 
ATOM     21  C   UNL     1      -1.590   9.894  17.335  0.00  0.00    +0.000 A 
ATOM     22  C   UNL     1      -2.921   9.780  16.952  0.00  0.00    +0.000 A 
ATOM     23  C   UNL     1      -3.862  10.611  17.538  0.00  0.00    +0.000 A 
ATOM     24  C   UNL     1      -3.428  11.523  18.485  0.00  0.00    +0.000 A 
ATOM     25  N   UNL     1      -2.137  11.661  18.873  0.00  0.00    +0.000 NA
ENDBRANCH  19  20
BRANCH  19  26
ATOM     26  C   UNL     1       0.562  12.513  19.085  0.00  0.00    +0.000 C 
BRANCH  26  28
ATOM     27  C   UNL     1       2.701  12.605  18.123  0.00  0.00    +0.000 C 
ATOM     28  O   UNL     1       1.388  13.159  18.106  0.00  0.00    +0.000 OA
ENDBRANCH  26  28
ENDBRANCH  19  26
ENDBRANCH   1  19
BRANCH  12  29
ATOM     29  C   UNL     1       1.128   3.378  20.828  0.00  0.00    +0.000 C 
BRANCH  29  30
ATOM     30  O   UNL     1       1.758   2.591  21.849  0.00  0.00    +0.000 OA
ATOM     31  H   UNL     1       2.617   3.029  22.016  0.00  0.00    +0.000 HD
ENDBRANCH  29  30
ENDBRANCH  12  29
TORSDOF 7
ENDMDL
MODEL 4
REMARK VINA RESULT:      -7.4      1.352      1.621
REMARK  Name = 
REMARK  9 active torsions:
REMARK  status: ('A' for Active; 'I' for Inactive)
REMARK    1  A    between atoms: C_1  and  O_2
REMARK    2  A    between atoms: O_2  and  C_3
REMARK    3  A    between atoms: C_3  and  C_4
REMARK    4  A    between atoms: C_4  and  N_5
REMARK    5  A    between atoms: C_4  and  C_22
REMARK    6  A    between atoms: C_14  and  O_15
REMARK    7  A    between atoms: O_15  and  C_16
REMARK    8  A    between atoms: CA_18  and  C_19
REMARK    9  A    between atoms: C_19  and  O_20
REMARK                            x       y       z     vdW  Elec       q    Type
REMARK                         _______ _______ _______ _____ _____    ______ ____
ROOT
ATOM      1  N   UNL     1       2.955   7.350  18.011  0.00  0.00    +0.000 N 
ATOM      2  C   UNL     1       2.102   8.180  18.687  0.00  0.00    +0.000 C 
ATOM      3  O   UNL     1       1.884   8.084  19.891  0.00  0.00    +0.000 OA
ATOM      4  N   UNL     1       1.485   9.083  17.857  0.00  0.00    +0.000 N 
ATOM      5  C   UNL     1       0.578   9.994  18.408  0.00  0.00    +0.000 A 
ATOM      6  C   UNL     1       0.971  10.798  19.476  0.00  0.00    +0.000 A 
ATOM      7  C   UNL     1      -0.012  11.643  19.968  0.00  0.00    +0.000 A 
ATOM      8  N   UNL     1       0.029  12.555  20.984  0.00  0.00    +0.000 N 
ATOM      9  N   UNL     1      -1.130  13.189  21.191  0.00  0.00    +0.000 NA
ATOM     10  C   UNL     1      -1.946  12.648  20.283  0.00  0.00    +0.000 A 
ATOM     11  C   UNL     1      -1.312  11.672  19.470  0.00  0.00    +0.000 A 
ATOM     12  CA  UNL     1      -1.643  10.805  18.409  0.00  0.00    +0.000 A 
ATOM     13  N   UNL     1      -0.649  10.020  17.859  0.00  0.00    +0.000 NA
ATOM     14  H   UNL     1       3.471   7.777  17.254  0.00  0.00    +0.000 HD
ATOM     15  H   UNL     1       1.154   8.669  16.998  0.00  0.00    +0.000 HD
ATOM     16  H   UNL     1       0.821  12.793  21.572  0.00  0.00    +0.000 HD
ENDROOT
BRANCH  10  17
ATOM     17  O   UNL     1      -3.233  13.063  20.210  0.00  0.00    +0.000 OA
ATOM     18  C   UNL     1      -3.985  12.797  21.399  0.00  0.00    +0.000 C 
ENDBRANCH  10  17
BRANCH   1  19
ATOM     19  C   UNL     1       3.628   6.235  18.694  0.00  0.00    +0.000 C 
BRANCH  19  20
ATOM     20  C   UNL     1       2.664   5.090  19.007  0.00  0.00    +0.000 A 
ATOM     21  C   UNL     1       2.066   4.333  17.994  0.00  0.00    +0.000 A 
ATOM     22  C   UNL     1       1.148   3.341  18.318  0.00  0.00    +0.000 A 
ATOM     23  C   UNL     1       0.845   3.116  19.651  0.00  0.00    +0.000 A 
ATOM     24  C   UNL     1       1.476   3.897  20.605  0.00  0.00    +0.000 A 
ATOM     25  N   UNL     1       2.370   4.874  20.319  0.00  0.00    +0.000 NA
ENDBRANCH  19  20
BRANCH  19  26
ATOM     26  C   UNL     1       4.906   5.763  17.954  0.00  0.00    +0.000 C 
BRANCH  26  28
ATOM     27  C   UNL     1       5.428   5.353  15.703  0.00  0.00    +0.000 C 
ATOM     28  O   UNL     1       5.010   6.339  16.645  0.00  0.00    +0.000 OA
ENDBRANCH  26  28
ENDBRANCH  19  26
ENDBRANCH   1  19
BRANCH  12  29
ATOM     29  C   UNL     1      -3.016  10.619  17.816  0.00  0.00    +0.000 C 
BRANCH  29  30
ATOM     30  O   UNL     1      -3.502  11.870  17.307  0.00  0.00    +0.000 OA
ATOM     31  H   UNL     1      -3.139  11.935  16.401  0.00  0.00    +0.000 HD
ENDBRANCH  29  30
ENDBRANCH  12  29
TORSDOF 7
ENDMDL
MODEL 5
REMARK VINA RESULT:      -7.4      0.830      1.134
REMARK  Name = 
REMARK  9 active torsions:
REMARK  status: ('A' for Active; 'I' for Inactive)
REMARK    1  A    between atoms: C_1  and  O_2
REMARK    2  A    between atoms: O_2  and  C_3
REMARK    3  A    between atoms: C_3  and  C_4
REMARK    4  A    between atoms: C_4  and  N_5
REMARK    5  A    between atoms: C_4  and  C_22
REMARK    6  A    between atoms: C_14  and  O_15
REMARK    7  A    between atoms: O_15  and  C_16
REMARK    8  A    between atoms: CA_18  and  C_19
REMARK    9  A    between atoms: C_19  and  O_20
REMARK                            x       y       z     vdW  Elec       q    Type
REMARK                         _______ _______ _______ _____ _____    ______ ____
ROOT
ATOM      1  N   UNL     1       3.579   6.706  18.208  0.00  0.00    +0.000 N 
ATOM      2  C   UNL     1       2.590   7.495  18.733  0.00  0.00    +0.000 C 
ATOM      3  O   UNL     1       2.139   7.344  19.863  0.00  0.00    +0.000 OA
ATOM      4  N   UNL     1       2.131   8.424  17.832  0.00  0.00    +0.000 N 
ATOM      5  C   UNL     1       1.113   9.298  18.226  0.00  0.00    +0.000 A 
ATOM      6  C   UNL     1       1.268  10.061  19.382  0.00  0.00    +0.000 A 
ATOM      7  C   UNL     1       0.188  10.870  19.701  0.00  0.00    +0.000 A 
ATOM      8  N   UNL     1       0.006  11.739  20.740  0.00  0.00    +0.000 N 
ATOM      9  N   UNL     1      -1.184  12.347  20.736  0.00  0.00    +0.000 NA
ATOM     10  C   UNL     1      -1.792  11.835  19.663  0.00  0.00    +0.000 A 
ATOM     11  C   UNL     1      -0.986  10.903  18.955  0.00  0.00    +0.000 A 
ATOM     12  CA  UNL     1      -1.081  10.078  17.816  0.00  0.00    +0.000 A 
ATOM     13  N   UNL     1       0.019   9.332  17.445  0.00  0.00    +0.000 NA
ATOM     14  H   UNL     1       4.226   7.173  17.587  0.00  0.00    +0.000 HD
ATOM     15  H   UNL     1       1.987   8.044  16.908  0.00  0.00    +0.000 HD
ATOM     16  H   UNL     1       0.660  11.961  21.483  0.00  0.00    +0.000 HD
ENDROOT
BRANCH  10  17
ATOM     17  O   UNL     1      -3.047  12.235  19.351  0.00  0.00    +0.000 OA
ATOM     18  C   UNL     1      -3.712  12.910  20.423  0.00  0.00    +0.000 C 
ENDBRANCH  10  17
BRANCH   1  19
ATOM     19  C   UNL     1       4.127   5.573  18.967  0.00  0.00    +0.000 C 
BRANCH  19  20
ATOM     20  C   UNL     1       3.209   4.351  18.913  0.00  0.00    +0.000 A 
ATOM     21  C   UNL     1       3.042   3.605  17.741  0.00  0.00    +0.000 A 
ATOM     22  C   UNL     1       2.152   2.538  17.717  0.00  0.00    +0.000 A 
ATOM     23  C   UNL     1       1.444   2.228  18.866  0.00  0.00    +0.000 A 
ATOM     24  C   UNL     1       1.658   3.003  19.994  0.00  0.00    +0.000 A 
ATOM     25  N   UNL     1       2.515   4.052  20.046  0.00  0.00    +0.000 NA
ENDBRANCH  19  20
BRANCH  19  26
ATOM     26  C   UNL     1       5.591   5.244  18.580  0.00  0.00    +0.000 C 
BRANCH  26  28
ATOM     27  C   UNL     1       7.750   5.758  19.344  0.00  0.00    +0.000 C 
ATOM     28  O   UNL     1       6.464   5.269  19.718  0.00  0.00    +0.000 OA
ENDBRANCH  26  28
ENDBRANCH  19  26
ENDBRANCH   1  19
BRANCH  12  29
ATOM     29  C   UNL     1      -2.304   9.900  16.954  0.00  0.00    +0.000 C 
BRANCH  29  30
ATOM     30  O   UNL     1      -3.431   9.549  17.770  0.00  0.00    +0.000 OA
ATOM     31  H   UNL     1      -3.843  10.401  18.017  0.00  0.00    +0.000 HD
ENDBRANCH  29  30
ENDBRANCH  12  29
TORSDOF 7
ENDMDL
MODEL 6
REMARK VINA RESULT:      -7.3      2.553      8.385
REMARK  Name = 
REMARK  9 active torsions:
REMARK  status: ('A' for Active; 'I' for Inactive)
REMARK    1  A    between atoms: C_1  and  O_2
REMARK    2  A    between atoms: O_2  and  C_3
REMARK    3  A    between atoms: C_3  and  C_4
REMARK    4  A    between atoms: C_4  and  N_5
REMARK    5  A    between atoms: C_4  and  C_22
REMARK    6  A    between atoms: C_14  and  O_15
REMARK    7  A    between atoms: O_15  and  C_16
REMARK    8  A    between atoms: CA_18  and  C_19
REMARK    9  A    between atoms: C_19  and  O_20
REMARK                            x       y       z     vdW  Elec       q    Type
REMARK                         _______ _______ _______ _____ _____    ______ ____
ROOT
ATOM      1  N   UNL     1       0.991  10.014  20.860  0.00  0.00    +0.000 N 
ATOM      2  C   UNL     1       1.260   8.942  20.053  0.00  0.00    +0.000 C 
ATOM      3  O   UNL     1       0.995   8.919  18.855  0.00  0.00    +0.000 OA
ATOM      4  N   UNL     1       1.800   7.887  20.748  0.00  0.00    +0.000 N 
ATOM      5  C   UNL     1       2.121   6.717  20.054  0.00  0.00    +0.000 A 
ATOM      6  C   UNL     1       2.946   6.784  18.933  0.00  0.00    +0.000 A 
ATOM      7  C   UNL     1       3.176   5.572  18.300  0.00  0.00    +0.000 A 
ATOM      8  N   UNL     1       3.929   5.274  17.199  0.00  0.00    +0.000 N 
ATOM      9  N   UNL     1       3.907   3.981  16.860  0.00  0.00    +0.000 NA
ATOM     10  C   UNL     1       3.096   3.435  17.770  0.00  0.00    +0.000 A 
ATOM     11  C   UNL     1       2.603   4.373  18.716  0.00  0.00    +0.000 A 
ATOM     12  CA  UNL     1       1.751   4.391  19.839  0.00  0.00    +0.000 A 
ATOM     13  N   UNL     1       1.583   5.577  20.524  0.00  0.00    +0.000 NA
ATOM     14  H   UNL     1       1.661  10.184  21.598  0.00  0.00    +0.000 HD
ATOM     15  H   UNL     1       1.332   7.709  21.624  0.00  0.00    +0.000 HD
ATOM     16  H   UNL     1       4.483   5.911  16.637  0.00  0.00    +0.000 HD
ENDROOT
BRANCH  10  17
ATOM     17  O   UNL     1       2.839   2.106  17.724  0.00  0.00    +0.000 OA
ATOM     18  C   UNL     1       3.665   1.336  18.602  0.00  0.00    +0.000 C 
ENDBRANCH  10  17
BRANCH   1  19
ATOM     19  C   UNL     1       0.303  11.203  20.337  0.00  0.00    +0.000 C 
BRANCH  19  20
ATOM     20  C   UNL     1      -0.890  11.603  21.207  0.00  0.00    +0.000 A 
ATOM     21  C   UNL     1      -1.903  12.441  20.729  0.00  0.00    +0.000 A 
ATOM     22  C   UNL     1      -2.938  12.829  21.570  0.00  0.00    +0.000 A 
ATOM     23  C   UNL     1      -2.950  12.371  22.877  0.00  0.00    +0.000 A 
ATOM     24  C   UNL     1      -1.920  11.540  23.286  0.00  0.00    +0.000 A 
ATOM     25  N   UNL     1      -0.895  11.149  22.491  0.00  0.00    +0.000 NA
ENDBRANCH  19  20
BRANCH  19  26
ATOM     26  C   UNL     1       1.269  12.382  20.060  0.00  0.00    +0.000 C 
BRANCH  26  28
ATOM     27  C   UNL     1       2.634  13.103  18.292  0.00  0.00    +0.000 C 
ATOM     28  O   UNL     1       1.312  12.725  18.668  0.00  0.00    +0.000 OA
ENDBRANCH  26  28
ENDBRANCH  19  26
ENDBRANCH   1  19
BRANCH  12  29
ATOM     29  C   UNL     1       0.961   3.222  20.366  0.00  0.00    +0.000 C 
BRANCH  29  30
ATOM     30  O   UNL     1       0.169   2.652  19.314  0.00  0.00    +0.000 OA
ATOM     31  H   UNL     1       0.794   2.498  18.578  0.00  0.00    +0.000 HD
ENDBRANCH  29  30
ENDBRANCH  12  29
TORSDOF 7
ENDMDL
MODEL 7
REMARK VINA RESULT:      -7.3      2.623      8.335
REMARK  Name = 
REMARK  9 active torsions:
REMARK  status: ('A' for Active; 'I' for Inactive)
REMARK    1  A    between atoms: C_1  and  O_2
REMARK    2  A    between atoms: O_2  and  C_3
REMARK    3  A    between atoms: C_3  and  C_4
REMARK    4  A    between atoms: C_4  and  N_5
REMARK    5  A    between atoms: C_4  and  C_22
REMARK    6  A    between atoms: C_14  and  O_15
REMARK    7  A    between atoms: O_15  and  C_16
REMARK    8  A    between atoms: CA_18  and  C_19
REMARK    9  A    between atoms: C_19  and  O_20
REMARK                            x       y       z     vdW  Elec       q    Type
REMARK                         _______ _______ _______ _____ _____    ______ ____
ROOT
ATOM      1  N   UNL     1       0.833   9.883  19.197  0.00  0.00    +0.000 N 
ATOM      2  C   UNL     1       1.715   9.174  18.426  0.00  0.00    +0.000 C 
ATOM      3  O   UNL     1       2.096   9.550  17.322  0.00  0.00    +0.000 OA
ATOM      4  N   UNL     1       2.072   7.980  19.004  0.00  0.00    +0.000 N 
ATOM      5  C   UNL     1       2.964   7.144  18.327  0.00  0.00    +0.000 A 
ATOM      6  C   UNL     1       4.194   7.645  17.906  0.00  0.00    +0.000 A 
ATOM      7  C   UNL     1       4.991   6.743  17.216  0.00  0.00    +0.000 A 
ATOM      8  N   UNL     1       6.237   6.891  16.677  0.00  0.00    +0.000 N 
ATOM      9  N   UNL     1       6.697   5.796  16.063  0.00  0.00    +0.000 NA
ATOM     10  C   UNL     1       5.698   4.920  16.202  0.00  0.00    +0.000 A 
ATOM     11  C   UNL     1       4.592   5.441  16.925  0.00  0.00    +0.000 A 
ATOM     12  CA  UNL     1       3.319   5.017  17.356  0.00  0.00    +0.000 A 
ATOM     13  N   UNL     1       2.554   5.881  18.113  0.00  0.00    +0.000 NA
ATOM     14  H   UNL     1       0.984   9.828  20.194  0.00  0.00    +0.000 HD
ATOM     15  H   UNL     1       1.288   7.481  19.399  0.00  0.00    +0.000 HD
ATOM     16  H   UNL     1       6.827   7.716  16.698  0.00  0.00    +0.000 HD
ENDROOT
BRANCH  10  17
ATOM     17  O   UNL     1       5.824   3.676  15.683  0.00  0.00    +0.000 OA
ATOM     18  C   UNL     1       6.174   3.671  14.295  0.00  0.00    +0.000 C 
ENDBRANCH  10  17
BRANCH   1  19
ATOM     19  C   UNL     1       0.235  11.134  18.708  0.00  0.00    +0.000 C 
BRANCH  19  20
ATOM     20  C   UNL     1      -1.229  10.950  18.308  0.00  0.00    +0.000 A 
ATOM     21  C   UNL     1      -2.247  11.740  18.853  0.00  0.00    +0.000 A 
ATOM     22  C   UNL     1      -3.572  11.501  18.508  0.00  0.00    +0.000 A 
ATOM     23  C   UNL     1      -3.861  10.479  17.620  0.00  0.00    +0.000 A 
ATOM     24  C   UNL     1      -2.807   9.737  17.112  0.00  0.00    +0.000 A 
ATOM     25  N   UNL     1      -1.507   9.943  17.434  0.00  0.00    +0.000 NA
ENDBRANCH  19  20
BRANCH  19  26
ATOM     26  C   UNL     1       0.451  12.320  19.681  0.00  0.00    +0.000 C 
BRANCH  26  28
ATOM     27  C   UNL     1       2.130  13.138  18.260  0.00  0.00    +0.000 C 
ATOM     28  O   UNL     1       0.965  13.478  19.009  0.00  0.00    +0.000 OA
ENDBRANCH  26  28
ENDBRANCH  19  26
ENDBRANCH   1  19
BRANCH  12  29
ATOM     29  C   UNL     1       2.676   3.691  17.041  0.00  0.00    +0.000 C 
BRANCH  29  30
ATOM     30  O   UNL     1       1.332   3.668  17.544  0.00  0.00    +0.000 OA
ATOM     31  H   UNL     1       0.956   2.823  17.227  0.00  0.00    +0.000 HD
ENDBRANCH  29  30
ENDBRANCH  12  29
TORSDOF 7
ENDMDL
MODEL 8
REMARK VINA RESULT:      -7.3      2.632      8.375
REMARK  Name = 
REMARK  9 active torsions:
REMARK  status: ('A' for Active; 'I' for Inactive)
REMARK    1  A    between atoms: C_1  and  O_2
REMARK    2  A    between atoms: O_2  and  C_3
REMARK    3  A    between atoms: C_3  and  C_4
REMARK    4  A    between atoms: C_4  and  N_5
REMARK    5  A    between atoms: C_4  and  C_22
REMARK    6  A    between atoms: C_14  and  O_15
REMARK    7  A    between atoms: O_15  and  C_16
REMARK    8  A    between atoms: CA_18  and  C_19
REMARK    9  A    between atoms: C_19  and  O_20
REMARK                            x       y       z     vdW  Elec       q    Type
REMARK                         _______ _______ _______ _____ _____    ______ ____
ROOT
ATOM      1  N   UNL     1       1.010  10.052  20.913  0.00  0.00    +0.000 N 
ATOM      2  C   UNL     1       1.290   8.997  20.087  0.00  0.00    +0.000 C 
ATOM      3  O   UNL     1       1.077   9.013  18.879  0.00  0.00    +0.000 OA
ATOM      4  N   UNL     1       1.777   7.912  20.773  0.00  0.00    +0.000 N 
ATOM      5  C   UNL     1       2.103   6.754  20.060  0.00  0.00    +0.000 A 
ATOM      6  C   UNL     1       2.977   6.834  18.978  0.00  0.00    +0.000 A 
ATOM      7  C   UNL     1       3.209   5.636  18.320  0.00  0.00    +0.000 A 
ATOM      8  N   UNL     1       4.001   5.352  17.244  0.00  0.00    +0.000 N 
ATOM      9  N   UNL     1       3.967   4.070  16.867  0.00  0.00    +0.000 NA
ATOM     10  C   UNL     1       3.106   3.517  17.726  0.00  0.00    +0.000 A 
ATOM     11  C   UNL     1       2.592   4.439  18.677  0.00  0.00    +0.000 A 
ATOM     12  CA  UNL     1       1.694   4.444  19.763  0.00  0.00    +0.000 A 
ATOM     13  N   UNL     1       1.522   5.615  20.474  0.00  0.00    +0.000 NA
ATOM     14  H   UNL     1       1.651  10.186  21.682  0.00  0.00    +0.000 HD
ATOM     15  H   UNL     1       1.268   7.720  21.624  0.00  0.00    +0.000 HD
ATOM     16  H   UNL     1       4.593   5.992  16.725  0.00  0.00    +0.000 HD
ENDROOT
BRANCH  10  17
ATOM     17  O   UNL     1       2.823   2.196  17.631  0.00  0.00    +0.000 OA
ATOM     18  C   UNL     1       3.605   1.381  18.510  0.00  0.00    +0.000 C 
ENDBRANCH  10  17
BRANCH   1  19
ATOM     19  C   UNL     1       0.369  11.271  20.395  0.00  0.00    +0.000 C 
BRANCH  19  20
ATOM     20  C   UNL     1      -0.825  11.697  21.250  0.00  0.00    +0.000 A 
ATOM     21  C   UNL     1      -0.953  11.303  22.586  0.00  0.00    +0.000 A 
ATOM     22  C   UNL     1      -2.083  11.661  23.311  0.00  0.00    +0.000 A 
ATOM     23  C   UNL     1      -3.068  12.412  22.691  0.00  0.00    +0.000 A 
ATOM     24  C   UNL     1      -2.879  12.773  21.368  0.00  0.00    +0.000 A 
ATOM     25  N   UNL     1      -1.791  12.434  20.634  0.00  0.00    +0.000 NA
ENDBRANCH  19  20
BRANCH  19  26
ATOM     26  C   UNL     1       1.379  12.421  20.153  0.00  0.00    +0.000 C 
BRANCH  26  28
ATOM     27  C   UNL     1       2.527  13.605  18.483  0.00  0.00    +0.000 C 
ATOM     28  O   UNL     1       1.978  12.342  18.852  0.00  0.00    +0.000 OA
ENDBRANCH  26  28
ENDBRANCH  19  26
ENDBRANCH   1  19
BRANCH  12  29
ATOM     29  C   UNL     1       0.857   3.279  20.222  0.00  0.00    +0.000 C 
BRANCH  29  30
ATOM     30  O   UNL     1       1.430   2.702  21.405  0.00  0.00    +0.000 OA
ATOM     31  H   UNL     1       1.988   3.407  21.789  0.00  0.00    +0.000 HD
ENDBRANCH  29  30
ENDBRANCH  12  29
TORSDOF 7
ENDMDL
MODEL 9
REMARK VINA RESULT:      -7.3      2.606      8.399
REMARK  Name = 
REMARK  9 active torsions:
REMARK  status: ('A' for Active; 'I' for Inactive)
REMARK    1  A    between atoms: C_1  and  O_2
REMARK    2  A    between atoms: O_2  and  C_3
REMARK    3  A    between atoms: C_3  and  C_4
REMARK    4  A    between atoms: C_4  and  N_5
REMARK    5  A    between atoms: C_4  and  C_22
REMARK    6  A    between atoms: C_14  and  O_15
REMARK    7  A    between atoms: O_15  and  C_16
REMARK    8  A    between atoms: CA_18  and  C_19
REMARK    9  A    between atoms: C_19  and  O_20
REMARK                            x       y       z     vdW  Elec       q    Type
REMARK                         _______ _______ _______ _____ _____    ______ ____
ROOT
ATOM      1  N   UNL     1       0.890   9.843  19.330  0.00  0.00    +0.000 N 
ATOM      2  C   UNL     1       1.745   9.141  18.524  0.00  0.00    +0.000 C 
ATOM      3  O   UNL     1       2.086   9.523  17.409  0.00  0.00    +0.000 OA
ATOM      4  N   UNL     1       2.123   7.944  19.081  0.00  0.00    +0.000 N 
ATOM      5  C   UNL     1       2.992   7.112  18.368  0.00  0.00    +0.000 A 
ATOM      6  C   UNL     1       4.206   7.617  17.907  0.00  0.00    +0.000 A 
ATOM      7  C   UNL     1       4.979   6.721  17.184  0.00  0.00    +0.000 A 
ATOM      8  N   UNL     1       6.205   6.874  16.602  0.00  0.00    +0.000 N 
ATOM      9  N   UNL     1       6.643   5.783  15.965  0.00  0.00    +0.000 NA
ATOM     10  C   UNL     1       5.651   4.905  16.134  0.00  0.00    +0.000 A 
ATOM     11  C   UNL     1       4.571   5.421  16.898  0.00  0.00    +0.000 A 
ATOM     12  CA  UNL     1       3.314   4.992  17.371  0.00  0.00    +0.000 A 
ATOM     13  N   UNL     1       2.576   5.851  18.161  0.00  0.00    +0.000 NA
ATOM     14  H   UNL     1       1.077   9.783  20.321  0.00  0.00    +0.000 HD
ATOM     15  H   UNL     1       1.354   7.442  19.501  0.00  0.00    +0.000 HD
ATOM     16  H   UNL     1       6.794   7.700  16.607  0.00  0.00    +0.000 HD
ENDROOT
BRANCH  10  17
ATOM     17  O   UNL     1       5.760   3.664  15.603  0.00  0.00    +0.000 OA
ATOM     18  C   UNL     1       6.152   3.667  14.226  0.00  0.00    +0.000 C 
ENDBRANCH  10  17
BRANCH   1  19
ATOM     19  C   UNL     1       0.274  11.097  18.870  0.00  0.00    +0.000 C 
BRANCH  19  20
ATOM     20  C   UNL     1      -1.150  10.880  18.357  0.00  0.00    +0.000 A 
ATOM     21  C   UNL     1      -2.230  11.622  18.847  0.00  0.00    +0.000 A 
ATOM     22  C   UNL     1      -3.518  11.353  18.399  0.00  0.00    +0.000 A 
ATOM     23  C   UNL     1      -3.708  10.349  17.464  0.00  0.00    +0.000 A 
ATOM     24  C   UNL     1      -2.596   9.655  17.017  0.00  0.00    +0.000 A 
ATOM     25  N   UNL     1      -1.330   9.891  17.439  0.00  0.00    +0.000 NA
ENDBRANCH  19  20
BRANCH  19  26
ATOM     26  C   UNL     1       0.372  12.232  19.920  0.00  0.00    +0.000 C 
BRANCH  26  28
ATOM     27  C   UNL     1      -0.459  11.779  22.068  0.00  0.00    +0.000 C 
ATOM     28  O   UNL     1       0.690  11.729  21.225  0.00  0.00    +0.000 OA
ENDBRANCH  26  28
ENDBRANCH  19  26
ENDBRANCH   1  19
BRANCH  12  29
ATOM     29  C   UNL     1       2.662   3.668  17.072  0.00  0.00    +0.000 C 
BRANCH  29  30
ATOM     30  O   UNL     1       3.498   2.596  17.533  0.00  0.00    +0.000 OA
ATOM     31  H   UNL     1       4.399   2.827  17.232  0.00  0.00    +0.000 HD
ENDBRANCH  29  30
ENDBRANCH  12  29
TORSDOF 7
ENDMDL
