MODEL 1
REMARK VINA RESULT:      -7.1      0.000      0.000
REMARK  Name = 
REMARK  4 active torsions:
REMARK  status: ('A' for Active; 'I' for Inactive)
REMARK    1  A    between atoms: C_1  and  N_2
REMARK    2  A    between atoms: C_5  and  O_6
REMARK    3  A    between atoms: O_6  and  C_7
REMARK    4  A    between atoms: C_10  and  C_12
REMARK                            x       y       z     vdW  Elec       q    Type
REMARK                         _______ _______ _______ _____ _____    ______ ____
ROOT
ATOM      1  C   UNL     1       3.909   3.746  19.703  0.00  0.00    +0.000 C 
ATOM      2  O   UNL     1       3.247   2.751  19.967  0.00  0.00    +0.000 OA
ATOM      3  N   UNL     1       3.457   5.043  19.698  0.00  0.00    +0.000 N 
ATOM      4  C   UNL     1       2.285   5.412  20.327  0.00  0.00    +0.000 C 
ATOM      5  O   UNL     1       1.571   4.658  20.980  0.00  0.00    +0.000 OA
ATOM      6  H   UNL     1       4.107   5.730  19.352  0.00  0.00    +0.000 HD
ENDROOT
BRANCH   4   7
ATOM      7  C   UNL     1       1.863   6.840  20.257  0.00  0.00    +0.000 A 
ATOM      8  C   UNL     1       2.144   7.669  19.166  0.00  0.00    +0.000 A 
ATOM      9  C   UNL     1       1.629   8.970  19.142  0.00  0.00    +0.000 A 
ATOM     10 CL   UNL     1       1.944   9.981  17.783  0.00  0.00    +0.000 Cl
ATOM     11  C   UNL     1       0.846   9.459  20.187  0.00  0.00    +0.000 A 
ATOM     12  C   UNL     1       0.570   8.632  21.270  0.00  0.00    +0.000 A 
ATOM     13 CL   UNL     1      -0.418   9.208  22.556  0.00  0.00    +0.000 Cl
ATOM     14  C   UNL     1       1.066   7.331  21.305  0.00  0.00    +0.000 A 
ENDBRANCH   4   7
BRANCH   1  15
ATOM     15  O   UNL     1       5.218   3.686  19.303  0.00  0.00    +0.000 OA
BRANCH  15  20
ATOM     16  C   UNL     1       6.992   4.954  14.077  0.00  0.00    +0.000 C 
ATOM     17  N   UNL     1       6.684   4.348  15.375  0.00  0.00    +0.000 NA
ATOM     18  C   UNL     1       7.283   5.133  16.463  0.00  0.00    +0.000 C 
ATOM     19  C   UNL     1       6.988   4.512  17.827  0.00  0.00    +0.000 C 
ATOM     20  C   UNL     1       5.481   4.353  18.043  0.00  0.00    +0.000 C 
ATOM     21  C   UNL     1       4.891   3.549  16.883  0.00  0.00    +0.000 C 
ATOM     22  C   UNL     1       5.231   4.214  15.545  0.00  0.00    +0.000 C 
ENDBRANCH  15  20
ENDBRANCH   1  15
TORSDOF 3
ENDMDL
MODEL 2
REMARK VINA RESULT:      -6.9      4.594      8.259
REMARK  Name = 
REMARK  4 active torsions:
REMARK  status: ('A' for Active; 'I' for Inactive)
REMARK    1  A    between atoms: C_1  and  N_2
REMARK    2  A    between atoms: C_5  and  O_6
REMARK    3  A    between atoms: O_6  and  C_7
REMARK    4  A    between atoms: C_10  and  C_12
REMARK                            x       y       z     vdW  Elec       q    Type
REMARK                         _______ _______ _______ _____ _____    ______ ____
ROOT
ATOM      1  C   UNL     1       1.063   9.551  18.895  0.00  0.00    +0.000 C 
ATOM      2  O   UNL     1       1.170   9.919  20.057  0.00  0.00    +0.000 OA
ATOM      3  N   UNL     1       1.670   8.456  18.331  0.00  0.00    +0.000 N 
ATOM      4  C   UNL     1       2.205   7.440  19.098  0.00  0.00    +0.000 C 
ATOM      5  O   UNL     1       2.150   7.381  20.321  0.00  0.00    +0.000 OA
ATOM      6  H   UNL     1       1.560   8.360  17.335  0.00  0.00    +0.000 HD
ENDROOT
BRANCH   4   7
ATOM      7  C   UNL     1       2.860   6.298  18.401  0.00  0.00    +0.000 A 
ATOM      8  C   UNL     1       2.348   4.996  18.414  0.00  0.00    +0.000 A 
ATOM      9  C   UNL     1       2.977   4.004  17.653  0.00  0.00    +0.000 A 
ATOM     10 CL   UNL     1       2.328   2.408  17.641  0.00  0.00    +0.000 Cl
ATOM     11  C   UNL     1       4.109   4.285  16.888  0.00  0.00    +0.000 A 
ATOM     12  C   UNL     1       4.615   5.579  16.878  0.00  0.00    +0.000 A 
ATOM     13 CL   UNL     1       5.992   5.952  15.917  0.00  0.00    +0.000 Cl
ATOM     14  C   UNL     1       3.995   6.581  17.621  0.00  0.00    +0.000 A 
ENDBRANCH   4   7
BRANCH   1  15
ATOM     15  O   UNL     1       0.345  10.245  17.956  0.00  0.00    +0.000 OA
BRANCH  15  20
ATOM     16  C   UNL     1      -5.167  11.537  17.850  0.00  0.00    +0.000 C 
ATOM     17  N   UNL     1      -3.725  11.403  17.628  0.00  0.00    +0.000 NA
ATOM     18  C   UNL     1      -2.979  11.873  18.805  0.00  0.00    +0.000 C 
ATOM     19  C   UNL     1      -1.471  11.759  18.591  0.00  0.00    +0.000 C 
ATOM     20  C   UNL     1      -1.074  10.323  18.239  0.00  0.00    +0.000 C 
ATOM     21  C   UNL     1      -1.883   9.864  17.024  0.00  0.00    +0.000 C 
ATOM     22  C   UNL     1      -3.384  10.014  17.295  0.00  0.00    +0.000 C 
ENDBRANCH  15  20
ENDBRANCH   1  15
TORSDOF 3
ENDMDL
MODEL 3
REMARK VINA RESULT:      -6.9      4.612      8.117
REMARK  Name = 
REMARK  4 active torsions:
REMARK  status: ('A' for Active; 'I' for Inactive)
REMARK    1  A    between atoms: C_1  and  N_2
REMARK    2  A    between atoms: C_5  and  O_6
REMARK    3  A    between atoms: O_6  and  C_7
REMARK    4  A    between atoms: C_10  and  C_12
REMARK                            x       y       z     vdW  Elec       q    Type
REMARK                         _______ _______ _______ _____ _____    ______ ____
ROOT
ATOM      1  C   UNL     1       0.999   9.837  19.185  0.00  0.00    +0.000 C 
ATOM      2  O   UNL     1       1.102  10.082  20.380  0.00  0.00    +0.000 OA
ATOM      3  N   UNL     1       1.606   8.805  18.514  0.00  0.00    +0.000 N 
ATOM      4  C   UNL     1       2.135   7.713  19.174  0.00  0.00    +0.000 C 
ATOM      5  O   UNL     1       2.075   7.528  20.384  0.00  0.00    +0.000 OA
ATOM      6  H   UNL     1       1.501   8.813  17.512  0.00  0.00    +0.000 HD
ENDROOT
BRANCH   4   7
ATOM      7  C   UNL     1       2.791   6.648  18.365  0.00  0.00    +0.000 A 
ATOM      8  C   UNL     1       3.979   6.846  17.654  0.00  0.00    +0.000 A 
ATOM      9  C   UNL     1       4.575   5.764  16.998  0.00  0.00    +0.000 A 
ATOM     10 CL   UNL     1       6.057   5.999  16.150  0.00  0.00    +0.000 Cl
ATOM     11  C   UNL     1       4.005   4.492  17.032  0.00  0.00    +0.000 A 
ATOM     12  C   UNL     1       2.824   4.298  17.739  0.00  0.00    +0.000 A 
ATOM     13 CL   UNL     1       2.121   2.729  17.817  0.00  0.00    +0.000 Cl
ATOM     14  C   UNL     1       2.223   5.362  18.406  0.00  0.00    +0.000 A 
ENDBRANCH   4   7
BRANCH   1  15
ATOM     15  O   UNL     1       0.287  10.627  18.321  0.00  0.00    +0.000 OA
BRANCH  15  20
ATOM     16  C   UNL     1      -5.313  11.173  17.683  0.00  0.00    +0.000 C 
ATOM     17  N   UNL     1      -3.852  11.229  17.596  0.00  0.00    +0.000 NA
ATOM     18  C   UNL     1      -3.286  11.811  18.822  0.00  0.00    +0.000 C 
ATOM     19  C   UNL     1      -1.763  11.895  18.748  0.00  0.00    +0.000 C 
ATOM     20  C   UNL     1      -1.151  10.520  18.472  0.00  0.00    +0.000 C 
ATOM     21  C   UNL     1      -1.776   9.938  17.203  0.00  0.00    +0.000 C 
ATOM     22  C   UNL     1      -3.302   9.892  17.333  0.00  0.00    +0.000 C 
ENDBRANCH  15  20
ENDBRANCH   1  15
TORSDOF 3
ENDMDL
MODEL 4
REMARK VINA RESULT:      -6.9      4.569      8.199
REMARK  Name = 
REMARK  4 active torsions:
REMARK  status: ('A' for Active; 'I' for Inactive)
REMARK    1  A    between atoms: C_1  and  N_2
REMARK    2  A    between atoms: C_5  and  O_6
REMARK    3  A    between atoms: O_6  and  C_7
REMARK    4  A    between atoms: C_10  and  C_12
REMARK                            x       y       z     vdW  Elec       q    Type
REMARK                         _______ _______ _______ _____ _____    ______ ____
ROOT
ATOM      1  C   UNL     1       0.829  10.157  19.732  0.00  0.00    +0.000 C 
ATOM      2  O   UNL     1       1.001  10.775  20.775  0.00  0.00    +0.000 OA
ATOM      3  N   UNL     1       1.243   8.875  19.472  0.00  0.00    +0.000 N 
ATOM      4  C   UNL     1       1.605   8.004  20.481  0.00  0.00    +0.000 C 
ATOM      5  O   UNL     1       1.547   8.255  21.679  0.00  0.00    +0.000 OA
ATOM      6  H   UNL     1       1.115   8.558  18.525  0.00  0.00    +0.000 HD
ENDROOT
BRANCH   4   7
ATOM      7  C   UNL     1       2.059   6.635  20.104  0.00  0.00    +0.000 A 
ATOM      8  C   UNL     1       1.674   5.482  20.796  0.00  0.00    +0.000 A 
ATOM      9  C   UNL     1       2.071   4.229  20.316  0.00  0.00    +0.000 A 
ATOM     10 CL   UNL     1       1.569   2.806  21.148  0.00  0.00    +0.000 Cl
ATOM     11  C   UNL     1       2.849   4.107  19.165  0.00  0.00    +0.000 A 
ATOM     12  C   UNL     1       3.230   5.254  18.480  0.00  0.00    +0.000 A 
ATOM     13 CL   UNL     1       4.165   5.122  17.042  0.00  0.00    +0.000 Cl
ATOM     14  C   UNL     1       2.835   6.509  18.938  0.00  0.00    +0.000 A 
ENDBRANCH   4   7
BRANCH   1  15
ATOM     15  O   UNL     1       0.232  10.708  18.629  0.00  0.00    +0.000 OA
BRANCH  15  20
ATOM     16  C   UNL     1      -5.270  11.304  17.429  0.00  0.00    +0.000 C 
ATOM     17  N   UNL     1      -3.807  11.353  17.495  0.00  0.00    +0.000 NA
ATOM     18  C   UNL     1      -3.370  11.902  18.786  0.00  0.00    +0.000 C 
ATOM     19  C   UNL     1      -1.846  11.978  18.873  0.00  0.00    +0.000 C 
ATOM     20  C   UNL     1      -1.214  10.607  18.628  0.00  0.00    +0.000 C 
ATOM     21  C   UNL     1      -1.706  10.060  17.287  0.00  0.00    +0.000 C 
ATOM     22  C   UNL     1      -3.238  10.020  17.257  0.00  0.00    +0.000 C 
ENDBRANCH  15  20
ENDBRANCH   1  15
TORSDOF 3
ENDMDL
MODEL 5
REMARK VINA RESULT:      -6.8      6.374      8.154
REMARK  Name = 
REMARK  4 active torsions:
REMARK  status: ('A' for Active; 'I' for Inactive)
REMARK    1  A    between atoms: C_1  and  N_2
REMARK    2  A    between atoms: C_5  and  O_6
REMARK    3  A    between atoms: O_6  and  C_7
REMARK    4  A    between atoms: C_10  and  C_12
REMARK                            x       y       z     vdW  Elec       q    Type
REMARK                         _______ _______ _______ _____ _____    ______ ____
ROOT
ATOM      1  C   UNL     1       8.417   9.358  18.154  0.00  0.00    +0.000 C 
ATOM      2  O   UNL     1       9.251   9.088  19.009  0.00  0.00    +0.000 OA
ATOM      3  N   UNL     1       7.633   8.458  17.475  0.00  0.00    +0.000 N 
ATOM      4  C   UNL     1       7.447   7.165  17.922  0.00  0.00    +0.000 C 
ATOM      5  O   UNL     1       7.904   6.711  18.965  0.00  0.00    +0.000 OA
ATOM      6  H   UNL     1       7.077   8.841  16.727  0.00  0.00    +0.000 HD
ENDROOT
BRANCH   4   7
ATOM      7  C   UNL     1       6.592   6.253  17.111  0.00  0.00    +0.000 A 
ATOM      8  C   UNL     1       7.018   5.660  15.919  0.00  0.00    +0.000 A 
ATOM      9  C   UNL     1       6.183   4.742  15.272  0.00  0.00    +0.000 A 
ATOM     10 CL   UNL     1       6.722   3.984  13.821  0.00  0.00    +0.000 Cl
ATOM     11  C   UNL     1       4.931   4.411  15.789  0.00  0.00    +0.000 A 
ATOM     12  C   UNL     1       4.510   5.003  16.973  0.00  0.00    +0.000 A 
ATOM     13 CL   UNL     1       2.980   4.586  17.642  0.00  0.00    +0.000 Cl
ATOM     14  C   UNL     1       5.333   5.910  17.636  0.00  0.00    +0.000 A 
ENDBRANCH   4   7
BRANCH   1  15
ATOM     15  O   UNL     1       8.195  10.633  17.704  0.00  0.00    +0.000 OA
BRANCH  15  20
ATOM     16  C   UNL     1      11.798  14.948  18.386  0.00  0.00    +0.000 C 
ATOM     17  N   UNL     1      10.874  13.919  17.901  0.00  0.00    +0.000 NA
ATOM     18  C   UNL     1      11.427  12.578  18.143  0.00  0.00    +0.000 C 
ATOM     19  C   UNL     1      10.487  11.487  17.632  0.00  0.00    +0.000 C 
ATOM     20  C   UNL     1       9.099  11.620  18.260  0.00  0.00    +0.000 C 
ATOM     21  C   UNL     1       8.566  13.031  18.005  0.00  0.00    +0.000 C 
ATOM     22  C   UNL     1       9.555  14.078  18.528  0.00  0.00    +0.000 C 
ENDBRANCH  15  20
ENDBRANCH   1  15
TORSDOF 3
ENDMDL
MODEL 6
REMARK VINA RESULT:      -6.8      1.220      1.639
REMARK  Name = 
REMARK  4 active torsions:
REMARK  status: ('A' for Active; 'I' for Inactive)
REMARK    1  A    between atoms: C_1  and  N_2
REMARK    2  A    between atoms: C_5  and  O_6
REMARK    3  A    between atoms: O_6  and  C_7
REMARK    4  A    between atoms: C_10  and  C_12
REMARK                            x       y       z     vdW  Elec       q    Type
REMARK                         _______ _______ _______ _____ _____    ______ ____
ROOT
ATOM      1  C   UNL     1       3.770   5.326  19.617  0.00  0.00    +0.000 C 
ATOM      2  O   UNL     1       3.192   4.249  19.665  0.00  0.00    +0.000 OA
ATOM      3  N   UNL     1       3.198   6.562  19.791  0.00  0.00    +0.000 N 
ATOM      4  C   UNL     1       1.960   6.718  20.383  0.00  0.00    +0.000 C 
ATOM      5  O   UNL     1       1.284   5.807  20.848  0.00  0.00    +0.000 OA
ATOM      6  H   UNL     1       3.797   7.351  19.611  0.00  0.00    +0.000 HD
ENDROOT
BRANCH   4   7
ATOM      7  C   UNL     1       1.409   8.097  20.516  0.00  0.00    +0.000 A 
ATOM      8  C   UNL     1       1.458   9.045  19.489  0.00  0.00    +0.000 A 
ATOM      9  C   UNL     1       0.832  10.283  19.668  0.00  0.00    +0.000 A 
ATOM     10 CL   UNL     1       0.863  11.439  18.390  0.00  0.00    +0.000 Cl
ATOM     11  C   UNL     1       0.165  10.594  20.852  0.00  0.00    +0.000 A 
ATOM     12  C   UNL     1       0.118   9.650  21.871  0.00  0.00    +0.000 A 
ATOM     13 CL   UNL     1      -0.725  10.005  23.328  0.00  0.00    +0.000 Cl
ATOM     14  C   UNL     1       0.727   8.409  21.706  0.00  0.00    +0.000 A 
ENDBRANCH   4   7
BRANCH   1  15
ATOM     15  O   UNL     1       5.100   5.446  19.312  0.00  0.00    +0.000 OA
BRANCH  15  20
ATOM     16  C   UNL     1       7.196   4.987  14.071  0.00  0.00    +0.000 C 
ATOM     17  N   UNL     1       6.804   5.389  15.424  0.00  0.00    +0.000 NA
ATOM     18  C   UNL     1       5.342   5.508  15.522  0.00  0.00    +0.000 C 
ATOM     19  C   UNL     1       4.911   5.942  16.922  0.00  0.00    +0.000 C 
ATOM     20  C   UNL     1       5.445   4.978  17.984  0.00  0.00    +0.000 C 
ATOM     21  C   UNL     1       6.964   4.864  17.839  0.00  0.00    +0.000 C 
ATOM     22  C   UNL     1       7.333   4.440  16.413  0.00  0.00    +0.000 C 
ENDBRANCH  15  20
ENDBRANCH   1  15
TORSDOF 3
ENDMDL
MODEL 7
REMARK VINA RESULT:      -6.8      4.475      8.378
REMARK  Name = 
REMARK  4 active torsions:
REMARK  status: ('A' for Active; 'I' for Inactive)
REMARK    1  A    between atoms: C_1  and  N_2
REMARK    2  A    between atoms: C_5  and  O_6
REMARK    3  A    between atoms: O_6  and  C_7
REMARK    4  A    between atoms: C_10  and  C_12
REMARK                            x       y       z     vdW  Elec       q    Type
REMARK                         _______ _______ _______ _____ _____    ______ ____
ROOT
ATOM      1  C   UNL     1       6.843   4.982  16.209  0.00  0.00    +0.000 C 
ATOM      2  O   UNL     1       7.489   6.016  16.095  0.00  0.00    +0.000 OA
ATOM      3  N   UNL     1       6.240   4.287  15.190  0.00  0.00    +0.000 N 
ATOM      4  C   UNL     1       6.579   4.488  13.866  0.00  0.00    +0.000 C 
ATOM      5  O   UNL     1       7.462   5.243  13.474  0.00  0.00    +0.000 OA
ATOM      6  H   UNL     1       5.657   3.516  15.472  0.00  0.00    +0.000 HD
ENDROOT
BRANCH   4   7
ATOM      7  C   UNL     1       5.860   3.701  12.825  0.00  0.00    +0.000 A 
ATOM      8  C   UNL     1       4.804   4.216  12.067  0.00  0.00    +0.000 A 
ATOM      9  C   UNL     1       4.248   3.438  11.045  0.00  0.00    +0.000 A 
ATOM     10 CL   UNL     1       2.970   4.085  10.088  0.00  0.00    +0.000 Cl
ATOM     11  C   UNL     1       4.721   2.155  10.772  0.00  0.00    +0.000 A 
ATOM     12  C   UNL     1       5.770   1.645  11.528  0.00  0.00    +0.000 A 
ATOM     13 CL   UNL     1       6.387   0.076  11.187  0.00  0.00    +0.000 Cl
ATOM     14  C   UNL     1       6.342   2.410  12.541  0.00  0.00    +0.000 A 
ENDBRANCH   4   7
BRANCH   1  15
ATOM     15  O   UNL     1       6.578   4.397  17.419  0.00  0.00    +0.000 OA
BRANCH  15  20
ATOM     16  C   UNL     1       1.837   5.218  20.404  0.00  0.00    +0.000 C 
ATOM     17  N   UNL     1       3.208   5.087  19.906  0.00  0.00    +0.000 NA
ATOM     18  C   UNL     1       3.475   3.701  19.494  0.00  0.00    +0.000 C 
ATOM     19  C   UNL     1       4.906   3.536  18.985  0.00  0.00    +0.000 C 
ATOM     20  C   UNL     1       5.194   4.504  17.836  0.00  0.00    +0.000 C 
ATOM     21  C   UNL     1       4.888   5.931  18.294  0.00  0.00    +0.000 C 
ATOM     22  C   UNL     1       3.446   6.029  18.804  0.00  0.00    +0.000 C 
ENDBRANCH  15  20
ENDBRANCH   1  15
TORSDOF 3
ENDMDL
MODEL 8
REMARK VINA RESULT:      -6.8      6.257      8.410
REMARK  Name = 
REMARK  4 active torsions:
REMARK  status: ('A' for Active; 'I' for Inactive)
REMARK    1  A    between atoms: C_1  and  N_2
REMARK    2  A    between atoms: C_5  and  O_6
REMARK    3  A    between atoms: O_6  and  C_7
REMARK    4  A    between atoms: C_10  and  C_12
REMARK                            x       y       z     vdW  Elec       q    Type
REMARK                         _______ _______ _______ _____ _____    ______ ____
ROOT
ATOM      1  C   UNL     1       8.349   9.141  18.076  0.00  0.00    +0.000 C 
ATOM      2  O   UNL     1       9.080   8.958  19.041  0.00  0.00    +0.000 OA
ATOM      3  N   UNL     1       7.670   8.173  17.379  0.00  0.00    +0.000 N 
ATOM      4  C   UNL     1       7.459   6.910  17.897  0.00  0.00    +0.000 C 
ATOM      5  O   UNL     1       7.796   6.546  19.017  0.00  0.00    +0.000 OA
ATOM      6  H   UNL     1       7.200   8.485  16.545  0.00  0.00    +0.000 HD
ENDROOT
BRANCH   4   7
ATOM      7  C   UNL     1       6.725   5.918  17.061  0.00  0.00    +0.000 A 
ATOM      8  C   UNL     1       5.551   5.283  17.479  0.00  0.00    +0.000 A 
ATOM      9  C   UNL     1       4.876   4.436  16.593  0.00  0.00    +0.000 A 
ATOM     10 CL   UNL     1       3.411   3.681  17.093  0.00  0.00    +0.000 Cl
ATOM     11  C   UNL     1       5.354   4.206  15.303  0.00  0.00    +0.000 A 
ATOM     12  C   UNL     1       6.522   4.838  14.892  0.00  0.00    +0.000 A 
ATOM     13 CL   UNL     1       7.113   4.590  13.295  0.00  0.00    +0.000 Cl
ATOM     14  C   UNL     1       7.200   5.693  15.757  0.00  0.00    +0.000 A 
ENDBRANCH   4   7
BRANCH   1  15
ATOM     15  O   UNL     1       8.157  10.374  17.510  0.00  0.00    +0.000 OA
BRANCH  15  20
ATOM     16  C   UNL     1      11.460  14.888  18.391  0.00  0.00    +0.000 C 
ATOM     17  N   UNL     1      10.650  13.792  17.854  0.00  0.00    +0.000 NA
ATOM     18  C   UNL     1      11.221  12.494  18.241  0.00  0.00    +0.000 C 
ATOM     19  C   UNL     1      10.402  11.334  17.678  0.00  0.00    +0.000 C 
ATOM     20  C   UNL     1       8.940  11.431  18.118  0.00  0.00    +0.000 C 
ATOM     21  C   UNL     1       8.386  12.799  17.717  0.00  0.00    +0.000 C 
ATOM     22  C   UNL     1       9.256  13.919  18.299  0.00  0.00    +0.000 C 
ENDBRANCH  15  20
ENDBRANCH   1  15
TORSDOF 3
ENDMDL
MODEL 9
REMARK VINA RESULT:      -6.6      3.972      7.911
REMARK  Name = 
REMARK  4 active torsions:
REMARK  status: ('A' for Active; 'I' for Inactive)
REMARK    1  A    between atoms: C_1  and  N_2
REMARK    2  A    between atoms: C_5  and  O_6
REMARK    3  A    between atoms: O_6  and  C_7
REMARK    4  A    between atoms: C_10  and  C_12
REMARK                            x       y       z     vdW  Elec       q    Type
REMARK                         _______ _______ _______ _____ _____    ______ ____
ROOT
ATOM      1  C   UNL     1       1.513   8.498  20.334  0.00  0.00    +0.000 C 
ATOM      2  O   UNL     1       1.279   8.269  21.513  0.00  0.00    +0.000 OA
ATOM      3  N   UNL     1       2.141   7.653  19.453  0.00  0.00    +0.000 N 
ATOM      4  C   UNL     1       2.281   6.303  19.707  0.00  0.00    +0.000 C 
ATOM      5  O   UNL     1       1.827   5.723  20.687  0.00  0.00    +0.000 OA
ATOM      6  H   UNL     1       2.350   8.042  18.548  0.00  0.00    +0.000 HD
ENDROOT
BRANCH   4   7
ATOM      7  C   UNL     1       2.993   5.465  18.701  0.00  0.00    +0.000 A 
ATOM      8  C   UNL     1       3.786   5.999  17.681  0.00  0.00    +0.000 A 
ATOM      9  C   UNL     1       4.494   5.135  16.838  0.00  0.00    +0.000 A 
ATOM     10 CL   UNL     1       5.498   5.792  15.602  0.00  0.00    +0.000 Cl
ATOM     11  C   UNL     1       4.420   3.751  16.991  0.00  0.00    +0.000 A 
ATOM     12  C   UNL     1       3.631   3.223  18.006  0.00  0.00    +0.000 A 
ATOM     13 CL   UNL     1       3.550   1.519  18.229  0.00  0.00    +0.000 Cl
ATOM     14  C   UNL     1       2.928   4.069  18.860  0.00  0.00    +0.000 A 
ENDBRANCH   4   7
BRANCH   1  15
ATOM     15  O   UNL     1       1.220   9.695  19.734  0.00  0.00    +0.000 OA
BRANCH  15  20
ATOM     16  C   UNL     1      -3.474  12.842  20.094  0.00  0.00    +0.000 C 
ATOM     17  N   UNL     1      -2.132  12.295  19.878  0.00  0.00    +0.000 NA
ATOM     18  C   UNL     1      -1.529  11.894  21.158  0.00  0.00    +0.000 C 
ATOM     19  C   UNL     1      -0.121  11.335  20.960  0.00  0.00    +0.000 C 
ATOM     20  C   UNL     1      -0.130  10.162  19.977  0.00  0.00    +0.000 C 
ATOM     21  C   UNL     1      -0.781  10.611  18.668  0.00  0.00    +0.000 C 
ATOM     22  C   UNL     1      -2.182  11.172  18.933  0.00  0.00    +0.000 C 
ENDBRANCH  15  20
ENDBRANCH   1  15
TORSDOF 3
ENDMDL
