MODEL 1
REMARK VINA RESULT:      -8.6      0.000      0.000
REMARK  Name = 
REMARK  6 active torsions:
REMARK  status: ('A' for Active; 'I' for Inactive)
REMARK    1  A    between atoms: N_1  and  C_2
REMARK    2  A    between atoms: C_5  and  N_6
REMARK    3  A    between atoms: N_6  and  C_7
REMARK    4  A    between atoms: C_10  and  C_11
REMARK    5  A    between atoms: C_15  and  S_16
REMARK    6  A    between atoms: S_16  and  N_17
REMARK                            x       y       z     vdW  Elec       q    Type
REMARK                         _______ _______ _______ _____ _____    ______ ____
ROOT
ATOM      1  C   UNL     1       1.236  10.170  18.436  0.00  0.00    +0.000 A 
ATOM      2  N   UNL     1       2.003   9.904  17.360  0.00  0.00    +0.000 NA
ATOM      3  N   UNL     1       2.638   8.705  17.235  0.00  0.00    +0.000 NA
ATOM      4  C   UNL     1       2.572   7.774  18.217  0.00  0.00    +0.000 A 
ATOM      5  C   UNL     1       1.833   8.019  19.395  0.00  0.00    +0.000 A 
ATOM      6  C   UNL     1       1.813   7.157  20.524  0.00  0.00    +0.000 A 
ATOM      7  C   UNL     1       0.988   7.389  21.623  0.00  0.00    +0.000 A 
ATOM      8  C   UNL     1       0.189   8.520  21.649  0.00  0.00    +0.000 A 
ATOM      9  C   UNL     1       0.259   9.437  20.601  0.00  0.00    +0.000 A 
ATOM     10  C   UNL     1       1.084   9.220  19.468  0.00  0.00    +0.000 A 
ENDROOT
BRANCH   4  11
ATOM     11  C   UNL     1       3.313   6.531  17.884  0.00  0.00    +0.000 A 
ATOM     12  C   UNL     1       2.723   5.252  17.897  0.00  0.00    +0.000 A 
ATOM     13  C   UNL     1       3.449   4.093  17.593  0.00  0.00    +0.000 A 
ATOM     14  C   UNL     1       4.770   4.191  17.175  0.00  0.00    +0.000 A 
ATOM     15  C   UNL     1       5.347   5.453  17.067  0.00  0.00    +0.000 A 
ATOM     16  C   UNL     1       4.647   6.605  17.449  0.00  0.00    +0.000 A 
BRANCH  15  17
ATOM     17  S   UNL     1       6.925   5.649  16.306  0.00  0.00    +0.000 S 
ATOM     18  O   UNL     1       6.803   5.373  14.898  0.00  0.00    +0.000 OA
ATOM     19  O   UNL     1       7.562   6.840  16.822  0.00  0.00    +0.000 OA
BRANCH  17  20
ATOM     20  N   UNL     1       7.760   4.362  16.986  0.00  0.00    +0.000 NA
ATOM     21  H   UNL     1       7.141   3.768  17.537  0.00  0.00    +0.000 HD
ATOM     22  H   UNL     1       8.326   3.879  16.289  0.00  0.00    +0.000 HD
ENDBRANCH  17  20
ENDBRANCH  15  17
ENDBRANCH   4  11
BRANCH   1  23
ATOM     23  N   UNL     1       0.593  11.431  18.520  0.00  0.00    +0.000 N 
ATOM     24  H   UNL     1       1.121  12.046  19.126  0.00  0.00    +0.000 HD
BRANCH  23  28
ATOM     25  C   UNL     1      -3.623  11.882  18.799  0.00  0.00    +0.000 A 
ATOM     26  C   UNL     1      -3.051  11.037  17.845  0.00  0.00    +0.000 A 
ATOM     27  C   UNL     1      -1.658  10.921  17.727  0.00  0.00    +0.000 A 
ATOM     28  C   UNL     1      -0.804  11.636  18.573  0.00  0.00    +0.000 A 
ATOM     29  C   UNL     1      -1.388  12.434  19.565  0.00  0.00    +0.000 A 
ATOM     30  C   UNL     1      -2.778  12.541  19.688  0.00  0.00    +0.000 A 
BRANCH  25  31
ATOM     31  N   UNL     1      -5.005  11.869  19.021  0.00  0.00    +0.000 N 
ATOM     32  H   UNL     1      -5.267  11.621  19.969  0.00  0.00    +0.000 HD
ATOM     33  H   UNL     1      -5.525  11.343  18.325  0.00  0.00    +0.000 HD
ENDBRANCH  25  31
ENDBRANCH  23  28
ENDBRANCH   1  23
TORSDOF 6
ENDMDL
MODEL 2
REMARK VINA RESULT:      -8.6      2.327      3.378
REMARK  Name = 
REMARK  6 active torsions:
REMARK  status: ('A' for Active; 'I' for Inactive)
REMARK    1  A    between atoms: N_1  and  C_2
REMARK    2  A    between atoms: C_5  and  N_6
REMARK    3  A    between atoms: N_6  and  C_7
REMARK    4  A    between atoms: C_10  and  C_11
REMARK    5  A    between atoms: C_15  and  S_16
REMARK    6  A    between atoms: S_16  and  N_17
REMARK                            x       y       z     vdW  Elec       q    Type
REMARK                         _______ _______ _______ _____ _____    ______ ____
ROOT
ATOM      1  C   UNL     1       1.453  10.333  18.458  0.00  0.00    +0.000 A 
ATOM      2  N   UNL     1       2.188   9.940  17.398  0.00  0.00    +0.000 NA
ATOM      3  N   UNL     1       2.647   8.661  17.304  0.00  0.00    +0.000 NA
ATOM      4  C   UNL     1       2.437   7.768  18.300  0.00  0.00    +0.000 A 
ATOM      5  C   UNL     1       1.727   8.138  19.463  0.00  0.00    +0.000 A 
ATOM      6  C   UNL     1       1.569   7.310  20.606  0.00  0.00    +0.000 A 
ATOM      7  C   UNL     1       0.773   7.678  21.689  0.00  0.00    +0.000 A 
ATOM      8  C   UNL     1       0.143   8.911  21.683  0.00  0.00    +0.000 A 
ATOM      9  C   UNL     1       0.356   9.788  20.621  0.00  0.00    +0.000 A 
ATOM     10  C   UNL     1       1.155   9.435  19.504  0.00  0.00    +0.000 A 
ENDROOT
BRANCH   4  11
ATOM     11  C   UNL     1       2.998   6.426  18.000  0.00  0.00    +0.000 A 
ATOM     12  C   UNL     1       2.217   5.254  17.958  0.00  0.00    +0.000 A 
ATOM     13  C   UNL     1       2.774   3.998  17.687  0.00  0.00    +0.000 A 
ATOM     14  C   UNL     1       4.119   3.891  17.356  0.00  0.00    +0.000 A 
ATOM     15  C   UNL     1       4.890   5.049  17.301  0.00  0.00    +0.000 A 
ATOM     16  C   UNL     1       4.352   6.293  17.652  0.00  0.00    +0.000 A 
BRANCH  15  17
ATOM     17  S   UNL     1       6.525   5.000  16.646  0.00  0.00    +0.000 S 
ATOM     18  O   UNL     1       6.573   4.032  15.581  0.00  0.00    +0.000 OA
ATOM     19  O   UNL     1       7.028   6.348  16.509  0.00  0.00    +0.000 OA
BRANCH  17  20
ATOM     20  N   UNL     1       7.360   4.339  17.944  0.00  0.00    +0.000 NA
ATOM     21  H   UNL     1       8.343   4.610  17.929  0.00  0.00    +0.000 HD
ATOM     22  H   UNL     1       6.872   4.506  18.822  0.00  0.00    +0.000 HD
ENDBRANCH  17  20
ENDBRANCH  15  17
ENDBRANCH   4  11
BRANCH   1  23
ATOM     23  N   UNL     1       0.996  11.675  18.510  0.00  0.00    +0.000 N 
ATOM     24  H   UNL     1       0.398  11.864  17.716  0.00  0.00    +0.000 HD
BRANCH  23  28
ATOM     25  C   UNL     1       3.464  14.890  19.788  0.00  0.00    +0.000 A 
ATOM     26  C   UNL     1       2.792  14.086  20.712  0.00  0.00    +0.000 A 
ATOM     27  C   UNL     1       1.945  13.051  20.288  0.00  0.00    +0.000 A 
ATOM     28  C   UNL     1       1.763  12.786  18.927  0.00  0.00    +0.000 A 
ATOM     29  C   UNL     1       2.488  13.558  18.009  0.00  0.00    +0.000 A 
ATOM     30  C   UNL     1       3.339  14.584  18.435  0.00  0.00    +0.000 A 
BRANCH  25  31
ATOM     31  N   UNL     1       4.428  15.809  20.215  0.00  0.00    +0.000 N 
ATOM     32  H   UNL     1       4.588  16.570  19.563  0.00  0.00    +0.000 HD
ATOM     33  H   UNL     1       5.294  15.378  20.525  0.00  0.00    +0.000 HD
ENDBRANCH  25  31
ENDBRANCH  23  28
ENDBRANCH   1  23
TORSDOF 6
ENDMDL
MODEL 3
REMARK VINA RESULT:      -8.5      2.790      3.798
REMARK  Name = 
REMARK  6 active torsions:
REMARK  status: ('A' for Active; 'I' for Inactive)
REMARK    1  A    between atoms: N_1  and  C_2
REMARK    2  A    between atoms: C_5  and  N_6
REMARK    3  A    between atoms: N_6  and  C_7
REMARK    4  A    between atoms: C_10  and  C_11
REMARK    5  A    between atoms: C_15  and  S_16
REMARK    6  A    between atoms: S_16  and  N_17
REMARK                            x       y       z     vdW  Elec       q    Type
REMARK                         _______ _______ _______ _____ _____    ______ ____
ROOT
ATOM      1  C   UNL     1       0.914  10.587  18.766  0.00  0.00    +0.000 A 
ATOM      2  N   UNL     1       1.567   9.729  17.957  0.00  0.00    +0.000 NA
ATOM      3  N   UNL     1       1.909   8.483  18.392  0.00  0.00    +0.000 NA
ATOM      4  C   UNL     1       1.664   8.097  19.667  0.00  0.00    +0.000 A 
ATOM      5  C   UNL     1       1.037   8.973  20.578  0.00  0.00    +0.000 A 
ATOM      6  C   UNL     1       0.856   8.699  21.961  0.00  0.00    +0.000 A 
ATOM      7  C   UNL     1       0.140   9.550  22.801  0.00  0.00    +0.000 A 
ATOM      8  C   UNL     1      -0.380  10.729  22.294  0.00  0.00    +0.000 A 
ATOM      9  C   UNL     1      -0.137  11.075  20.966  0.00  0.00    +0.000 A 
ATOM     10  C   UNL     1       0.582  10.223  20.089  0.00  0.00    +0.000 A 
ENDROOT
BRANCH   4  11
ATOM     11  C   UNL     1       2.093   6.701  19.939  0.00  0.00    +0.000 A 
ATOM     12  C   UNL     1       1.255   5.737  20.532  0.00  0.00    +0.000 A 
ATOM     13  C   UNL     1       1.690   4.431  20.792  0.00  0.00    +0.000 A 
ATOM     14  C   UNL     1       2.952   4.024  20.378  0.00  0.00    +0.000 A 
ATOM     15  C   UNL     1       3.763   4.935  19.707  0.00  0.00    +0.000 A 
ATOM     16  C   UNL     1       3.360   6.263  19.521  0.00  0.00    +0.000 A 
BRANCH  15  17
ATOM     17  S   UNL     1       5.260   4.401  18.944  0.00  0.00    +0.000 S 
ATOM     18  O   UNL     1       5.105   4.468  17.514  0.00  0.00    +0.000 OA
ATOM     19  O   UNL     1       6.387   4.978  19.641  0.00  0.00    +0.000 OA
BRANCH  17  20
ATOM     20  N   UNL     1       5.259   2.775  19.359  0.00  0.00    +0.000 NA
ATOM     21  H   UNL     1       4.311   2.401  19.392  0.00  0.00    +0.000 HD
ATOM     22  H   UNL     1       5.919   2.247  18.791  0.00  0.00    +0.000 HD
ENDBRANCH  17  20
ENDBRANCH  15  17
ENDBRANCH   4  11
BRANCH   1  23
ATOM     23  N   UNL     1       0.577  11.871  18.268  0.00  0.00    +0.000 N 
ATOM     24  H   UNL     1       0.207  11.788  17.329  0.00  0.00    +0.000 HD
BRANCH  23  28
ATOM     25  C   UNL     1       2.767  15.482  18.736  0.00  0.00    +0.000 A 
ATOM     26  C   UNL     1       3.384  14.322  18.260  0.00  0.00    +0.000 A 
ATOM     27  C   UNL     1       2.669  13.120  18.145  0.00  0.00    +0.000 A 
ATOM     28  C   UNL     1       1.315  13.055  18.489  0.00  0.00    +0.000 A 
ATOM     29  C   UNL     1       0.691  14.237  18.908  0.00  0.00    +0.000 A 
ATOM     30  C   UNL     1       1.404  15.437  19.014  0.00  0.00    +0.000 A 
BRANCH  25  31
ATOM     31  N   UNL     1       3.437  16.709  18.695  0.00  0.00    +0.000 N 
ATOM     32  H   UNL     1       2.980  17.445  19.224  0.00  0.00    +0.000 HD
ATOM     33  H   UNL     1       3.686  17.007  17.757  0.00  0.00    +0.000 HD
ENDBRANCH  25  31
ENDBRANCH  23  28
ENDBRANCH   1  23
TORSDOF 6
ENDMDL
MODEL 4
REMARK VINA RESULT:      -8.5      4.036      8.357
REMARK  Name = 
REMARK  6 active torsions:
REMARK  status: ('A' for Active; 'I' for Inactive)
REMARK    1  A    between atoms: N_1  and  C_2
REMARK    2  A    between atoms: C_5  and  N_6
REMARK    3  A    between atoms: N_6  and  C_7
REMARK    4  A    between atoms: C_10  and  C_11
REMARK    5  A    between atoms: C_15  and  S_16
REMARK    6  A    between atoms: S_16  and  N_17
REMARK                            x       y       z     vdW  Elec       q    Type
REMARK                         _______ _______ _______ _____ _____    ______ ____
ROOT
ATOM      1  C   UNL     1       3.724   4.733  17.768  0.00  0.00    +0.000 A 
ATOM      2  N   UNL     1       3.827   6.047  17.482  0.00  0.00    +0.000 NA
ATOM      3  N   UNL     1       3.183   6.978  18.239  0.00  0.00    +0.000 NA
ATOM      4  C   UNL     1       2.368   6.610  19.256  0.00  0.00    +0.000 A 
ATOM      5  C   UNL     1       2.172   5.246  19.565  0.00  0.00    +0.000 A 
ATOM      6  C   UNL     1       1.244   4.766  20.528  0.00  0.00    +0.000 A 
ATOM      7  C   UNL     1       1.158   3.418  20.872  0.00  0.00    +0.000 A 
ATOM      8  C   UNL     1       1.970   2.498  20.231  0.00  0.00    +0.000 A 
ATOM      9  C   UNL     1       2.823   2.923  19.213  0.00  0.00    +0.000 A 
ATOM     10  C   UNL     1       2.933   4.289  18.849  0.00  0.00    +0.000 A 
ENDROOT
BRANCH   4  11
ATOM     11  C   UNL     1       1.775   7.769  19.970  0.00  0.00    +0.000 A 
ATOM     12  C   UNL     1       1.602   7.811  21.368  0.00  0.00    +0.000 A 
ATOM     13  C   UNL     1       1.026   8.911  22.014  0.00  0.00    +0.000 A 
ATOM     14  C   UNL     1       0.690  10.046  21.287  0.00  0.00    +0.000 A 
ATOM     15  C   UNL     1       0.937  10.062  19.918  0.00  0.00    +0.000 A 
ATOM     16  C   UNL     1       1.436   8.932  19.259  0.00  0.00    +0.000 A 
BRANCH  15  17
ATOM     17  S   UNL     1       0.765  11.557  18.999  0.00  0.00    +0.000 S 
ATOM     18  O   UNL     1      -0.511  11.550  18.330  0.00  0.00    +0.000 OA
ATOM     19  O   UNL     1       1.229  12.668  19.798  0.00  0.00    +0.000 OA
BRANCH  17  20
ATOM     20  N   UNL     1       1.936  11.332  17.818  0.00  0.00    +0.000 NA
ATOM     21  H   UNL     1       1.744  10.501  17.259  0.00  0.00    +0.000 HD
ATOM     22  H   UNL     1       2.098  12.189  17.290  0.00  0.00    +0.000 HD
ENDBRANCH  17  20
ENDBRANCH  15  17
ENDBRANCH   4  11
BRANCH   1  23
ATOM     23  N   UNL     1       4.416   3.802  16.953  0.00  0.00    +0.000 N 
ATOM     24  H   UNL     1       4.594   2.954  17.476  0.00  0.00    +0.000 HD
BRANCH  23  28
ATOM     25  C   UNL     1       7.380   4.956  14.134  0.00  0.00    +0.000 A 
ATOM     26  C   UNL     1       6.148   4.447  13.716  0.00  0.00    +0.000 A 
ATOM     27  C   UNL     1       5.186   4.029  14.648  0.00  0.00    +0.000 A 
ATOM     28  C   UNL     1       5.430   4.124  16.022  0.00  0.00    +0.000 A 
ATOM     29  C   UNL     1       6.644   4.691  16.431  0.00  0.00    +0.000 A 
ATOM     30  C   UNL     1       7.598   5.117  15.500  0.00  0.00    +0.000 A 
BRANCH  25  31
ATOM     31  N   UNL     1       8.265   5.521  13.210  0.00  0.00    +0.000 N 
ATOM     32  H   UNL     1       8.646   4.855  12.546  0.00  0.00    +0.000 HD
ATOM     33  H   UNL     1       8.984   6.099  13.634  0.00  0.00    +0.000 HD
ENDBRANCH  25  31
ENDBRANCH  23  28
ENDBRANCH   1  23
TORSDOF 6
ENDMDL
MODEL 5
REMARK VINA RESULT:      -8.5      1.526      1.831
REMARK  Name = 
REMARK  6 active torsions:
REMARK  status: ('A' for Active; 'I' for Inactive)
REMARK    1  A    between atoms: N_1  and  C_2
REMARK    2  A    between atoms: C_5  and  N_6
REMARK    3  A    between atoms: N_6  and  C_7
REMARK    4  A    between atoms: C_10  and  C_11
REMARK    5  A    between atoms: C_15  and  S_16
REMARK    6  A    between atoms: S_16  and  N_17
REMARK                            x       y       z     vdW  Elec       q    Type
REMARK                         _______ _______ _______ _____ _____    ______ ____
ROOT
ATOM      1  C   UNL     1       0.239  10.345  18.661  0.00  0.00    +0.000 A 
ATOM      2  N   UNL     1       0.851   9.618  17.705  0.00  0.00    +0.000 NA
ATOM      3  N   UNL     1       1.528   8.479  18.020  0.00  0.00    +0.000 NA
ATOM      4  C   UNL     1       1.664   8.081  19.308  0.00  0.00    +0.000 A 
ATOM      5  C   UNL     1       1.097   8.834  20.359  0.00  0.00    +0.000 A 
ATOM      6  C   UNL     1       1.295   8.562  21.739  0.00  0.00    +0.000 A 
ATOM      7  C   UNL     1       0.632   9.270  22.740  0.00  0.00    +0.000 A 
ATOM      8  C   UNL     1      -0.218  10.306  22.393  0.00  0.00    +0.000 A 
ATOM      9  C   UNL     1      -0.359  10.662  21.053  0.00  0.00    +0.000 A 
ATOM     10  C   UNL     1       0.298   9.953  20.015  0.00  0.00    +0.000 A 
ENDROOT
BRANCH   4  11
ATOM     11  C   UNL     1       2.418   6.808  19.442  0.00  0.00    +0.000 A 
ATOM     12  C   UNL     1       2.038   5.773  20.319  0.00  0.00    +0.000 A 
ATOM     13  C   UNL     1       2.776   4.589  20.438  0.00  0.00    +0.000 A 
ATOM     14  C   UNL     1       3.868   4.366  19.609  0.00  0.00    +0.000 A 
ATOM     15  C   UNL     1       4.208   5.336  18.671  0.00  0.00    +0.000 A 
ATOM     16  C   UNL     1       3.520   6.555  18.609  0.00  0.00    +0.000 A 
BRANCH  15  17
ATOM     17  S   UNL     1       5.419   4.997  17.436  0.00  0.00    +0.000 S 
ATOM     18  O   UNL     1       4.890   4.022  16.518  0.00  0.00    +0.000 OA
ATOM     19  O   UNL     1       6.026   6.236  17.005  0.00  0.00    +0.000 OA
BRANCH  17  20
ATOM     20  N   UNL     1       6.589   4.219  18.354  0.00  0.00    +0.000 NA
ATOM     21  H   UNL     1       6.197   3.848  19.219  0.00  0.00    +0.000 HD
ATOM     22  H   UNL     1       7.119   3.554  17.792  0.00  0.00    +0.000 HD
ENDBRANCH  17  20
ENDBRANCH  15  17
ENDBRANCH   4  11
BRANCH   1  23
ATOM     23  N   UNL     1      -0.456  11.521  18.283  0.00  0.00    +0.000 N 
ATOM     24  H   UNL     1      -0.100  12.313  18.803  0.00  0.00    +0.000 HD
BRANCH  23  28
ATOM     25  C   UNL     1      -4.628  11.559  17.475  0.00  0.00    +0.000 A 
ATOM     26  C   UNL     1      -3.712  11.132  16.511  0.00  0.00    +0.000 A 
ATOM     27  C   UNL     1      -2.332  11.158  16.765  0.00  0.00    +0.000 A 
ATOM     28  C   UNL     1      -1.837  11.600  17.996  0.00  0.00    +0.000 A 
ATOM     29  C   UNL     1      -2.767  11.970  18.977  0.00  0.00    +0.000 A 
ATOM     30  C   UNL     1      -4.143  11.934  18.726  0.00  0.00    +0.000 A 
BRANCH  25  31
ATOM     31  N   UNL     1      -6.001  11.378  17.279  0.00  0.00    +0.000 N 
ATOM     32  H   UNL     1      -6.263  11.241  16.309  0.00  0.00    +0.000 HD
ATOM     33  H   UNL     1      -6.575  12.078  17.739  0.00  0.00    +0.000 HD
ENDBRANCH  25  31
ENDBRANCH  23  28
ENDBRANCH   1  23
TORSDOF 6
ENDMDL
MODEL 6
REMARK VINA RESULT:      -8.5      1.069      1.247
REMARK  Name = 
REMARK  6 active torsions:
REMARK  status: ('A' for Active; 'I' for Inactive)
REMARK    1  A    between atoms: N_1  and  C_2
REMARK    2  A    between atoms: C_5  and  N_6
REMARK    3  A    between atoms: N_6  and  C_7
REMARK    4  A    between atoms: C_10  and  C_11
REMARK    5  A    between atoms: C_15  and  S_16
REMARK    6  A    between atoms: S_16  and  N_17
REMARK                            x       y       z     vdW  Elec       q    Type
REMARK                         _______ _______ _______ _____ _____    ______ ____
ROOT
ATOM      1  C   UNL     1       0.932  10.041  18.349  0.00  0.00    +0.000 A 
ATOM      2  N   UNL     1       1.738   9.671  17.333  0.00  0.00    +0.000 NA
ATOM      3  N   UNL     1       2.456   8.515  17.397  0.00  0.00    +0.000 NA
ATOM      4  C   UNL     1       2.435   7.740  18.508  0.00  0.00    +0.000 A 
ATOM      5  C   UNL     1       1.657   8.107  19.628  0.00  0.00    +0.000 A 
ATOM      6  C   UNL     1       1.672   7.424  20.874  0.00  0.00    +0.000 A 
ATOM      7  C   UNL     1       0.812   7.760  21.917  0.00  0.00    +0.000 A 
ATOM      8  C   UNL     1      -0.064   8.822  21.764  0.00  0.00    +0.000 A 
ATOM      9  C   UNL     1      -0.036   9.573  20.590  0.00  0.00    +0.000 A 
ATOM     10  C   UNL     1       0.825   9.248  19.511  0.00  0.00    +0.000 A 
ENDROOT
BRANCH   4  11
ATOM     11  C   UNL     1       3.266   6.517  18.374  0.00  0.00    +0.000 A 
ATOM     12  C   UNL     1       2.781   5.307  17.841  0.00  0.00    +0.000 A 
ATOM     13  C   UNL     1       3.583   4.163  17.740  0.00  0.00    +0.000 A 
ATOM     14  C   UNL     1       4.927   4.225  18.086  0.00  0.00    +0.000 A 
ATOM     15  C   UNL     1       5.451   5.436  18.529  0.00  0.00    +0.000 A 
ATOM     16  C   UNL     1       4.630   6.557  18.708  0.00  0.00    +0.000 A 
BRANCH  15  17
ATOM     17  S   UNL     1       7.190   5.631  18.738  0.00  0.00    +0.000 S 
ATOM     18  O   UNL     1       7.624   6.783  17.991  0.00  0.00    +0.000 OA
ATOM     19  O   UNL     1       7.534   5.418  20.126  0.00  0.00    +0.000 OA
BRANCH  17  20
ATOM     20  N   UNL     1       7.756   4.278  17.922  0.00  0.00    +0.000 NA
ATOM     21  H   UNL     1       7.738   4.421  16.912  0.00  0.00    +0.000 HD
ATOM     22  H   UNL     1       8.644   3.960  18.305  0.00  0.00    +0.000 HD
ENDBRANCH  17  20
ENDBRANCH  15  17
ENDBRANCH   4  11
BRANCH   1  23
ATOM     23  N   UNL     1       0.203  11.251  18.234  0.00  0.00    +0.000 N 
ATOM     24  H   UNL     1       0.635  11.968  18.803  0.00  0.00    +0.000 HD
BRANCH  23  28
ATOM     25  C   UNL     1      -4.043  11.401  18.123  0.00  0.00    +0.000 A 
ATOM     26  C   UNL     1      -3.329  10.558  17.268  0.00  0.00    +0.000 A 
ATOM     27  C   UNL     1      -1.926  10.540  17.277  0.00  0.00    +0.000 A 
ATOM     28  C   UNL     1      -1.204  11.355  18.155  0.00  0.00    +0.000 A 
ATOM     29  C   UNL     1      -1.929  12.153  19.050  0.00  0.00    +0.000 A 
ATOM     30  C   UNL     1      -3.329  12.162  19.045  0.00  0.00    +0.000 A 
BRANCH  25  31
ATOM     31  N   UNL     1      -5.434  11.297  18.224  0.00  0.00    +0.000 N 
ATOM     32  H   UNL     1      -5.811  11.653  19.097  0.00  0.00    +0.000 HD
ATOM     33  H   UNL     1      -5.792  10.375  17.997  0.00  0.00    +0.000 HD
ENDBRANCH  25  31
ENDBRANCH  23  28
ENDBRANCH   1  23
TORSDOF 6
ENDMDL
MODEL 7
REMARK VINA RESULT:      -8.4      2.076      2.985
REMARK  Name = 
REMARK  6 active torsions:
REMARK  status: ('A' for Active; 'I' for Inactive)
REMARK    1  A    between atoms: N_1  and  C_2
REMARK    2  A    between atoms: C_5  and  N_6
REMARK    3  A    between atoms: N_6  and  C_7
REMARK    4  A    between atoms: C_10  and  C_11
REMARK    5  A    between atoms: C_15  and  S_16
REMARK    6  A    between atoms: S_16  and  N_17
REMARK                            x       y       z     vdW  Elec       q    Type
REMARK                         _______ _______ _______ _____ _____    ______ ____
ROOT
ATOM      1  C   UNL     1       1.166  10.364  18.394  0.00  0.00    +0.000 A 
ATOM      2  N   UNL     1       1.962  10.043  17.354  0.00  0.00    +0.000 NA
ATOM      3  N   UNL     1       2.597   8.838  17.308  0.00  0.00    +0.000 NA
ATOM      4  C   UNL     1       2.502   7.959  18.333  0.00  0.00    +0.000 A 
ATOM      5  C   UNL     1       1.732   8.264  19.477  0.00  0.00    +0.000 A 
ATOM      6  C   UNL     1       1.679   7.460  20.647  0.00  0.00    +0.000 A 
ATOM      7  C   UNL     1       0.825   7.749  21.710  0.00  0.00    +0.000 A 
ATOM      8  C   UNL     1       0.028   8.880  21.656  0.00  0.00    +0.000 A 
ATOM      9  C   UNL     1       0.129   9.743  20.566  0.00  0.00    +0.000 A 
ATOM     10  C   UNL     1       0.984   9.468  19.468  0.00  0.00    +0.000 A 
ENDROOT
BRANCH   4  11
ATOM     11  C   UNL     1       3.249   6.700  18.085  0.00  0.00    +0.000 A 
ATOM     12  C   UNL     1       2.622   5.454  17.889  0.00  0.00    +0.000 A 
ATOM     13  C   UNL     1       3.351   4.278  17.671  0.00  0.00    +0.000 A 
ATOM     14  C   UNL     1       4.734   4.332  17.549  0.00  0.00    +0.000 A 
ATOM     15  C   UNL     1       5.368   5.566  17.648  0.00  0.00    +0.000 A 
ATOM     16  C   UNL     1       4.647   6.729  17.948  0.00  0.00    +0.000 A 
BRANCH  15  17
ATOM     17  S   UNL     1       7.079   5.723  17.253  0.00  0.00    +0.000 S 
ATOM     18  O   UNL     1       7.233   5.690  15.822  0.00  0.00    +0.000 OA
ATOM     19  O   UNL     1       7.673   6.745  18.085  0.00  0.00    +0.000 OA
BRANCH  17  20
ATOM     20  N   UNL     1       7.669   4.266  17.841  0.00  0.00    +0.000 NA
ATOM     21  H   UNL     1       8.080   4.379  18.767  0.00  0.00    +0.000 HD
ATOM     22  H   UNL     1       6.975   3.525  17.756  0.00  0.00    +0.000 HD
ENDBRANCH  17  20
ENDBRANCH  15  17
ENDBRANCH   4  11
BRANCH   1  23
ATOM     23  N   UNL     1       0.524  11.629  18.395  0.00  0.00    +0.000 N 
ATOM     24  H   UNL     1      -0.214  11.640  17.702  0.00  0.00    +0.000 HD
BRANCH  23  28
ATOM     25  C   UNL     1       2.442  15.408  18.702  0.00  0.00    +0.000 A 
ATOM     26  C   UNL     1       3.158  14.264  18.342  0.00  0.00    +0.000 A 
ATOM     27  C   UNL     1       2.532  13.010  18.281  0.00  0.00    +0.000 A 
ATOM     28  C   UNL     1       1.169  12.874  18.564  0.00  0.00    +0.000 A 
ATOM     29  C   UNL     1       0.447  14.036  18.866  0.00  0.00    +0.000 A 
ATOM     30  C   UNL     1       1.071  15.288  18.917  0.00  0.00    +0.000 A 
BRANCH  25  31
ATOM     31  N   UNL     1       3.029  16.674  18.602  0.00  0.00    +0.000 N 
ATOM     32  H   UNL     1       2.595  17.276  17.910  0.00  0.00    +0.000 HD
ATOM     33  H   UNL     1       4.040  16.649  18.513  0.00  0.00    +0.000 HD
ENDBRANCH  25  31
ENDBRANCH  23  28
ENDBRANCH   1  23
TORSDOF 6
ENDMDL
MODEL 8
REMARK VINA RESULT:      -8.4      0.744      1.259
REMARK  Name = 
REMARK  6 active torsions:
REMARK  status: ('A' for Active; 'I' for Inactive)
REMARK    1  A    between atoms: N_1  and  C_2
REMARK    2  A    between atoms: C_5  and  N_6
REMARK    3  A    between atoms: N_6  and  C_7
REMARK    4  A    between atoms: C_10  and  C_11
REMARK    5  A    between atoms: C_15  and  S_16
REMARK    6  A    between atoms: S_16  and  N_17
REMARK                            x       y       z     vdW  Elec       q    Type
REMARK                         _______ _______ _______ _____ _____    ______ ____
ROOT
ATOM      1  C   UNL     1       1.421  10.050  18.399  0.00  0.00    +0.000 A 
ATOM      2  N   UNL     1       2.179   9.769  17.320  0.00  0.00    +0.000 NA
ATOM      3  N   UNL     1       2.778   8.553  17.185  0.00  0.00    +0.000 NA
ATOM      4  C   UNL     1       2.685   7.617  18.161  0.00  0.00    +0.000 A 
ATOM      5  C   UNL     1       1.955   7.876  19.341  0.00  0.00    +0.000 A 
ATOM      6  C   UNL     1       1.909   7.007  20.464  0.00  0.00    +0.000 A 
ATOM      7  C   UNL     1       1.093   7.256  21.566  0.00  0.00    +0.000 A 
ATOM      8  C   UNL     1       0.329   8.409  21.600  0.00  0.00    +0.000 A 
ATOM      9  C   UNL     1       0.425   9.331  20.559  0.00  0.00    +0.000 A 
ATOM     10  C   UNL     1       1.242   9.098  19.424  0.00  0.00    +0.000 A 
ENDROOT
BRANCH   4  11
ATOM     11  C   UNL     1       3.388   6.354  17.818  0.00  0.00    +0.000 A 
ATOM     12  C   UNL     1       2.757   5.096  17.811  0.00  0.00    +0.000 A 
ATOM     13  C   UNL     1       3.447   3.918  17.499  0.00  0.00    +0.000 A 
ATOM     14  C   UNL     1       4.774   3.978  17.091  0.00  0.00    +0.000 A 
ATOM     15  C   UNL     1       5.392   5.222  17.002  0.00  0.00    +0.000 A 
ATOM     16  C   UNL     1       4.727   6.390  17.393  0.00  0.00    +0.000 A 
BRANCH  15  17
ATOM     17  S   UNL     1       6.981   5.376  16.255  0.00  0.00    +0.000 S 
ATOM     18  O   UNL     1       7.874   4.419  16.856  0.00  0.00    +0.000 OA
ATOM     19  O   UNL     1       6.828   5.520  14.825  0.00  0.00    +0.000 OA
BRANCH  17  20
ATOM     20  N   UNL     1       7.442   6.890  16.813  0.00  0.00    +0.000 NA
ATOM     21  H   UNL     1       7.966   6.821  17.685  0.00  0.00    +0.000 HD
ATOM     22  H   UNL     1       7.885   7.437  16.076  0.00  0.00    +0.000 HD
ENDBRANCH  17  20
ENDBRANCH  15  17
ENDBRANCH   4  11
BRANCH   1  23
ATOM     23  N   UNL     1       0.817  11.330  18.492  0.00  0.00    +0.000 N 
ATOM     24  H   UNL     1       1.442  11.971  18.964  0.00  0.00    +0.000 HD
BRANCH  23  28
ATOM     25  C   UNL     1      -3.286  12.226  19.140  0.00  0.00    +0.000 A 
ATOM     26  C   UNL     1      -2.288  12.815  19.920  0.00  0.00    +0.000 A 
ATOM     27  C   UNL     1      -0.937  12.487  19.732  0.00  0.00    +0.000 A 
ATOM     28  C   UNL     1      -0.551  11.572  18.747  0.00  0.00    +0.000 A 
ATOM     29  C   UNL     1      -1.554  11.032  17.930  0.00  0.00    +0.000 A 
ATOM     30  C   UNL     1      -2.900  11.368  18.113  0.00  0.00    +0.000 A 
BRANCH  25  31
ATOM     31  N   UNL     1      -4.608  12.676  19.221  0.00  0.00    +0.000 N 
ATOM     32  H   UNL     1      -4.985  13.006  18.338  0.00  0.00    +0.000 HD
ATOM     33  H   UNL     1      -4.771  13.331  19.979  0.00  0.00    +0.000 HD
ENDBRANCH  25  31
ENDBRANCH  23  28
ENDBRANCH   1  23
TORSDOF 6
ENDMDL
MODEL 9
REMARK VINA RESULT:      -8.4      2.347      3.248
REMARK  Name = 
REMARK  6 active torsions:
REMARK  status: ('A' for Active; 'I' for Inactive)
REMARK    1  A    between atoms: N_1  and  C_2
REMARK    2  A    between atoms: C_5  and  N_6
REMARK    3  A    between atoms: N_6  and  C_7
REMARK    4  A    between atoms: C_10  and  C_11
REMARK    5  A    between atoms: C_15  and  S_16
REMARK    6  A    between atoms: S_16  and  N_17
REMARK                            x       y       z     vdW  Elec       q    Type
REMARK                         _______ _______ _______ _____ _____    ______ ____
ROOT
ATOM      1  C   UNL     1       1.419  10.355  18.460  0.00  0.00    +0.000 A 
ATOM      2  N   UNL     1       2.156   9.933  17.413  0.00  0.00    +0.000 NA
ATOM      3  N   UNL     1       2.612   8.650  17.353  0.00  0.00    +0.000 NA
ATOM      4  C   UNL     1       2.398   7.785  18.373  0.00  0.00    +0.000 A 
ATOM      5  C   UNL     1       1.686   8.187  19.523  0.00  0.00    +0.000 A 
ATOM      6  C   UNL     1       1.524   7.390  20.688  0.00  0.00    +0.000 A 
ATOM      7  C   UNL     1       0.725   7.789  21.758  0.00  0.00    +0.000 A 
ATOM      8  C   UNL     1       0.098   9.022  21.718  0.00  0.00    +0.000 A 
ATOM      9  C   UNL     1       0.315   9.870  20.633  0.00  0.00    +0.000 A 
ATOM     10  C   UNL     1       1.116   9.486  19.529  0.00  0.00    +0.000 A 
ENDROOT
BRANCH   4  11
ATOM     11  C   UNL     1       2.957   6.434  18.110  0.00  0.00    +0.000 A 
ATOM     12  C   UNL     1       2.160   5.278  17.990  0.00  0.00    +0.000 A 
ATOM     13  C   UNL     1       2.714   4.013  17.756  0.00  0.00    +0.000 A 
ATOM     14  C   UNL     1       4.080   3.882  17.543  0.00  0.00    +0.000 A 
ATOM     15  C   UNL     1       4.875   5.024  17.567  0.00  0.00    +0.000 A 
ATOM     16  C   UNL     1       4.334   6.277  17.881  0.00  0.00    +0.000 A 
BRANCH  15  17
ATOM     17  S   UNL     1       6.561   4.947  17.057  0.00  0.00    +0.000 S 
ATOM     18  O   UNL     1       6.890   6.156  16.348  0.00  0.00    +0.000 OA
ATOM     19  O   UNL     1       7.366   4.424  18.137  0.00  0.00    +0.000 OA
BRANCH  17  20
ATOM     20  N   UNL     1       6.485   3.717  15.917  0.00  0.00    +0.000 NA
ATOM     21  H   UNL     1       7.091   2.938  16.172  0.00  0.00    +0.000 HD
ATOM     22  H   UNL     1       5.521   3.472  15.701  0.00  0.00    +0.000 HD
ENDBRANCH  17  20
ENDBRANCH  15  17
ENDBRANCH   4  11
BRANCH   1  23
ATOM     23  N   UNL     1       0.964  11.698  18.475  0.00  0.00    +0.000 N 
ATOM     24  H   UNL     1       0.405  11.880  17.651  0.00  0.00    +0.000 HD
BRANCH  23  28
ATOM     25  C   UNL     1       3.068  15.170  19.733  0.00  0.00    +0.000 A 
ATOM     26  C   UNL     1       3.148  14.718  18.413  0.00  0.00    +0.000 A 
ATOM     27  C   UNL     1       2.486  13.549  18.009  0.00  0.00    +0.000 A 
ATOM     28  C   UNL     1       1.715  12.812  18.914  0.00  0.00    +0.000 A 
ATOM     29  C   UNL     1       1.592  13.306  20.220  0.00  0.00    +0.000 A 
ATOM     30  C   UNL     1       2.246  14.478  20.618  0.00  0.00    +0.000 A 
BRANCH  25  31
ATOM     31  N   UNL     1       3.592  16.417  20.089  0.00  0.00    +0.000 N 
ATOM     32  H   UNL     1       2.959  16.987  20.640  0.00  0.00    +0.000 HD
ATOM     33  H   UNL     1       3.993  16.928  19.309  0.00  0.00    +0.000 HD
ENDBRANCH  25  31
ENDBRANCH  23  28
ENDBRANCH   1  23
TORSDOF 6
ENDMDL
