MODEL 1
REMARK VINA RESULT:      -6.0      0.000      0.000
REMARK  Name = 
REMARK  17 active torsions:
REMARK  status: ('A' for Active; 'I' for Inactive)
REMARK    1  A    between atoms: C_1  and  C_2
REMARK    2  A    between atoms: C_2  and  C_3
REMARK    3  A    between atoms: C_3  and  C_4
REMARK    4  A    between atoms: C_4  and  C_5
REMARK    5  A    between atoms: C_5  and  C_6
REMARK    6  A    between atoms: C_6  and  C_7
REMARK    7  A    between atoms: C_7  and  C_8
REMARK    8  A    between atoms: C_8  and  C_9
REMARK    9  A    between atoms: C_9  and  C_10
REMARK   10  A    between atoms: C_10  and  C_11
REMARK   11  A    between atoms: C_11  and  C_12
REMARK   12  A    between atoms: C_12  and  O_13
REMARK   13  A    between atoms: O_13  and  C_14
REMARK   14  A    between atoms: C_16  and  O_17
REMARK   15  A    between atoms: C_18  and  O_19
REMARK   16  A    between atoms: C_20  and  C_21
REMARK   17  A    between atoms: C_21  and  O_22
REMARK                            x       y       z     vdW  Elec       q    Type
REMARK                         _______ _______ _______ _____ _____    ______ ____
ROOT
ATOM      1  O   UNL     1       4.013   2.729  18.599  0.00  0.00    +0.000 OA
ENDROOT
BRANCH   1   2
ATOM      2  C   UNL     1       4.722   3.895  18.190  0.00  0.00    +0.000 C 
ATOM      3  C   UNL     1       5.745   4.220  19.264  0.00  0.00    +0.000 C 
ATOM      4  C   UNL     1       6.546   5.444  18.854  0.00  0.00    +0.000 C 
ATOM      5  C   UNL     1       7.138   5.292  17.440  0.00  0.00    +0.000 C 
ATOM      6  C   UNL     1       6.067   4.811  16.454  0.00  0.00    +0.000 C 
ATOM      7  O   UNL     1       5.395   3.652  16.956  0.00  0.00    +0.000 OA
BRANCH   5   8
ATOM      8  O   UNL     1       7.705   6.522  16.989  0.00  0.00    +0.000 OA
ATOM      9  H   UNL     1       7.928   6.438  16.044  0.00  0.00    +0.000 HD
ENDBRANCH   5   8
BRANCH   4  10
ATOM     10  O   UNL     1       7.575   5.686  19.815  0.00  0.00    +0.000 OA
ATOM     11  H   UNL     1       7.768   6.641  19.824  0.00  0.00    +0.000 HD
ENDBRANCH   4  10
BRANCH   6  12
ATOM     12  C   UNL     1       6.683   4.413  15.107  0.00  0.00    +0.000 C 
BRANCH  12  13
ATOM     13  O   UNL     1       6.921   5.589  14.326  0.00  0.00    +0.000 OA
ATOM     14  H   UNL     1       7.288   5.272  13.480  0.00  0.00    +0.000 HD
ENDBRANCH  12  13
ENDBRANCH   6  12
ENDBRANCH   1   2
BRANCH   1  15
ATOM     15  C   UNL     1       3.076   2.334  17.605  0.00  0.00    +0.000 C 
BRANCH  15  16
ATOM     16  C   UNL     1       1.756   3.039  17.855  0.00  0.00    +0.000 C 
BRANCH  16  17
ATOM     17  C   UNL     1       0.976   2.279  18.917  0.00  0.00    +0.000 C 
BRANCH  17  18
ATOM     18  C   UNL     1       0.593   3.175  20.083  0.00  0.00    +0.000 C 
BRANCH  18  19
ATOM     19  C   UNL     1       1.684   3.134  21.147  0.00  0.00    +0.000 C 
BRANCH  19  20
ATOM     20  C   UNL     1       2.347   4.496  21.290  0.00  0.00    +0.000 C 
BRANCH  20  21
ATOM     21  C   UNL     1       1.538   5.568  20.571  0.00  0.00    +0.000 C 
BRANCH  21  22
ATOM     22  C   UNL     1       2.328   6.132  19.398  0.00  0.00    +0.000 C 
BRANCH  22  23
ATOM     23  C   UNL     1       2.338   7.657  19.431  0.00  0.00    +0.000 C 
BRANCH  23  24
ATOM     24  C   UNL     1       2.590   8.222  18.036  0.00  0.00    +0.000 C 
BRANCH  24  26
ATOM     25  C   UNL     1       0.518   9.635  18.018  0.00  0.00    +0.000 C 
ATOM     26  C   UNL     1       2.033   9.635  17.905  0.00  0.00    +0.000 C 
ENDBRANCH  24  26
ENDBRANCH  23  24
ENDBRANCH  22  23
ENDBRANCH  21  22
ENDBRANCH  20  21
ENDBRANCH  19  20
ENDBRANCH  18  19
ENDBRANCH  17  18
ENDBRANCH  16  17
ENDBRANCH  15  16
ENDBRANCH   1  15
TORSDOF 16
ENDMDL
MODEL 2
REMARK VINA RESULT:      -5.8      3.534      6.234
REMARK  Name = 
REMARK  17 active torsions:
REMARK  status: ('A' for Active; 'I' for Inactive)
REMARK    1  A    between atoms: C_1  and  C_2
REMARK    2  A    between atoms: C_2  and  C_3
REMARK    3  A    between atoms: C_3  and  C_4
REMARK    4  A    between atoms: C_4  and  C_5
REMARK    5  A    between atoms: C_5  and  C_6
REMARK    6  A    between atoms: C_6  and  C_7
REMARK    7  A    between atoms: C_7  and  C_8
REMARK    8  A    between atoms: C_8  and  C_9
REMARK    9  A    between atoms: C_9  and  C_10
REMARK   10  A    between atoms: C_10  and  C_11
REMARK   11  A    between atoms: C_11  and  C_12
REMARK   12  A    between atoms: C_12  and  O_13
REMARK   13  A    between atoms: O_13  and  C_14
REMARK   14  A    between atoms: C_16  and  O_17
REMARK   15  A    between atoms: C_18  and  O_19
REMARK   16  A    between atoms: C_20  and  C_21
REMARK   17  A    between atoms: C_21  and  O_22
REMARK                            x       y       z     vdW  Elec       q    Type
REMARK                         _______ _______ _______ _____ _____    ______ ____
ROOT
ATOM      1  O   UNL     1       2.220   5.774  19.761  0.00  0.00    +0.000 OA
ENDROOT
BRANCH   1   2
ATOM      2  C   UNL     1       2.202   7.188  19.929  0.00  0.00    +0.000 C 
ATOM      3  C   UNL     1       1.936   7.816  18.573  0.00  0.00    +0.000 C 
ATOM      4  C   UNL     1       1.880   9.328  18.711  0.00  0.00    +0.000 C 
ATOM      5  C   UNL     1       0.898   9.764  19.816  0.00  0.00    +0.000 C 
ATOM      6  C   UNL     1       1.141   8.967  21.102  0.00  0.00    +0.000 C 
ATOM      7  O   UNL     1       1.164   7.561  20.834  0.00  0.00    +0.000 OA
BRANCH   5   8
ATOM      8  O   UNL     1       1.012  11.163  20.076  0.00  0.00    +0.000 OA
ATOM      9  H   UNL     1       1.661  11.546  19.459  0.00  0.00    +0.000 HD
ENDBRANCH   5   8
BRANCH   4  10
ATOM     10  O   UNL     1       1.526   9.910  17.455  0.00  0.00    +0.000 OA
ATOM     11  H   UNL     1       0.735   9.452  17.117  0.00  0.00    +0.000 HD
ENDBRANCH   4  10
BRANCH   6  12
ATOM     12  C   UNL     1       0.026   9.201  22.127  0.00  0.00    +0.000 C 
BRANCH  12  13
ATOM     13  O   UNL     1       0.588   9.734  23.330  0.00  0.00    +0.000 OA
ATOM     14  H   UNL     1       1.410  10.184  23.058  0.00  0.00    +0.000 HD
ENDBRANCH  12  13
ENDBRANCH   6  12
ENDBRANCH   1   2
BRANCH   1  15
ATOM     15  C   UNL     1       2.078   5.115  21.014  0.00  0.00    +0.000 C 
BRANCH  15  16
ATOM     16  C   UNL     1       1.378   3.786  20.802  0.00  0.00    +0.000 C 
BRANCH  16  17
ATOM     17  C   UNL     1       0.945   3.674  19.348  0.00  0.00    +0.000 C 
BRANCH  17  18
ATOM     18  C   UNL     1       1.152   2.270  18.806  0.00  0.00    +0.000 C 
BRANCH  18  19
ATOM     19  C   UNL     1       2.327   2.258  17.834  0.00  0.00    +0.000 C 
BRANCH  19  20
ATOM     20  C   UNL     1       2.467   3.606  17.144  0.00  0.00    +0.000 C 
BRANCH  20  21
ATOM     21  C   UNL     1       3.892   4.131  17.269  0.00  0.00    +0.000 C 
BRANCH  21  22
ATOM     22  C   UNL     1       4.648   3.361  18.344  0.00  0.00    +0.000 C 
BRANCH  22  23
ATOM     23  C   UNL     1       5.360   4.314  19.298  0.00  0.00    +0.000 C 
BRANCH  23  24
ATOM     24  C   UNL     1       5.569   5.675  18.640  0.00  0.00    +0.000 C 
BRANCH  24  26
ATOM     25  C   UNL     1       7.319   6.667  17.140  0.00  0.00    +0.000 C 
ATOM     26  C   UNL     1       7.054   5.982  18.470  0.00  0.00    +0.000 C 
ENDBRANCH  24  26
ENDBRANCH  23  24
ENDBRANCH  22  23
ENDBRANCH  21  22
ENDBRANCH  20  21
ENDBRANCH  19  20
ENDBRANCH  18  19
ENDBRANCH  17  18
ENDBRANCH  16  17
ENDBRANCH  15  16
ENDBRANCH   1  15
TORSDOF 16
ENDMDL
MODEL 3
REMARK VINA RESULT:      -5.7      1.970      2.221
REMARK  Name = 
REMARK  17 active torsions:
REMARK  status: ('A' for Active; 'I' for Inactive)
REMARK    1  A    between atoms: C_1  and  C_2
REMARK    2  A    between atoms: C_2  and  C_3
REMARK    3  A    between atoms: C_3  and  C_4
REMARK    4  A    between atoms: C_4  and  C_5
REMARK    5  A    between atoms: C_5  and  C_6
REMARK    6  A    between atoms: C_6  and  C_7
REMARK    7  A    between atoms: C_7  and  C_8
REMARK    8  A    between atoms: C_8  and  C_9
REMARK    9  A    between atoms: C_9  and  C_10
REMARK   10  A    between atoms: C_10  and  C_11
REMARK   11  A    between atoms: C_11  and  C_12
REMARK   12  A    between atoms: C_12  and  O_13
REMARK   13  A    between atoms: O_13  and  C_14
REMARK   14  A    between atoms: C_16  and  O_17
REMARK   15  A    between atoms: C_18  and  O_19
REMARK   16  A    between atoms: C_20  and  C_21
REMARK   17  A    between atoms: C_21  and  O_22
REMARK                            x       y       z     vdW  Elec       q    Type
REMARK                         _______ _______ _______ _____ _____    ______ ____
ROOT
ATOM      1  O   UNL     1       3.184   3.288  17.168  0.00  0.00    +0.000 OA
ENDROOT
BRANCH   1   2
ATOM      2  C   UNL     1       4.149   4.329  17.055  0.00  0.00    +0.000 C 
ATOM      3  C   UNL     1       4.970   4.344  18.333  0.00  0.00    +0.000 C 
ATOM      4  C   UNL     1       6.035   5.424  18.245  0.00  0.00    +0.000 C 
ATOM      5  C   UNL     1       6.869   5.300  16.955  0.00  0.00    +0.000 C 
ATOM      6  C   UNL     1       5.957   5.134  15.734  0.00  0.00    +0.000 C 
ATOM      7  O   UNL     1       5.009   4.083  15.944  0.00  0.00    +0.000 OA
BRANCH   5   8
ATOM      8  O   UNL     1       7.716   6.436  16.784  0.00  0.00    +0.000 OA
ATOM      9  H   UNL     1       7.260   7.088  16.222  0.00  0.00    +0.000 HD
ENDBRANCH   5   8
BRANCH   4  10
ATOM     10  O   UNL     1       6.871   5.367  19.401  0.00  0.00    +0.000 OA
ATOM     11  H   UNL     1       7.526   6.087  19.341  0.00  0.00    +0.000 HD
ENDBRANCH   4  10
BRANCH   6  12
ATOM     12  C   UNL     1       6.759   4.760  14.482  0.00  0.00    +0.000 C 
BRANCH  12  13
ATOM     13  O   UNL     1       6.323   3.485  14.000  0.00  0.00    +0.000 OA
ATOM     14  H   UNL     1       6.247   2.918  14.791  0.00  0.00    +0.000 HD
ENDBRANCH  12  13
ENDBRANCH   6  12
ENDBRANCH   1   2
BRANCH   1  15
ATOM     15  C   UNL     1       3.686   2.219  17.962  0.00  0.00    +0.000 C 
BRANCH  15  16
ATOM     16  C   UNL     1       2.545   1.607  18.752  0.00  0.00    +0.000 C 
BRANCH  16  17
ATOM     17  C   UNL     1       1.746   2.716  19.421  0.00  0.00    +0.000 C 
BRANCH  17  18
ATOM     18  C   UNL     1       1.883   2.675  20.933  0.00  0.00    +0.000 C 
BRANCH  18  19
ATOM     19  C   UNL     1       2.246   4.060  21.458  0.00  0.00    +0.000 C 
BRANCH  19  20
ATOM     20  C   UNL     1       2.080   5.108  20.368  0.00  0.00    +0.000 C 
BRANCH  20  21
ATOM     21  C   UNL     1       1.173   6.238  20.839  0.00  0.00    +0.000 C 
BRANCH  21  22
ATOM     22  C   UNL     1       1.741   7.586  20.417  0.00  0.00    +0.000 C 
BRANCH  22  23
ATOM     23  C   UNL     1       1.533   8.631  21.508  0.00  0.00    +0.000 C 
BRANCH  23  24
ATOM     24  C   UNL     1       0.140   9.246  21.403  0.00  0.00    +0.000 C 
BRANCH  24  26
ATOM     25  C   UNL     1      -1.033  10.731  23.049  0.00  0.00    +0.000 C 
ATOM     26  C   UNL     1      -0.533   9.325  22.769  0.00  0.00    +0.000 C 
ENDBRANCH  24  26
ENDBRANCH  23  24
ENDBRANCH  22  23
ENDBRANCH  21  22
ENDBRANCH  20  21
ENDBRANCH  19  20
ENDBRANCH  18  19
ENDBRANCH  17  18
ENDBRANCH  16  17
ENDBRANCH  15  16
ENDBRANCH   1  15
TORSDOF 16
ENDMDL
MODEL 4
REMARK VINA RESULT:      -5.7      4.430      7.220
REMARK  Name = 
REMARK  17 active torsions:
REMARK  status: ('A' for Active; 'I' for Inactive)
REMARK    1  A    between atoms: C_1  and  C_2
REMARK    2  A    between atoms: C_2  and  C_3
REMARK    3  A    between atoms: C_3  and  C_4
REMARK    4  A    between atoms: C_4  and  C_5
REMARK    5  A    between atoms: C_5  and  C_6
REMARK    6  A    between atoms: C_6  and  C_7
REMARK    7  A    between atoms: C_7  and  C_8
REMARK    8  A    between atoms: C_8  and  C_9
REMARK    9  A    between atoms: C_9  and  C_10
REMARK   10  A    between atoms: C_10  and  C_11
REMARK   11  A    between atoms: C_11  and  C_12
REMARK   12  A    between atoms: C_12  and  O_13
REMARK   13  A    between atoms: O_13  and  C_14
REMARK   14  A    between atoms: C_16  and  O_17
REMARK   15  A    between atoms: C_18  and  O_19
REMARK   16  A    between atoms: C_20  and  C_21
REMARK   17  A    between atoms: C_21  and  O_22
REMARK                            x       y       z     vdW  Elec       q    Type
REMARK                         _______ _______ _______ _____ _____    ______ ____
ROOT
ATOM      1  O   UNL     1       5.428   3.269  19.517  0.00  0.00    +0.000 OA
ENDROOT
BRANCH   1   2
ATOM      2  C   UNL     1       4.075   2.830  19.447  0.00  0.00    +0.000 C 
ATOM      3  C   UNL     1       3.513   2.828  20.858  0.00  0.00    +0.000 C 
ATOM      4  C   UNL     1       2.057   2.392  20.828  0.00  0.00    +0.000 C 
ATOM      5  C   UNL     1       1.235   3.214  19.817  0.00  0.00    +0.000 C 
ATOM      6  C   UNL     1       1.957   3.291  18.467  0.00  0.00    +0.000 C 
ATOM      7  O   UNL     1       3.311   3.720  18.636  0.00  0.00    +0.000 OA
BRANCH   5   8
ATOM      8  O   UNL     1      -0.068   2.658  19.647  0.00  0.00    +0.000 OA
ATOM      9  H   UNL     1      -0.099   1.788  20.085  0.00  0.00    +0.000 HD
ENDBRANCH   5   8
BRANCH   4  10
ATOM     10  O   UNL     1       1.501   2.491  22.139  0.00  0.00    +0.000 OA
ATOM     11  H   UNL     1       2.016   3.149  22.642  0.00  0.00    +0.000 HD
ENDBRANCH   4  10
BRANCH   6  12
ATOM     12  C   UNL     1       1.288   4.304  17.530  0.00  0.00    +0.000 C 
BRANCH  12  13
ATOM     13  O   UNL     1       1.795   5.613  17.803  0.00  0.00    +0.000 OA
ATOM     14  H   UNL     1       1.534   5.809  18.723  0.00  0.00    +0.000 HD
ENDBRANCH  12  13
ENDBRANCH   6  12
ENDBRANCH   1   2
BRANCH   1  15
ATOM     15  C   UNL     1       5.671   4.305  18.571  0.00  0.00    +0.000 C 
BRANCH  15  16
ATOM     16  C   UNL     1       6.524   5.380  19.217  0.00  0.00    +0.000 C 
BRANCH  16  17
ATOM     17  C   UNL     1       7.594   5.829  18.234  0.00  0.00    +0.000 C 
BRANCH  17  18
ATOM     18  C   UNL     1       8.166   7.186  18.605  0.00  0.00    +0.000 C 
BRANCH  18  19
ATOM     19  C   UNL     1       7.715   8.233  17.593  0.00  0.00    +0.000 C 
BRANCH  19  20
ATOM     20  C   UNL     1       8.414   9.561  17.845  0.00  0.00    +0.000 C 
BRANCH  20  21
ATOM     21  C   UNL     1       8.977   9.614  19.259  0.00  0.00    +0.000 C 
BRANCH  21  22
ATOM     22  C   UNL     1       9.903  10.814  19.416  0.00  0.00    +0.000 C 
BRANCH  22  23
ATOM     23  C   UNL     1       9.928  11.654  18.144  0.00  0.00    +0.000 C 
BRANCH  23  24
ATOM     24  C   UNL     1      11.365  11.967  17.736  0.00  0.00    +0.000 C 
BRANCH  24  26
ATOM     25  C   UNL     1      10.490  14.299  17.440  0.00  0.00    +0.000 C 
ATOM     26  C   UNL     1      11.436  13.240  16.900  0.00  0.00    +0.000 C 
ENDBRANCH  24  26
ENDBRANCH  23  24
ENDBRANCH  22  23
ENDBRANCH  21  22
ENDBRANCH  20  21
ENDBRANCH  19  20
ENDBRANCH  18  19
ENDBRANCH  17  18
ENDBRANCH  16  17
ENDBRANCH  15  16
ENDBRANCH   1  15
TORSDOF 16
ENDMDL
MODEL 5
REMARK VINA RESULT:      -5.7      1.225      1.412
REMARK  Name = 
REMARK  17 active torsions:
REMARK  status: ('A' for Active; 'I' for Inactive)
REMARK    1  A    between atoms: C_1  and  C_2
REMARK    2  A    between atoms: C_2  and  C_3
REMARK    3  A    between atoms: C_3  and  C_4
REMARK    4  A    between atoms: C_4  and  C_5
REMARK    5  A    between atoms: C_5  and  C_6
REMARK    6  A    between atoms: C_6  and  C_7
REMARK    7  A    between atoms: C_7  and  C_8
REMARK    8  A    between atoms: C_8  and  C_9
REMARK    9  A    between atoms: C_9  and  C_10
REMARK   10  A    between atoms: C_10  and  C_11
REMARK   11  A    between atoms: C_11  and  C_12
REMARK   12  A    between atoms: C_12  and  O_13
REMARK   13  A    between atoms: O_13  and  C_14
REMARK   14  A    between atoms: C_16  and  O_17
REMARK   15  A    between atoms: C_18  and  O_19
REMARK   16  A    between atoms: C_20  and  C_21
REMARK   17  A    between atoms: C_21  and  O_22
REMARK                            x       y       z     vdW  Elec       q    Type
REMARK                         _______ _______ _______ _____ _____    ______ ____
ROOT
ATOM      1  O   UNL     1       3.289   3.260  17.052  0.00  0.00    +0.000 OA
ENDROOT
BRANCH   1   2
ATOM      2  C   UNL     1       4.229   4.301  16.805  0.00  0.00    +0.000 C 
ATOM      3  C   UNL     1       5.120   4.425  18.028  0.00  0.00    +0.000 C 
ATOM      4  C   UNL     1       6.160   5.508  17.796  0.00  0.00    +0.000 C 
ATOM      5  C   UNL     1       6.922   5.295  16.473  0.00  0.00    +0.000 C 
ATOM      6  C   UNL     1       5.945   5.024  15.323  0.00  0.00    +0.000 C 
ATOM      7  O   UNL     1       5.028   3.981  15.668  0.00  0.00    +0.000 OA
BRANCH   5   8
ATOM      8  O   UNL     1       7.739   6.425  16.168  0.00  0.00    +0.000 OA
ATOM      9  H   UNL     1       7.926   6.429  15.212  0.00  0.00    +0.000 HD
ENDBRANCH   5   8
BRANCH   4  10
ATOM     10  O   UNL     1       7.062   5.551  18.903  0.00  0.00    +0.000 OA
ATOM     11  H   UNL     1       6.642   6.059  19.621  0.00  0.00    +0.000 HD
ENDBRANCH   4  10
BRANCH   6  12
ATOM     12  C   UNL     1       6.681   4.564  14.059  0.00  0.00    +0.000 C 
BRANCH  12  13
ATOM     13  O   UNL     1       6.151   3.306  13.631  0.00  0.00    +0.000 OA
ATOM     14  H   UNL     1       6.307   3.269  12.668  0.00  0.00    +0.000 HD
ENDBRANCH  12  13
ENDBRANCH   6  12
ENDBRANCH   1   2
BRANCH   1  15
ATOM     15  C   UNL     1       3.871   2.234  17.848  0.00  0.00    +0.000 C 
BRANCH  15  16
ATOM     16  C   UNL     1       2.893   1.831  18.935  0.00  0.00    +0.000 C 
BRANCH  16  17
ATOM     17  C   UNL     1       1.670   2.733  18.870  0.00  0.00    +0.000 C 
BRANCH  17  18
ATOM     18  C   UNL     1       1.126   3.045  20.253  0.00  0.00    +0.000 C 
BRANCH  18  19
ATOM     19  C   UNL     1       1.006   4.554  20.435  0.00  0.00    +0.000 C 
BRANCH  19  20
ATOM     20  C   UNL     1       2.378   5.211  20.393  0.00  0.00    +0.000 C 
BRANCH  20  21
ATOM     21  C   UNL     1       2.264   6.671  19.976  0.00  0.00    +0.000 C 
BRANCH  21  22
ATOM     22  C   UNL     1       2.538   6.821  18.485  0.00  0.00    +0.000 C 
BRANCH  22  23
ATOM     23  C   UNL     1       1.589   7.834  17.855  0.00  0.00    +0.000 C 
BRANCH  23  24
ATOM     24  C   UNL     1       2.120   9.253  18.040  0.00  0.00    +0.000 C 
BRANCH  24  26
ATOM     25  C   UNL     1       0.764   9.986  20.019  0.00  0.00    +0.000 C 
ATOM     26  C   UNL     1       1.024  10.191  18.537  0.00  0.00    +0.000 C 
ENDBRANCH  24  26
ENDBRANCH  23  24
ENDBRANCH  22  23
ENDBRANCH  21  22
ENDBRANCH  20  21
ENDBRANCH  19  20
ENDBRANCH  18  19
ENDBRANCH  17  18
ENDBRANCH  16  17
ENDBRANCH  15  16
ENDBRANCH   1  15
TORSDOF 16
ENDMDL
MODEL 6
REMARK VINA RESULT:      -5.7      4.879      7.765
REMARK  Name = 
REMARK  17 active torsions:
REMARK  status: ('A' for Active; 'I' for Inactive)
REMARK    1  A    between atoms: C_1  and  C_2
REMARK    2  A    between atoms: C_2  and  C_3
REMARK    3  A    between atoms: C_3  and  C_4
REMARK    4  A    between atoms: C_4  and  C_5
REMARK    5  A    between atoms: C_5  and  C_6
REMARK    6  A    between atoms: C_6  and  C_7
REMARK    7  A    between atoms: C_7  and  C_8
REMARK    8  A    between atoms: C_8  and  C_9
REMARK    9  A    between atoms: C_9  and  C_10
REMARK   10  A    between atoms: C_10  and  C_11
REMARK   11  A    between atoms: C_11  and  C_12
REMARK   12  A    between atoms: C_12  and  O_13
REMARK   13  A    between atoms: O_13  and  C_14
REMARK   14  A    between atoms: C_16  and  O_17
REMARK   15  A    between atoms: C_18  and  O_19
REMARK   16  A    between atoms: C_20  and  C_21
REMARK   17  A    between atoms: C_21  and  O_22
REMARK                            x       y       z     vdW  Elec       q    Type
REMARK                         _______ _______ _______ _____ _____    ______ ____
ROOT
ATOM      1  O   UNL     1       1.547   8.584  19.476  0.00  0.00    +0.000 OA
ENDROOT
BRANCH   1   2
ATOM      2  C   UNL     1       0.514   9.506  19.812  0.00  0.00    +0.000 C 
ATOM      3  C   UNL     1       0.579   9.754  21.309  0.00  0.00    +0.000 C 
ATOM      4  C   UNL     1      -0.489  10.757  21.708  0.00  0.00    +0.000 C 
ATOM      5  C   UNL     1      -0.422  12.035  20.849  0.00  0.00    +0.000 C 
ATOM      6  C   UNL     1      -0.334  11.683  19.360  0.00  0.00    +0.000 C 
ATOM      7  O   UNL     1       0.713  10.738  19.121  0.00  0.00    +0.000 OA
BRANCH   5   8
ATOM      8  O   UNL     1      -1.554  12.872  21.090  0.00  0.00    +0.000 OA
ATOM      9  H   UNL     1      -1.458  13.285  21.968  0.00  0.00    +0.000 HD
ENDBRANCH   5   8
BRANCH   4  10
ATOM     10  O   UNL     1      -0.359  11.068  23.096  0.00  0.00    +0.000 OA
ATOM     11  H   UNL     1      -0.059  10.267  23.563  0.00  0.00    +0.000 HD
ENDBRANCH   4  10
BRANCH   6  12
ATOM     12  C   UNL     1      -0.016  12.918  18.509  0.00  0.00    +0.000 C 
BRANCH  12  13
ATOM     13  O   UNL     1      -0.990  13.044  17.468  0.00  0.00    +0.000 OA
ATOM     14  H   UNL     1      -1.764  13.468  17.884  0.00  0.00    +0.000 HD
ENDBRANCH  12  13
ENDBRANCH   6  12
ENDBRANCH   1   2
BRANCH   1  15
ATOM     15  C   UNL     1       2.073   8.865  18.184  0.00  0.00    +0.000 C 
BRANCH  15  16
ATOM     16  C   UNL     1       3.027   7.756  17.782  0.00  0.00    +0.000 C 
BRANCH  16  17
ATOM     17  C   UNL     1       2.782   6.540  18.664  0.00  0.00    +0.000 C 
BRANCH  17  18
ATOM     18  C   UNL     1       4.034   5.692  18.813  0.00  0.00    +0.000 C 
BRANCH  18  19
ATOM     19  C   UNL     1       4.567   5.309  17.437  0.00  0.00    +0.000 C 
BRANCH  19  20
ATOM     20  C   UNL     1       4.007   3.964  17.000  0.00  0.00    +0.000 C 
BRANCH  20  21
ATOM     21  C   UNL     1       3.833   3.037  18.196  0.00  0.00    +0.000 C 
BRANCH  21  22
ATOM     22  C   UNL     1       2.755   2.000  17.911  0.00  0.00    +0.000 C 
BRANCH  22  23
ATOM     23  C   UNL     1       1.699   1.994  19.011  0.00  0.00    +0.000 C 
BRANCH  23  24
ATOM     24  C   UNL     1       1.086   3.383  19.173  0.00  0.00    +0.000 C 
BRANCH  24  26
ATOM     25  C   UNL     1       1.648   2.739  21.531  0.00  0.00    +0.000 C 
ATOM     26  C   UNL     1       1.166   3.855  20.621  0.00  0.00    +0.000 C 
ENDBRANCH  24  26
ENDBRANCH  23  24
ENDBRANCH  22  23
ENDBRANCH  21  22
ENDBRANCH  20  21
ENDBRANCH  19  20
ENDBRANCH  18  19
ENDBRANCH  17  18
ENDBRANCH  16  17
ENDBRANCH  15  16
ENDBRANCH   1  15
TORSDOF 16
ENDMDL
MODEL 7
REMARK VINA RESULT:      -5.7      1.318      3.157
REMARK  Name = 
REMARK  17 active torsions:
REMARK  status: ('A' for Active; 'I' for Inactive)
REMARK    1  A    between atoms: C_1  and  C_2
REMARK    2  A    between atoms: C_2  and  C_3
REMARK    3  A    between atoms: C_3  and  C_4
REMARK    4  A    between atoms: C_4  and  C_5
REMARK    5  A    between atoms: C_5  and  C_6
REMARK    6  A    between atoms: C_6  and  C_7
REMARK    7  A    between atoms: C_7  and  C_8
REMARK    8  A    between atoms: C_8  and  C_9
REMARK    9  A    between atoms: C_9  and  C_10
REMARK   10  A    between atoms: C_10  and  C_11
REMARK   11  A    between atoms: C_11  and  C_12
REMARK   12  A    between atoms: C_12  and  O_13
REMARK   13  A    between atoms: O_13  and  C_14
REMARK   14  A    between atoms: C_16  and  O_17
REMARK   15  A    between atoms: C_18  and  O_19
REMARK   16  A    between atoms: C_20  and  C_21
REMARK   17  A    between atoms: C_21  and  O_22
REMARK                            x       y       z     vdW  Elec       q    Type
REMARK                         _______ _______ _______ _____ _____    ______ ____
ROOT
ATOM      1  O   UNL     1       3.359   2.696  19.107  0.00  0.00    +0.000 OA
ENDROOT
BRANCH   1   2
ATOM      2  C   UNL     1       4.571   3.063  18.455  0.00  0.00    +0.000 C 
ATOM      3  C   UNL     1       4.227   3.484  17.036  0.00  0.00    +0.000 C 
ATOM      4  C   UNL     1       5.491   3.914  16.310  0.00  0.00    +0.000 C 
ATOM      5  C   UNL     1       6.281   4.966  17.111  0.00  0.00    +0.000 C 
ATOM      6  C   UNL     1       6.444   4.526  18.570  0.00  0.00    +0.000 C 
ATOM      7  O   UNL     1       5.183   4.157  19.136  0.00  0.00    +0.000 OA
BRANCH   5   8
ATOM      8  O   UNL     1       7.559   5.202  16.522  0.00  0.00    +0.000 OA
ATOM      9  H   UNL     1       7.503   5.027  15.566  0.00  0.00    +0.000 HD
ENDBRANCH   5   8
BRANCH   4  10
ATOM     10  O   UNL     1       5.153   4.407  15.013  0.00  0.00    +0.000 OA
ATOM     11  H   UNL     1       4.638   3.722  14.549  0.00  0.00    +0.000 HD
ENDBRANCH   4  10
BRANCH   6  12
ATOM     12  C   UNL     1       7.002   5.660  19.439  0.00  0.00    +0.000 C 
BRANCH  12  13
ATOM     13  O   UNL     1       8.396   5.439  19.673  0.00  0.00    +0.000 OA
ATOM     14  H   UNL     1       8.512   4.470  19.676  0.00  0.00    +0.000 HD
ENDBRANCH  12  13
ENDBRANCH   6  12
ENDBRANCH   1   2
BRANCH   1  15
ATOM     15  C   UNL     1       2.246   2.866  18.237  0.00  0.00    +0.000 C 
BRANCH  15  16
ATOM     16  C   UNL     1       1.139   3.591  18.979  0.00  0.00    +0.000 C 
BRANCH  16  17
ATOM     17  C   UNL     1       1.639   3.991  20.359  0.00  0.00    +0.000 C 
BRANCH  17  18
ATOM     18  C   UNL     1       1.686   5.501  20.525  0.00  0.00    +0.000 C 
BRANCH  18  19
ATOM     19  C   UNL     1       2.362   6.134  19.314  0.00  0.00    +0.000 C 
BRANCH  19  20
ATOM     20  C   UNL     1       2.253   7.650  19.369  0.00  0.00    +0.000 C 
BRANCH  20  21
ATOM     21  C   UNL     1       2.290   8.246  17.968  0.00  0.00    +0.000 C 
BRANCH  21  22
ATOM     22  C   UNL     1       1.346   9.437  17.872  0.00  0.00    +0.000 C 
BRANCH  22  23
ATOM     23  C   UNL     1       0.770   9.788  19.240  0.00  0.00    +0.000 C 
BRANCH  23  24
ATOM     24  C   UNL     1      -0.620  10.400  19.095  0.00  0.00    +0.000 C 
BRANCH  24  26
ATOM     25  C   UNL     1      -2.398  10.957  17.415  0.00  0.00    +0.000 C 
ATOM     26  C   UNL     1      -1.253  10.020  17.760  0.00  0.00    +0.000 C 
ENDBRANCH  24  26
ENDBRANCH  23  24
ENDBRANCH  22  23
ENDBRANCH  21  22
ENDBRANCH  20  21
ENDBRANCH  19  20
ENDBRANCH  18  19
ENDBRANCH  17  18
ENDBRANCH  16  17
ENDBRANCH  15  16
ENDBRANCH   1  15
TORSDOF 16
ENDMDL
MODEL 8
REMARK VINA RESULT:      -5.7      1.111      1.577
REMARK  Name = 
REMARK  17 active torsions:
REMARK  status: ('A' for Active; 'I' for Inactive)
REMARK    1  A    between atoms: C_1  and  C_2
REMARK    2  A    between atoms: C_2  and  C_3
REMARK    3  A    between atoms: C_3  and  C_4
REMARK    4  A    between atoms: C_4  and  C_5
REMARK    5  A    between atoms: C_5  and  C_6
REMARK    6  A    between atoms: C_6  and  C_7
REMARK    7  A    between atoms: C_7  and  C_8
REMARK    8  A    between atoms: C_8  and  C_9
REMARK    9  A    between atoms: C_9  and  C_10
REMARK   10  A    between atoms: C_10  and  C_11
REMARK   11  A    between atoms: C_11  and  C_12
REMARK   12  A    between atoms: C_12  and  O_13
REMARK   13  A    between atoms: O_13  and  C_14
REMARK   14  A    between atoms: C_16  and  O_17
REMARK   15  A    between atoms: C_18  and  O_19
REMARK   16  A    between atoms: C_20  and  C_21
REMARK   17  A    between atoms: C_21  and  O_22
REMARK                            x       y       z     vdW  Elec       q    Type
REMARK                         _______ _______ _______ _____ _____    ______ ____
ROOT
ATOM      1  O   UNL     1       2.984   3.180  17.210  0.00  0.00    +0.000 OA
ENDROOT
BRANCH   1   2
ATOM      2  C   UNL     1       3.997   4.179  17.161  0.00  0.00    +0.000 C 
ATOM      3  C   UNL     1       4.725   4.171  18.494  0.00  0.00    +0.000 C 
ATOM      4  C   UNL     1       5.838   5.206  18.476  0.00  0.00    +0.000 C 
ATOM      5  C   UNL     1       6.756   5.036  17.250  0.00  0.00    +0.000 C 
ATOM      6  C   UNL     1       5.927   4.897  15.968  0.00  0.00    +0.000 C 
ATOM      7  O   UNL     1       4.923   3.888  16.116  0.00  0.00    +0.000 OA
BRANCH   5   8
ATOM      8  O   UNL     1       7.661   6.134  17.134  0.00  0.00    +0.000 OA
ATOM      9  H   UNL     1       8.415   5.985  17.732  0.00  0.00    +0.000 HD
ENDBRANCH   5   8
BRANCH   4  10
ATOM     10  O   UNL     1       6.587   5.124  19.689  0.00  0.00    +0.000 OA
ATOM     11  H   UNL     1       6.853   4.196  19.824  0.00  0.00    +0.000 HD
ENDBRANCH   4  10
BRANCH   6  12
ATOM     12  C   UNL     1       6.800   4.479  14.778  0.00  0.00    +0.000 C 
BRANCH  12  13
ATOM     13  O   UNL     1       7.728   5.525  14.477  0.00  0.00    +0.000 OA
ATOM     14  H   UNL     1       7.804   6.052  15.295  0.00  0.00    +0.000 HD
ENDBRANCH  12  13
ENDBRANCH   6  12
ENDBRANCH   1   2
BRANCH   1  15
ATOM     15  C   UNL     1       3.317   2.170  18.155  0.00  0.00    +0.000 C 
BRANCH  15  16
ATOM     16  C   UNL     1       2.079   1.802  18.949  0.00  0.00    +0.000 C 
BRANCH  16  17
ATOM     17  C   UNL     1       1.027   2.886  18.769  0.00  0.00    +0.000 C 
BRANCH  17  18
ATOM     18  C   UNL     1       1.026   3.867  19.929  0.00  0.00    +0.000 C 
BRANCH  18  19
ATOM     19  C   UNL     1       1.590   5.209  19.473  0.00  0.00    +0.000 C 
BRANCH  19  20
ATOM     20  C   UNL     1       1.896   6.097  20.670  0.00  0.00    +0.000 C 
BRANCH  20  21
ATOM     21  C   UNL     1       1.808   7.569  20.285  0.00  0.00    +0.000 C 
BRANCH  21  22
ATOM     22  C   UNL     1       2.277   7.771  18.850  0.00  0.00    +0.000 C 
BRANCH  22  23
ATOM     23  C   UNL     1       1.534   8.930  18.193  0.00  0.00    +0.000 C 
BRANCH  23  24
ATOM     24  C   UNL     1       1.043   9.919  19.247  0.00  0.00    +0.000 C 
BRANCH  24  26
ATOM     25  C   UNL     1       0.600  12.341  18.769  0.00  0.00    +0.000 C 
ATOM     26  C   UNL     1       0.066  10.924  18.646  0.00  0.00    +0.000 C 
ENDBRANCH  24  26
ENDBRANCH  23  24
ENDBRANCH  22  23
ENDBRANCH  21  22
ENDBRANCH  20  21
ENDBRANCH  19  20
ENDBRANCH  18  19
ENDBRANCH  17  18
ENDBRANCH  16  17
ENDBRANCH  15  16
ENDBRANCH   1  15
TORSDOF 16
ENDMDL
MODEL 9
REMARK VINA RESULT:      -5.6      3.217      5.835
REMARK  Name = 
REMARK  17 active torsions:
REMARK  status: ('A' for Active; 'I' for Inactive)
REMARK    1  A    between atoms: C_1  and  C_2
REMARK    2  A    between atoms: C_2  and  C_3
REMARK    3  A    between atoms: C_3  and  C_4
REMARK    4  A    between atoms: C_4  and  C_5
REMARK    5  A    between atoms: C_5  and  C_6
REMARK    6  A    between atoms: C_6  and  C_7
REMARK    7  A    between atoms: C_7  and  C_8
REMARK    8  A    between atoms: C_8  and  C_9
REMARK    9  A    between atoms: C_9  and  C_10
REMARK   10  A    between atoms: C_10  and  C_11
REMARK   11  A    between atoms: C_11  and  C_12
REMARK   12  A    between atoms: C_12  and  O_13
REMARK   13  A    between atoms: O_13  and  C_14
REMARK   14  A    between atoms: C_16  and  O_17
REMARK   15  A    between atoms: C_18  and  O_19
REMARK   16  A    between atoms: C_20  and  C_21
REMARK   17  A    between atoms: C_21  and  O_22
REMARK                            x       y       z     vdW  Elec       q    Type
REMARK                         _______ _______ _______ _____ _____    ______ ____
ROOT
ATOM      1  O   UNL     1       1.522   6.302  20.894  0.00  0.00    +0.000 OA
ENDROOT
BRANCH   1   2
ATOM      2  C   UNL     1       1.929   7.460  20.172  0.00  0.00    +0.000 C 
ATOM      3  C   UNL     1       2.441   7.007  18.815  0.00  0.00    +0.000 C 
ATOM      4  C   UNL     1       2.861   8.216  17.997  0.00  0.00    +0.000 C 
ATOM      5  C   UNL     1       1.746   9.278  17.934  0.00  0.00    +0.000 C 
ATOM      6  C   UNL     1       1.184   9.558  19.332  0.00  0.00    +0.000 C 
ATOM      7  O   UNL     1       0.822   8.339  19.989  0.00  0.00    +0.000 OA
BRANCH   5   8
ATOM      8  O   UNL     1       2.226  10.487  17.346  0.00  0.00    +0.000 OA
ATOM      9  H   UNL     1       2.321  11.161  18.044  0.00  0.00    +0.000 HD
ENDBRANCH   5   8
BRANCH   4  10
ATOM     10  O   UNL     1       3.242   7.798  16.686  0.00  0.00    +0.000 OA
ATOM     11  H   UNL     1       2.534   7.233  16.327  0.00  0.00    +0.000 HD
ENDBRANCH   4  10
BRANCH   6  12
ATOM     12  C   UNL     1      -0.085  10.417  19.266  0.00  0.00    +0.000 C 
BRANCH  12  13
ATOM     13  O   UNL     1      -0.529  10.506  17.908  0.00  0.00    +0.000 OA
ATOM     14  H   UNL     1       0.204  10.925  17.420  0.00  0.00    +0.000 HD
ENDBRANCH  12  13
ENDBRANCH   6  12
ENDBRANCH   1   2
BRANCH   1  15
ATOM     15  C   UNL     1       2.300   5.173  20.518  0.00  0.00    +0.000 C 
BRANCH  15  16
ATOM     16  C   UNL     1       1.716   3.928  21.159  0.00  0.00    +0.000 C 
BRANCH  16  17
ATOM     17  C   UNL     1       1.455   2.885  20.082  0.00  0.00    +0.000 C 
BRANCH  17  18
ATOM     18  C   UNL     1       2.732   2.484  19.366  0.00  0.00    +0.000 C 
BRANCH  18  19
ATOM     19  C   UNL     1       2.454   2.290  17.879  0.00  0.00    +0.000 C 
BRANCH  19  20
ATOM     20  C   UNL     1       2.898   3.510  17.086  0.00  0.00    +0.000 C 
BRANCH  20  21
ATOM     21  C   UNL     1       4.214   4.055  17.627  0.00  0.00    +0.000 C 
BRANCH  21  22
ATOM     22  C   UNL     1       5.071   4.597  16.490  0.00  0.00    +0.000 C 
BRANCH  22  23
ATOM     23  C   UNL     1       6.547   4.596  16.873  0.00  0.00    +0.000 C 
BRANCH  23  24
ATOM     24  C   UNL     1       7.168   5.967  16.621  0.00  0.00    +0.000 C 
BRANCH  24  26
ATOM     25  C   UNL     1       7.660   5.709  19.067  0.00  0.00    +0.000 C 
ATOM     26  C   UNL     1       7.447   6.695  17.932  0.00  0.00    +0.000 C 
ENDBRANCH  24  26
ENDBRANCH  23  24
ENDBRANCH  22  23
ENDBRANCH  21  22
ENDBRANCH  20  21
ENDBRANCH  19  20
ENDBRANCH  18  19
ENDBRANCH  17  18
ENDBRANCH  16  17
ENDBRANCH  15  16
ENDBRANCH   1  15
TORSDOF 16
ENDMDL
