MODEL 1
REMARK VINA RESULT:      -6.4      0.000      0.000
REMARK  Name = 
REMARK  5 active torsions:
REMARK  status: ('A' for Active; 'I' for Inactive)
REMARK    1  A    between atoms: C_1  and  N_2
REMARK    2  A    between atoms: N_2  and  C_3
REMARK    3  A    between atoms: C_3  and  C_4
REMARK    4  A    between atoms: N_7  and  C_8
REMARK    5  A    between atoms: N_12  and  C_13
REMARK                            x       y       z     vdW  Elec       q    Type
REMARK                         _______ _______ _______ _____ _____    ______ ____
ROOT
ATOM      1  C   UNL     1       7.518   6.470  18.175  0.00  0.00    +0.000 C 
ATOM      2  N   UNL     1       6.112   6.159  17.931  0.00  0.00    +0.000 N 
ATOM      3  C   UNL     1       5.544   5.309  18.851  0.00  0.00    +0.000 C 
ATOM      4  O   UNL     1       6.209   4.841  19.782  0.00  0.00    +0.000 OA
ATOM      5  N   UNL     1       4.223   5.006  18.708  0.00  0.00    +0.000 N 
ATOM      6  H   UNL     1       3.676   5.472  17.999  0.00  0.00    +0.000 HD
ENDROOT
BRANCH   5   7
ATOM      7  C   UNL     1       3.524   4.099  19.615  0.00  0.00    +0.000 C 
ATOM      8  C   UNL     1       2.796   2.973  18.856  0.00  0.00    +0.000 C 
ATOM      9  C   UNL     1       1.873   2.167  19.761  0.00  0.00    +0.000 C 
ATOM     10  C   UNL     1       1.008   3.087  20.608  0.00  0.00    +0.000 C 
ATOM     11  O   UNL     1       1.845   3.918  21.412  0.00  0.00    +0.000 OA
ATOM     12  C   UNL     1       2.592   4.833  20.602  0.00  0.00    +0.000 C 
ENDBRANCH   5   7
BRANCH   2  13
ATOM     13  C   UNL     1       5.523   6.530  16.637  0.00  0.00    +0.000 C 
BRANCH  13  14
ATOM     14  C   UNL     1       5.862   5.558  15.539  0.00  0.00    +0.000 A 
ATOM     15  C   UNL     1       5.298   4.278  15.303  0.00  0.00    +0.000 A 
ATOM     16  C   UNL     1       5.956   3.786  14.201  0.00  0.00    +0.000 A 
ATOM     17  N   UNL     1       6.849   4.750  13.840  0.00  0.00    +0.000 N 
ATOM     18  C   UNL     1       7.704   4.737  12.675  0.00  0.00    +0.000 C 
ATOM     19  N   UNL     1       6.850   5.818  14.664  0.00  0.00    +0.000 NA
ENDBRANCH  13  14
ENDBRANCH   2  13
TORSDOF 3
ENDMDL
MODEL 2
REMARK VINA RESULT:      -6.2      1.375      1.494
REMARK  Name = 
REMARK  5 active torsions:
REMARK  status: ('A' for Active; 'I' for Inactive)
REMARK    1  A    between atoms: C_1  and  N_2
REMARK    2  A    between atoms: N_2  and  C_3
REMARK    3  A    between atoms: C_3  and  C_4
REMARK    4  A    between atoms: N_7  and  C_8
REMARK    5  A    between atoms: N_12  and  C_13
REMARK                            x       y       z     vdW  Elec       q    Type
REMARK                         _______ _______ _______ _____ _____    ______ ____
ROOT
ATOM      1  C   UNL     1       5.587   6.910  17.512  0.00  0.00    +0.000 C 
ATOM      2  N   UNL     1       5.545   5.450  17.483  0.00  0.00    +0.000 N 
ATOM      3  C   UNL     1       4.486   4.892  18.158  0.00  0.00    +0.000 C 
ATOM      4  O   UNL     1       3.667   5.600  18.757  0.00  0.00    +0.000 OA
ATOM      5  N   UNL     1       4.361   3.534  18.140  0.00  0.00    +0.000 N 
ATOM      6  H   UNL     1       4.983   2.983  17.567  0.00  0.00    +0.000 HD
ENDROOT
BRANCH   5   7
ATOM      7  C   UNL     1       3.286   2.836  18.840  0.00  0.00    +0.000 C 
ATOM      8  C   UNL     1       1.907   3.136  18.225  0.00  0.00    +0.000 C 
ATOM      9  C   UNL     1       0.762   2.613  19.083  0.00  0.00    +0.000 C 
ATOM     10  C   UNL     1       0.958   3.003  20.540  0.00  0.00    +0.000 C 
ATOM     11  O   UNL     1       2.189   2.459  21.016  0.00  0.00    +0.000 OA
ATOM     12  C   UNL     1       3.308   3.072  20.365  0.00  0.00    +0.000 C 
ENDBRANCH   5   7
BRANCH   2  13
ATOM     13  C   UNL     1       6.727   4.721  17.001  0.00  0.00    +0.000 C 
BRANCH  13  14
ATOM     14  C   UNL     1       6.765   4.592  15.502  0.00  0.00    +0.000 A 
ATOM     15  C   UNL     1       5.994   3.729  14.682  0.00  0.00    +0.000 A 
ATOM     16  C   UNL     1       6.412   3.975  13.396  0.00  0.00    +0.000 A 
ATOM     17  N   UNL     1       7.377   4.934  13.496  0.00  0.00    +0.000 N 
ATOM     18  C   UNL     1       8.049   5.595  12.402  0.00  0.00    +0.000 C 
ATOM     19  N   UNL     1       7.647   5.293  14.768  0.00  0.00    +0.000 NA
ENDBRANCH  13  14
ENDBRANCH   2  13
TORSDOF 3
ENDMDL
MODEL 3
REMARK VINA RESULT:      -6.2      1.901      3.383
REMARK  Name = 
REMARK  5 active torsions:
REMARK  status: ('A' for Active; 'I' for Inactive)
REMARK    1  A    between atoms: C_1  and  N_2
REMARK    2  A    between atoms: N_2  and  C_3
REMARK    3  A    between atoms: C_3  and  C_4
REMARK    4  A    between atoms: N_7  and  C_8
REMARK    5  A    between atoms: N_12  and  C_13
REMARK                            x       y       z     vdW  Elec       q    Type
REMARK                         _______ _______ _______ _____ _____    ______ ____
ROOT
ATOM      1  C   UNL     1       6.011   3.940  15.130  0.00  0.00    +0.000 C 
ATOM      2  N   UNL     1       5.344   4.601  16.249  0.00  0.00    +0.000 N 
ATOM      3  C   UNL     1       4.566   3.774  17.024  0.00  0.00    +0.000 C 
ATOM      4  O   UNL     1       4.441   2.575  16.749  0.00  0.00    +0.000 OA
ATOM      5  N   UNL     1       3.945   4.316  18.110  0.00  0.00    +0.000 N 
ATOM      6  H   UNL     1       4.137   5.272  18.370  0.00  0.00    +0.000 HD
ENDROOT
BRANCH   5   7
ATOM      7  C   UNL     1       3.080   3.534  18.990  0.00  0.00    +0.000 C 
ATOM      8  C   UNL     1       1.677   4.155  19.118  0.00  0.00    +0.000 C 
ATOM      9  C   UNL     1       0.846   3.492  20.210  0.00  0.00    +0.000 C 
ATOM     10  C   UNL     1       1.652   3.357  21.493  0.00  0.00    +0.000 C 
ATOM     11  O   UNL     1       2.814   2.568  21.243  0.00  0.00    +0.000 OA
ATOM     12  C   UNL     1       3.719   3.250  20.365  0.00  0.00    +0.000 C 
ENDBRANCH   5   7
BRANCH   2  13
ATOM     13  C   UNL     1       5.329   6.070  16.291  0.00  0.00    +0.000 C 
BRANCH  13  14
ATOM     14  C   UNL     1       6.449   6.644  17.117  0.00  0.00    +0.000 A 
ATOM     15  C   UNL     1       7.302   5.962  18.023  0.00  0.00    +0.000 A 
ATOM     16  C   UNL     1       8.138   6.925  18.534  0.00  0.00    +0.000 A 
ATOM     17  N   UNL     1       7.766   8.094  17.940  0.00  0.00    +0.000 N 
ATOM     18  C   UNL     1       8.417   9.376  18.082  0.00  0.00    +0.000 C 
ATOM     19  N   UNL     1       6.711   7.963  17.111  0.00  0.00    +0.000 NA
ENDBRANCH  13  14
ENDBRANCH   2  13
TORSDOF 3
ENDMDL
MODEL 4
REMARK VINA RESULT:      -6.2      2.677      5.785
REMARK  Name = 
REMARK  5 active torsions:
REMARK  status: ('A' for Active; 'I' for Inactive)
REMARK    1  A    between atoms: C_1  and  N_2
REMARK    2  A    between atoms: N_2  and  C_3
REMARK    3  A    between atoms: C_3  and  C_4
REMARK    4  A    between atoms: N_7  and  C_8
REMARK    5  A    between atoms: N_12  and  C_13
REMARK                            x       y       z     vdW  Elec       q    Type
REMARK                         _______ _______ _______ _____ _____    ______ ____
ROOT
ATOM      1  C   UNL     1       1.524   7.662  20.349  0.00  0.00    +0.000 C 
ATOM      2  N   UNL     1       2.433   6.570  20.013  0.00  0.00    +0.000 N 
ATOM      3  C   UNL     1       3.056   6.695  18.793  0.00  0.00    +0.000 C 
ATOM      4  O   UNL     1       2.818   7.657  18.052  0.00  0.00    +0.000 OA
ATOM      5  N   UNL     1       3.949   5.731  18.431  0.00  0.00    +0.000 N 
ATOM      6  H   UNL     1       4.198   5.008  19.089  0.00  0.00    +0.000 HD
ENDROOT
BRANCH   5   7
ATOM      7  C   UNL     1       4.651   5.754  17.150  0.00  0.00    +0.000 C 
ATOM      8  C   UNL     1       4.645   4.376  16.465  0.00  0.00    +0.000 C 
ATOM      9  C   UNL     1       5.571   4.325  15.256  0.00  0.00    +0.000 C 
ATOM     10  C   UNL     1       6.933   4.911  15.594  0.00  0.00    +0.000 C 
ATOM     11  O   UNL     1       6.775   6.268  16.008  0.00  0.00    +0.000 OA
ATOM     12  C   UNL     1       6.072   6.347  17.254  0.00  0.00    +0.000 C 
ENDBRANCH   5   7
BRANCH   2  13
ATOM     13  C   UNL     1       2.399   5.349  20.830  0.00  0.00    +0.000 C 
BRANCH  13  14
ATOM     14  C   UNL     1       2.211   4.101  20.010  0.00  0.00    +0.000 A 
ATOM     15  C   UNL     1       1.007   3.597  19.452  0.00  0.00    +0.000 A 
ATOM     16  C   UNL     1       1.358   2.431  18.816  0.00  0.00    +0.000 A 
ATOM     17  N   UNL     1       2.700   2.289  19.013  0.00  0.00    +0.000 N 
ATOM     18  C   UNL     1       3.549   1.265  18.449  0.00  0.00    +0.000 C 
ATOM     19  N   UNL     1       3.237   3.263  19.776  0.00  0.00    +0.000 NA
ENDBRANCH  13  14
ENDBRANCH   2  13
TORSDOF 3
ENDMDL
MODEL 5
REMARK VINA RESULT:      -6.2      1.018      1.403
REMARK  Name = 
REMARK  5 active torsions:
REMARK  status: ('A' for Active; 'I' for Inactive)
REMARK    1  A    between atoms: C_1  and  N_2
REMARK    2  A    between atoms: N_2  and  C_3
REMARK    3  A    between atoms: C_3  and  C_4
REMARK    4  A    between atoms: N_7  and  C_8
REMARK    5  A    between atoms: N_12  and  C_13
REMARK                            x       y       z     vdW  Elec       q    Type
REMARK                         _______ _______ _______ _____ _____    ______ ____
ROOT
ATOM      1  C   UNL     1       7.631   4.767  18.353  0.00  0.00    +0.000 C 
ATOM      2  N   UNL     1       6.305   5.234  17.956  0.00  0.00    +0.000 N 
ATOM      3  C   UNL     1       5.261   4.605  18.591  0.00  0.00    +0.000 C 
ATOM      4  O   UNL     1       5.464   3.700  19.409  0.00  0.00    +0.000 OA
ATOM      5  N   UNL     1       3.995   5.017  18.298  0.00  0.00    +0.000 N 
ATOM      6  H   UNL     1       3.855   5.819  17.701  0.00  0.00    +0.000 HD
ENDROOT
BRANCH   5   7
ATOM      7  C   UNL     1       2.812   4.406  18.899  0.00  0.00    +0.000 C 
ATOM      8  C   UNL     1       2.670   4.767  20.389  0.00  0.00    +0.000 C 
ATOM      9  C   UNL     1       1.588   3.952  21.084  0.00  0.00    +0.000 C 
ATOM     10  C   UNL     1       1.729   2.474  20.752  0.00  0.00    +0.000 C 
ATOM     11  O   UNL     1       1.621   2.292  19.341  0.00  0.00    +0.000 OA
ATOM     12  C   UNL     1       2.734   2.883  18.659  0.00  0.00    +0.000 C 
ENDBRANCH   5   7
BRANCH   2  13
ATOM     13  C   UNL     1       6.187   6.091  16.768  0.00  0.00    +0.000 C 
BRANCH  13  14
ATOM     14  C   UNL     1       6.252   5.317  15.479  0.00  0.00    +0.000 A 
ATOM     15  C   UNL     1       5.402   4.266  15.049  0.00  0.00    +0.000 A 
ATOM     16  C   UNL     1       5.886   3.882  13.821  0.00  0.00    +0.000 A 
ATOM     17  N   UNL     1       6.962   4.683  13.579  0.00  0.00    +0.000 N 
ATOM     18  C   UNL     1       7.746   4.726  12.366  0.00  0.00    +0.000 C 
ATOM     19  N   UNL     1       7.239   5.531  14.589  0.00  0.00    +0.000 NA
ENDBRANCH  13  14
ENDBRANCH   2  13
TORSDOF 3
ENDMDL
MODEL 6
REMARK VINA RESULT:      -6.1      1.462      1.670
REMARK  Name = 
REMARK  5 active torsions:
REMARK  status: ('A' for Active; 'I' for Inactive)
REMARK    1  A    between atoms: C_1  and  N_2
REMARK    2  A    between atoms: N_2  and  C_3
REMARK    3  A    between atoms: C_3  and  C_4
REMARK    4  A    between atoms: N_7  and  C_8
REMARK    5  A    between atoms: N_12  and  C_13
REMARK                            x       y       z     vdW  Elec       q    Type
REMARK                         _______ _______ _______ _____ _____    ______ ____
ROOT
ATOM      1  C   UNL     1       7.347   6.577  18.365  0.00  0.00    +0.000 C 
ATOM      2  N   UNL     1       6.607   5.401  17.915  0.00  0.00    +0.000 N 
ATOM      3  C   UNL     1       5.355   5.264  18.467  0.00  0.00    +0.000 C 
ATOM      4  O   UNL     1       4.932   6.078  19.298  0.00  0.00    +0.000 OA
ATOM      5  N   UNL     1       4.591   4.210  18.063  0.00  0.00    +0.000 N 
ATOM      6  H   UNL     1       4.916   3.613  17.317  0.00  0.00    +0.000 HD
ENDROOT
BRANCH   5   7
ATOM      7  C   UNL     1       3.256   3.958  18.599  0.00  0.00    +0.000 C 
ATOM      8  C   UNL     1       3.266   2.866  19.684  0.00  0.00    +0.000 C 
ATOM      9  C   UNL     1       1.862   2.425  20.079  0.00  0.00    +0.000 C 
ATOM     10  C   UNL     1       1.016   2.152  18.844  0.00  0.00    +0.000 C 
ATOM     11  O   UNL     1       0.932   3.337  18.054  0.00  0.00    +0.000 OA
ATOM     12  C   UNL     1       2.209   3.678  17.501  0.00  0.00    +0.000 C 
ENDBRANCH   5   7
BRANCH   2  13
ATOM     13  C   UNL     1       7.326   4.359  17.168  0.00  0.00    +0.000 C 
BRANCH  13  14
ATOM     14  C   UNL     1       7.030   4.388  15.692  0.00  0.00    +0.000 A 
ATOM     15  C   UNL     1       6.009   3.693  14.994  0.00  0.00    +0.000 A 
ATOM     16  C   UNL     1       6.170   4.036  13.673  0.00  0.00    +0.000 A 
ATOM     17  N   UNL     1       7.237   4.884  13.636  0.00  0.00    +0.000 N 
ATOM     18  C   UNL     1       7.733   5.593  12.479  0.00  0.00    +0.000 C 
ATOM     19  N   UNL     1       7.810   5.078  14.841  0.00  0.00    +0.000 NA
ENDBRANCH  13  14
ENDBRANCH   2  13
TORSDOF 3
ENDMDL
MODEL 7
REMARK VINA RESULT:      -6.0      2.006      3.686
REMARK  Name = 
REMARK  5 active torsions:
REMARK  status: ('A' for Active; 'I' for Inactive)
REMARK    1  A    between atoms: C_1  and  N_2
REMARK    2  A    between atoms: N_2  and  C_3
REMARK    3  A    between atoms: C_3  and  C_4
REMARK    4  A    between atoms: N_7  and  C_8
REMARK    5  A    between atoms: N_12  and  C_13
REMARK                            x       y       z     vdW  Elec       q    Type
REMARK                         _______ _______ _______ _____ _____    ______ ____
ROOT
ATOM      1  C   UNL     1       6.659   4.325  15.720  0.00  0.00    +0.000 C 
ATOM      2  N   UNL     1       6.314   4.355  17.139  0.00  0.00    +0.000 N 
ATOM      3  C   UNL     1       4.990   4.106  17.414  0.00  0.00    +0.000 C 
ATOM      4  O   UNL     1       4.177   3.905  16.504  0.00  0.00    +0.000 OA
ATOM      5  N   UNL     1       4.604   4.080  18.721  0.00  0.00    +0.000 N 
ATOM      6  H   UNL     1       5.299   4.152  19.450  0.00  0.00    +0.000 HD
ENDROOT
BRANCH   5   7
ATOM      7  C   UNL     1       3.220   3.845  19.126  0.00  0.00    +0.000 C 
ATOM      8  C   UNL     1       2.720   4.913  20.115  0.00  0.00    +0.000 C 
ATOM      9  C   UNL     1       1.372   4.551  20.727  0.00  0.00    +0.000 C 
ATOM     10  C   UNL     1       1.372   3.112  21.220  0.00  0.00    +0.000 C 
ATOM     11  O   UNL     1       1.642   2.236  20.127  0.00  0.00    +0.000 OA
ATOM     12  C   UNL     1       2.979   2.411  19.645  0.00  0.00    +0.000 C 
ENDBRANCH   5   7
BRANCH   2  13
ATOM     13  C   UNL     1       7.293   4.899  18.091  0.00  0.00    +0.000 C 
BRANCH  13  14
ATOM     14  C   UNL     1       7.438   6.394  17.992  0.00  0.00    +0.000 A 
ATOM     15  C   UNL     1       6.687   7.291  17.189  0.00  0.00    +0.000 A 
ATOM     16  C   UNL     1       7.214   8.535  17.440  0.00  0.00    +0.000 A 
ATOM     17  N   UNL     1       8.217   8.339  18.343  0.00  0.00    +0.000 N 
ATOM     18  C   UNL     1       9.004   9.364  18.990  0.00  0.00    +0.000 C 
ATOM     19  N   UNL     1       8.409   7.043  18.659  0.00  0.00    +0.000 NA
ENDBRANCH  13  14
ENDBRANCH   2  13
TORSDOF 3
ENDMDL
MODEL 8
REMARK VINA RESULT:      -6.0      1.710      2.144
REMARK  Name = 
REMARK  5 active torsions:
REMARK  status: ('A' for Active; 'I' for Inactive)
REMARK    1  A    between atoms: C_1  and  N_2
REMARK    2  A    between atoms: N_2  and  C_3
REMARK    3  A    between atoms: C_3  and  C_4
REMARK    4  A    between atoms: N_7  and  C_8
REMARK    5  A    between atoms: N_12  and  C_13
REMARK                            x       y       z     vdW  Elec       q    Type
REMARK                         _______ _______ _______ _____ _____    ______ ____
ROOT
ATOM      1  C   UNL     1       5.516   6.733  16.552  0.00  0.00    +0.000 C 
ATOM      2  N   UNL     1       5.566   5.277  16.644  0.00  0.00    +0.000 N 
ATOM      3  C   UNL     1       4.589   4.717  17.433  0.00  0.00    +0.000 C 
ATOM      4  O   UNL     1       3.766   5.424  18.026  0.00  0.00    +0.000 OA
ATOM      5  N   UNL     1       4.552   3.358  17.533  0.00  0.00    +0.000 N 
ATOM      6  H   UNL     1       5.171   2.797  16.967  0.00  0.00    +0.000 HD
ENDROOT
BRANCH   5   7
ATOM      7  C   UNL     1       3.570   2.659  18.359  0.00  0.00    +0.000 C 
ATOM      8  C   UNL     1       2.143   2.796  17.798  0.00  0.00    +0.000 C 
ATOM      9  C   UNL     1       1.086   2.283  18.767  0.00  0.00    +0.000 C 
ATOM     10  C   UNL     1       1.323   2.833  20.165  0.00  0.00    +0.000 C 
ATOM     11  O   UNL     1       2.614   2.430  20.621  0.00  0.00    +0.000 OA
ATOM     12  C   UNL     1       3.649   3.051  19.850  0.00  0.00    +0.000 C 
ENDBRANCH   5   7
BRANCH   2  13
ATOM     13  C   UNL     1       6.760   4.580  16.145  0.00  0.00    +0.000 C 
BRANCH  13  14
ATOM     14  C   UNL     1       6.736   4.372  14.654  0.00  0.00    +0.000 A 
ATOM     15  C   UNL     1       7.571   4.972  13.676  0.00  0.00    +0.000 A 
ATOM     16  C   UNL     1       7.139   4.474  12.471  0.00  0.00    +0.000 A 
ATOM     17  N   UNL     1       6.106   3.634  12.764  0.00  0.00    +0.000 N 
ATOM     18  C   UNL     1       5.389   2.794  11.832  0.00  0.00    +0.000 C 
ATOM     19  N   UNL     1       5.806   3.590  14.078  0.00  0.00    +0.000 NA
ENDBRANCH  13  14
ENDBRANCH   2  13
TORSDOF 3
ENDMDL
MODEL 9
REMARK VINA RESULT:      -5.9      1.930      3.348
REMARK  Name = 
REMARK  5 active torsions:
REMARK  status: ('A' for Active; 'I' for Inactive)
REMARK    1  A    between atoms: C_1  and  N_2
REMARK    2  A    between atoms: N_2  and  C_3
REMARK    3  A    between atoms: C_3  and  C_4
REMARK    4  A    between atoms: N_7  and  C_8
REMARK    5  A    between atoms: N_12  and  C_13
REMARK                            x       y       z     vdW  Elec       q    Type
REMARK                         _______ _______ _______ _____ _____    ______ ____
ROOT
ATOM      1  C   UNL     1       5.262   5.043  14.883  0.00  0.00    +0.000 C 
ATOM      2  N   UNL     1       5.665   4.395  16.127  0.00  0.00    +0.000 N 
ATOM      3  C   UNL     1       4.628   4.086  16.976  0.00  0.00    +0.000 C 
ATOM      4  O   UNL     1       3.461   4.375  16.688  0.00  0.00    +0.000 OA
ATOM      5  N   UNL     1       4.927   3.443  18.141  0.00  0.00    +0.000 N 
ATOM      6  H   UNL     1       5.872   3.132  18.312  0.00  0.00    +0.000 HD
ENDROOT
BRANCH   5   7
ATOM      7  C   UNL     1       3.907   3.085  19.123  0.00  0.00    +0.000 C 
ATOM      8  C   UNL     1       2.842   2.145  18.532  0.00  0.00    +0.000 C 
ATOM      9  C   UNL     1       1.651   1.957  19.464  0.00  0.00    +0.000 C 
ATOM     10  C   UNL     1       1.160   3.298  19.988  0.00  0.00    +0.000 C 
ATOM     11  O   UNL     1       2.216   3.944  20.699  0.00  0.00    +0.000 OA
ATOM     12  C   UNL     1       3.280   4.315  19.814  0.00  0.00    +0.000 C 
ENDBRANCH   5   7
BRANCH   2  13
ATOM     13  C   UNL     1       7.091   4.379  16.484  0.00  0.00    +0.000 C 
BRANCH  13  14
ATOM     14  C   UNL     1       7.487   5.536  17.361  0.00  0.00    +0.000 A 
ATOM     15  C   UNL     1       7.810   5.513  18.742  0.00  0.00    +0.000 A 
ATOM     16  C   UNL     1       8.080   6.818  19.077  0.00  0.00    +0.000 A 
ATOM     17  N   UNL     1       7.913   7.539  17.931  0.00  0.00    +0.000 N 
ATOM     18  C   UNL     1       8.181   8.947  17.754  0.00  0.00    +0.000 C 
ATOM     19  N   UNL     1       7.505   6.794  16.884  0.00  0.00    +0.000 NA
ENDBRANCH  13  14
ENDBRANCH   2  13
TORSDOF 3
ENDMDL
