MODEL 1
REMARK VINA RESULT:      -6.9      0.000      0.000
REMARK  Name = 
REMARK  4 active torsions:
REMARK  status: ('A' for Active; 'I' for Inactive)
REMARK    1  A    between atoms: C_1  and  O_2
REMARK    2  A    between atoms: O_2  and  C_3
REMARK    3  A    between atoms: C_3  and  C_5
REMARK    4  A    between atoms: C_5  and  N_6
REMARK                            x       y       z     vdW  Elec       q    Type
REMARK                         _______ _______ _______ _____ _____    ______ ____
ROOT
ATOM      1  N   UNL     1       4.618   5.359  18.724  0.00  0.00    +0.000 NA
ATOM      2  C   UNL     1       3.750   6.323  17.964  0.00  0.00    +0.000 C 
ATOM      3  C   UNL     1       2.218   6.219  18.230  0.00  0.00    +0.000 C 
ATOM      4  C   UNL     1       1.482   7.465  17.634  0.00  0.00    +0.000 C 
ATOM      5  C   UNL     1       1.603   8.789  18.391  0.00  0.00    +0.000 C 
ATOM      6  N   UNL     1       1.584   8.724  19.844  0.00  0.00    +0.000 NA
ATOM      7  C   UNL     1       2.273   7.582  20.409  0.00  0.00    +0.000 C 
ATOM      8  C   UNL     1       1.890   6.263  19.739  0.00  0.00    +0.000 C 
ATOM      9  C   UNL     1       1.671   5.021  17.366  0.00  0.00    +0.000 C 
ATOM     10  O   UNL     1       1.376   3.730  17.880  0.00  0.00    +0.000 OA
ATOM     11  C   UNL     1       1.819   3.376  19.101  0.00  0.00    +0.000 A 
ATOM     12  C   UNL     1       0.796   3.178  20.042  0.00  0.00    +0.000 A 
ATOM     13  C   UNL     1       1.097   2.870  21.366  0.00  0.00    +0.000 A 
ATOM     14  C   UNL     1       2.419   2.635  21.727  0.00  0.00    +0.000 A 
ATOM     15  C   UNL     1       3.434   2.750  20.772  0.00  0.00    +0.000 A 
ATOM     16  C   UNL     1       3.146   3.199  19.468  0.00  0.00    +0.000 A 
ATOM     17  S   UNL     1       4.508   3.669  18.413  0.00  0.00    +0.000 S 
ATOM     18  O   UNL     1       5.690   3.034  18.971  0.00  0.00    +0.000 OA
ATOM     19  O   UNL     1       4.169   3.463  17.032  0.00  0.00    +0.000 OA
ATOM     20  H   UNL     1       0.627   8.768  20.195  0.00  0.00    +0.000 HD
ENDROOT
BRANCH   1  21
ATOM     21  C   UNL     1       6.032   5.848  18.875  0.00  0.00    +0.000 C 
BRANCH  21  22
ATOM     22  C   UNL     1       6.789   6.254  17.633  0.00  0.00    +0.000 C 
ATOM     23  O   UNL     1       6.864   7.396  17.199  0.00  0.00    +0.000 OA
BRANCH  22  25
ATOM     24  C   UNL     1       7.151   4.744  15.831  0.00  0.00    +0.000 C 
ATOM     25  O   UNL     1       7.487   5.185  17.151  0.00  0.00    +0.000 OA
ENDBRANCH  22  25
ENDBRANCH  21  22
ENDBRANCH   1  21
TORSDOF 3
ENDMDL
MODEL 2
REMARK VINA RESULT:      -6.7      0.689      1.063
REMARK  Name = 
REMARK  4 active torsions:
REMARK  status: ('A' for Active; 'I' for Inactive)
REMARK    1  A    between atoms: C_1  and  O_2
REMARK    2  A    between atoms: O_2  and  C_3
REMARK    3  A    between atoms: C_3  and  C_5
REMARK    4  A    between atoms: C_5  and  N_6
REMARK                            x       y       z     vdW  Elec       q    Type
REMARK                         _______ _______ _______ _____ _____    ______ ____
ROOT
ATOM      1  N   UNL     1       4.685   5.145  19.007  0.00  0.00    +0.000 NA
ATOM      2  C   UNL     1       3.933   6.124  18.148  0.00  0.00    +0.000 C 
ATOM      3  C   UNL     1       2.380   6.082  18.263  0.00  0.00    +0.000 C 
ATOM      4  C   UNL     1       1.754   7.341  17.575  0.00  0.00    +0.000 C 
ATOM      5  C   UNL     1       1.852   8.675  18.317  0.00  0.00    +0.000 C 
ATOM      6  N   UNL     1       1.688   8.643  19.762  0.00  0.00    +0.000 NA
ATOM      7  C   UNL     1       2.273   7.489  20.412  0.00  0.00    +0.000 C 
ATOM      8  C   UNL     1       1.907   6.170  19.732  0.00  0.00    +0.000 C 
ATOM      9  C   UNL     1       1.874   4.886  17.371  0.00  0.00    +0.000 C 
ATOM     10  O   UNL     1       1.481   3.619  17.876  0.00  0.00    +0.000 OA
ATOM     11  C   UNL     1       1.788   3.275  19.142  0.00  0.00    +0.000 A 
ATOM     12  C   UNL     1       0.670   3.135  19.981  0.00  0.00    +0.000 A 
ATOM     13  C   UNL     1       0.827   2.845  21.333  0.00  0.00    +0.000 A 
ATOM     14  C   UNL     1       2.097   2.570  21.826  0.00  0.00    +0.000 A 
ATOM     15  C   UNL     1       3.205   2.626  20.975  0.00  0.00    +0.000 A 
ATOM     16  C   UNL     1       3.065   3.057  19.640  0.00  0.00    +0.000 A 
ATOM     17  S   UNL     1       4.541   3.453  18.717  0.00  0.00    +0.000 S 
ATOM     18  O   UNL     1       5.637   2.788  19.401  0.00  0.00    +0.000 OA
ATOM     19  O   UNL     1       4.331   3.231  17.313  0.00  0.00    +0.000 OA
ATOM     20  H   UNL     1       0.704   8.730  20.016  0.00  0.00    +0.000 HD
ENDROOT
BRANCH   1  21
ATOM     21  C   UNL     1       6.095   5.584  19.289  0.00  0.00    +0.000 C 
BRANCH  21  22
ATOM     22  C   UNL     1       7.127   5.432  18.197  0.00  0.00    +0.000 C 
ATOM     23  O   UNL     1       7.882   4.477  18.073  0.00  0.00    +0.000 OA
BRANCH  22  25
ATOM     24  C   UNL     1       7.653   7.678  17.615  0.00  0.00    +0.000 C 
ATOM     25  O   UNL     1       6.994   6.448  17.295  0.00  0.00    +0.000 OA
ENDBRANCH  22  25
ENDBRANCH  21  22
ENDBRANCH   1  21
TORSDOF 3
ENDMDL
MODEL 3
REMARK VINA RESULT:      -6.1      2.656      4.799
REMARK  Name = 
REMARK  4 active torsions:
REMARK  status: ('A' for Active; 'I' for Inactive)
REMARK    1  A    between atoms: C_1  and  O_2
REMARK    2  A    between atoms: O_2  and  C_3
REMARK    3  A    between atoms: C_3  and  C_5
REMARK    4  A    between atoms: C_5  and  N_6
REMARK                            x       y       z     vdW  Elec       q    Type
REMARK                         _______ _______ _______ _____ _____    ______ ____
ROOT
ATOM      1  N   UNL     1       4.843   4.944  16.207  0.00  0.00    +0.000 NA
ATOM      2  C   UNL     1       5.076   3.713  17.039  0.00  0.00    +0.000 C 
ATOM      3  C   UNL     1       4.351   3.674  18.418  0.00  0.00    +0.000 C 
ATOM      4  C   UNL     1       4.420   2.231  19.022  0.00  0.00    +0.000 C 
ATOM      5  C   UNL     1       3.502   1.166  18.420  0.00  0.00    +0.000 C 
ATOM      6  N   UNL     1       2.164   1.588  18.036  0.00  0.00    +0.000 NA
ATOM      7  C   UNL     1       2.088   2.916  17.464  0.00  0.00    +0.000 C 
ATOM      8  C   UNL     1       2.840   3.963  18.285  0.00  0.00    +0.000 C 
ATOM      9  C   UNL     1       5.206   4.534  19.423  0.00  0.00    +0.000 C 
ATOM     10  O   UNL     1       4.886   5.860  19.817  0.00  0.00    +0.000 OA
ATOM     11  C   UNL     1       3.969   6.564  19.125  0.00  0.00    +0.000 A 
ATOM     12  C   UNL     1       2.804   6.851  19.855  0.00  0.00    +0.000 A 
ATOM     13  C   UNL     1       1.737   7.516  19.257  0.00  0.00    +0.000 A 
ATOM     14  C   UNL     1       1.879   8.009  17.965  0.00  0.00    +0.000 A 
ATOM     15  C   UNL     1       3.071   7.797  17.264  0.00  0.00    +0.000 A 
ATOM     16  C   UNL     1       4.097   7.003  17.814  0.00  0.00    +0.000 A 
ATOM     17  S   UNL     1       5.425   6.473  16.745  0.00  0.00    +0.000 S 
ATOM     18  O   UNL     1       5.416   7.378  15.609  0.00  0.00    +0.000 OA
ATOM     19  O   UNL     1       6.632   6.280  17.500  0.00  0.00    +0.000 OA
ATOM     20  H   UNL     1       1.519   1.505  18.822  0.00  0.00    +0.000 HD
ENDROOT
BRANCH   1  21
ATOM     21  C   UNL     1       5.068   4.702  14.740  0.00  0.00    +0.000 C 
BRANCH  21  22
ATOM     22  C   UNL     1       6.476   4.434  14.263  0.00  0.00    +0.000 C 
ATOM     23  O   UNL     1       7.468   5.060  14.616  0.00  0.00    +0.000 OA
BRANCH  22  25
ATOM     24  C   UNL     1       5.746   3.356  12.273  0.00  0.00    +0.000 C 
ATOM     25  O   UNL     1       6.494   3.309  13.492  0.00  0.00    +0.000 OA
ENDBRANCH  22  25
ENDBRANCH  21  22
ENDBRANCH   1  21
TORSDOF 3
ENDMDL
MODEL 4
REMARK VINA RESULT:      -6.0      2.570      4.901
REMARK  Name = 
REMARK  4 active torsions:
REMARK  status: ('A' for Active; 'I' for Inactive)
REMARK    1  A    between atoms: C_1  and  O_2
REMARK    2  A    between atoms: O_2  and  C_3
REMARK    3  A    between atoms: C_3  and  C_5
REMARK    4  A    between atoms: C_5  and  N_6
REMARK                            x       y       z     vdW  Elec       q    Type
REMARK                         _______ _______ _______ _____ _____    ______ ____
ROOT
ATOM      1  N   UNL     1       3.771   3.099  20.036  0.00  0.00    +0.000 NA
ATOM      2  C   UNL     1       4.722   2.995  18.876  0.00  0.00    +0.000 C 
ATOM      3  C   UNL     1       4.845   4.261  17.977  0.00  0.00    +0.000 C 
ATOM      4  C   UNL     1       6.079   4.127  17.023  0.00  0.00    +0.000 C 
ATOM      5  C   UNL     1       7.469   4.324  17.630  0.00  0.00    +0.000 C 
ATOM      6  N   UNL     1       7.608   5.362  18.640  0.00  0.00    +0.000 NA
ATOM      7  C   UNL     1       6.479   5.488  19.538  0.00  0.00    +0.000 C 
ATOM      8  C   UNL     1       5.137   5.532  18.807  0.00  0.00    +0.000 C 
ATOM      9  C   UNL     1       3.617   4.261  16.991  0.00  0.00    +0.000 C 
ATOM     10  O   UNL     1       2.456   5.062  17.156  0.00  0.00    +0.000 OA
ATOM     11  C   UNL     1       2.221   5.670  18.334  0.00  0.00    +0.000 A 
ATOM     12  C   UNL     1       2.283   7.072  18.273  0.00  0.00    +0.000 A 
ATOM     13  C   UNL     1       2.126   7.842  19.422  0.00  0.00    +0.000 A 
ATOM     14  C   UNL     1       1.781   7.219  20.616  0.00  0.00    +0.000 A 
ATOM     15  C   UNL     1       1.636   5.829  20.663  0.00  0.00    +0.000 A 
ATOM     16  C   UNL     1       1.933   5.037  19.536  0.00  0.00    +0.000 A 
ATOM     17  S   UNL     1       2.081   3.272  19.755  0.00  0.00    +0.000 S 
ATOM     18  O   UNL     1       1.388   2.958  20.993  0.00  0.00    +0.000 OA
ATOM     19  O   UNL     1       1.731   2.583  18.543  0.00  0.00    +0.000 OA
ATOM     20  H   UNL     1       7.818   6.261  18.209  0.00  0.00    +0.000 HD
ENDROOT
BRANCH   1  21
ATOM     21  C   UNL     1       4.097   2.134  21.141  0.00  0.00    +0.000 C 
BRANCH  21  22
ATOM     22  C   UNL     1       5.166   1.094  20.896  0.00  0.00    +0.000 C 
ATOM     23  O   UNL     1       5.319   0.479  19.849  0.00  0.00    +0.000 OA
BRANCH  22  25
ATOM     24  C   UNL     1       6.494  -0.247  22.343  0.00  0.00    +0.000 C 
ATOM     25  O   UNL     1       6.014   1.047  21.964  0.00  0.00    +0.000 OA
ENDBRANCH  22  25
ENDBRANCH  21  22
ENDBRANCH   1  21
TORSDOF 3
ENDMDL
MODEL 5
REMARK VINA RESULT:      -5.5      2.506      4.838
REMARK  Name = 
REMARK  4 active torsions:
REMARK  status: ('A' for Active; 'I' for Inactive)
REMARK    1  A    between atoms: C_1  and  O_2
REMARK    2  A    between atoms: O_2  and  C_3
REMARK    3  A    between atoms: C_3  and  C_5
REMARK    4  A    between atoms: C_5  and  N_6
REMARK                            x       y       z     vdW  Elec       q    Type
REMARK                         _______ _______ _______ _____ _____    ______ ____
ROOT
ATOM      1  N   UNL     1       3.968   2.834  19.068  0.00  0.00    +0.000 NA
ATOM      2  C   UNL     1       5.042   3.145  18.062  0.00  0.00    +0.000 C 
ATOM      3  C   UNL     1       5.205   4.646  17.680  0.00  0.00    +0.000 C 
ATOM      4  C   UNL     1       6.539   4.859  16.889  0.00  0.00    +0.000 C 
ATOM      5  C   UNL     1       7.846   4.837  17.684  0.00  0.00    +0.000 C 
ATOM      6  N   UNL     1       7.829   5.457  19.001  0.00  0.00    +0.000 NA
ATOM      7  C   UNL     1       6.605   5.257  19.748  0.00  0.00    +0.000 C 
ATOM      8  C   UNL     1       5.349   5.548  18.926  0.00  0.00    +0.000 C 
ATOM      9  C   UNL     1       4.091   4.985  16.619  0.00  0.00    +0.000 C 
ATOM     10  O   UNL     1       2.885   5.674  16.915  0.00  0.00    +0.000 OA
ATOM     11  C   UNL     1       2.498   5.831  18.195  0.00  0.00    +0.000 A 
ATOM     12  C   UNL     1       2.503   7.166  18.631  0.00  0.00    +0.000 A 
ATOM     13  C   UNL     1       2.189   7.485  19.949  0.00  0.00    +0.000 A 
ATOM     14  C   UNL     1       1.746   6.483  20.805  0.00  0.00    +0.000 A 
ATOM     15  C   UNL     1       1.659   5.163  20.349  0.00  0.00    +0.000 A 
ATOM     16  C   UNL     1       2.111   4.817  19.061  0.00  0.00    +0.000 A 
ATOM     17  S   UNL     1       2.312   3.087  18.669  0.00  0.00    +0.000 S 
ATOM     18  O   UNL     1       1.505   2.357  19.632  0.00  0.00    +0.000 OA
ATOM     19  O   UNL     1       2.126   2.864  17.262  0.00  0.00    +0.000 OA
ATOM     20  H   UNL     1       8.044   6.451  18.935  0.00  0.00    +0.000 HD
ENDROOT
BRANCH   1  21
ATOM     21  C   UNL     1       4.216   1.544  19.800  0.00  0.00    +0.000 C 
BRANCH  21  22
ATOM     22  C   UNL     1       4.410   1.594  21.298  0.00  0.00    +0.000 C 
ATOM     23  O   UNL     1       3.514   1.746  22.117  0.00  0.00    +0.000 OA
BRANCH  22  25
ATOM     24  C   UNL     1       5.977  -0.021  22.070  0.00  0.00    +0.000 C 
ATOM     25  O   UNL     1       5.709   1.304  21.601  0.00  0.00    +0.000 OA
ENDBRANCH  22  25
ENDBRANCH  21  22
ENDBRANCH   1  21
TORSDOF 3
ENDMDL
MODEL 6
REMARK VINA RESULT:      -5.4      7.759      9.843
REMARK  Name = 
REMARK  4 active torsions:
REMARK  status: ('A' for Active; 'I' for Inactive)
REMARK    1  A    between atoms: C_1  and  O_2
REMARK    2  A    between atoms: O_2  and  C_3
REMARK    3  A    between atoms: C_3  and  C_5
REMARK    4  A    between atoms: C_5  and  N_6
REMARK                            x       y       z     vdW  Elec       q    Type
REMARK                         _______ _______ _______ _____ _____    ______ ____
ROOT
ATOM      1  N   UNL     1       0.061  13.908  19.796  0.00  0.00    +0.000 NA
ATOM      2  C   UNL     1       0.302  12.606  19.084  0.00  0.00    +0.000 C 
ATOM      3  C   UNL     1      -0.399  11.355  19.693  0.00  0.00    +0.000 C 
ATOM      4  C   UNL     1      -0.327  10.155  18.690  0.00  0.00    +0.000 C 
ATOM      5  C   UNL     1      -1.261  10.187  17.478  0.00  0.00    +0.000 C 
ATOM      6  N   UNL     1      -2.603  10.705  17.692  0.00  0.00    +0.000 NA
ATOM      7  C   UNL     1      -2.683  11.824  18.608  0.00  0.00    +0.000 C 
ATOM      8  C   UNL     1      -1.912  11.587  19.907  0.00  0.00    +0.000 C 
ATOM      9  C   UNL     1       0.477  10.870  20.909  0.00  0.00    +0.000 C 
ATOM     10  O   UNL     1       0.170  11.127  22.271  0.00  0.00    +0.000 OA
ATOM     11  C   UNL     1      -0.755  12.053  22.589  0.00  0.00    +0.000 A 
ATOM     12  C   UNL     1      -1.907  11.522  23.193  0.00  0.00    +0.000 A 
ATOM     13  C   UNL     1      -2.981  12.345  23.522  0.00  0.00    +0.000 A 
ATOM     14  C   UNL     1      -2.858  13.721  23.362  0.00  0.00    +0.000 A 
ATOM     15  C   UNL     1      -1.679  14.261  22.837  0.00  0.00    +0.000 A 
ATOM     16  C   UNL     1      -0.648  13.420  22.374  0.00  0.00    +0.000 A 
ATOM     17  S   UNL     1       0.659  14.142  21.394  0.00  0.00    +0.000 S 
ATOM     18  O   UNL     1       0.636  15.567  21.676  0.00  0.00    +0.000 OA
ATOM     19  O   UNL     1       1.878  13.399  21.556  0.00  0.00    +0.000 OA
ATOM     20  H   UNL     1      -3.235   9.961  17.988  0.00  0.00    +0.000 HD
ENDROOT
BRANCH   1  21
ATOM     21  C   UNL     1       0.260  15.102  18.904  0.00  0.00    +0.000 C 
BRANCH  21  22
ATOM     22  C   UNL     1       1.671  15.553  18.610  0.00  0.00    +0.000 C 
ATOM     23  O   UNL     1       2.632  14.807  18.475  0.00  0.00    +0.000 OA
BRANCH  22  25
ATOM     24  C   UNL     1       0.507  17.622  18.750  0.00  0.00    +0.000 C 
ATOM     25  O   UNL     1       1.685  16.898  18.381  0.00  0.00    +0.000 OA
ENDBRANCH  22  25
ENDBRANCH  21  22
ENDBRANCH   1  21
TORSDOF 3
ENDMDL
MODEL 7
REMARK VINA RESULT:      -5.4      7.829     10.219
REMARK  Name = 
REMARK  4 active torsions:
REMARK  status: ('A' for Active; 'I' for Inactive)
REMARK    1  A    between atoms: C_1  and  O_2
REMARK    2  A    between atoms: O_2  and  C_3
REMARK    3  A    between atoms: C_3  and  C_5
REMARK    4  A    between atoms: C_5  and  N_6
REMARK                            x       y       z     vdW  Elec       q    Type
REMARK                         _______ _______ _______ _____ _____    ______ ____
ROOT
ATOM      1  N   UNL     1       0.144  13.915  19.788  0.00  0.00    +0.000 NA
ATOM      2  C   UNL     1       0.275  12.625  19.026  0.00  0.00    +0.000 C 
ATOM      3  C   UNL     1      -0.490  11.403  19.615  0.00  0.00    +0.000 C 
ATOM      4  C   UNL     1      -0.528  10.237  18.571  0.00  0.00    +0.000 C 
ATOM      5  C   UNL     1      -1.493  10.373  17.392  0.00  0.00    +0.000 C 
ATOM      6  N   UNL     1      -2.791  10.971  17.665  0.00  0.00    +0.000 NA
ATOM      7  C   UNL     1      -2.767  12.060  18.620  0.00  0.00    +0.000 C 
ATOM      8  C   UNL     1      -1.976  11.727  19.885  0.00  0.00    +0.000 C 
ATOM      9  C   UNL     1       0.387  10.818  20.786  0.00  0.00    +0.000 C 
ATOM     10  O   UNL     1       0.138  11.047  22.165  0.00  0.00    +0.000 OA
ATOM     11  C   UNL     1      -0.713  12.021  22.543  0.00  0.00    +0.000 A 
ATOM     12  C   UNL     1      -1.879  11.547  23.166  0.00  0.00    +0.000 A 
ATOM     13  C   UNL     1      -2.885  12.428  23.555  0.00  0.00    +0.000 A 
ATOM     14  C   UNL     1      -2.674  13.797  23.437  0.00  0.00    +0.000 A 
ATOM     15  C   UNL     1      -1.478  14.275  22.893  0.00  0.00    +0.000 A 
ATOM     16  C   UNL     1      -0.520  13.385  22.369  0.00  0.00    +0.000 A 
ATOM     17  S   UNL     1       0.803  14.052  21.373  0.00  0.00    +0.000 S 
ATOM     18  O   UNL     1       0.885  15.465  21.702  0.00  0.00    +0.000 OA
ATOM     19  O   UNL     1       1.974  13.224  21.472  0.00  0.00    +0.000 OA
ATOM     20  H   UNL     1      -3.462  10.261  17.956  0.00  0.00    +0.000 HD
ENDROOT
BRANCH   1  21
ATOM     21  C   UNL     1       0.397  15.123  18.930  0.00  0.00    +0.000 C 
BRANCH  21  22
ATOM     22  C   UNL     1      -0.674  16.186  18.853  0.00  0.00    +0.000 C 
ATOM     23  O   UNL     1      -1.498  16.417  19.728  0.00  0.00    +0.000 OA
BRANCH  22  25
ATOM     24  C   UNL     1      -0.976  18.284  17.772  0.00  0.00    +0.000 C 
ATOM     25  O   UNL     1      -0.495  16.936  17.727  0.00  0.00    +0.000 OA
ENDBRANCH  22  25
ENDBRANCH  21  22
ENDBRANCH   1  21
TORSDOF 3
ENDMDL
MODEL 8
REMARK VINA RESULT:      -5.3      7.767      9.605
REMARK  Name = 
REMARK  4 active torsions:
REMARK  status: ('A' for Active; 'I' for Inactive)
REMARK    1  A    between atoms: C_1  and  O_2
REMARK    2  A    between atoms: O_2  and  C_3
REMARK    3  A    between atoms: C_3  and  C_5
REMARK    4  A    between atoms: C_5  and  N_6
REMARK                            x       y       z     vdW  Elec       q    Type
REMARK                         _______ _______ _______ _____ _____    ______ ____
ROOT
ATOM      1  N   UNL     1       0.019  13.911  19.781  0.00  0.00    +0.000 NA
ATOM      2  C   UNL     1       0.262  12.610  19.068  0.00  0.00    +0.000 C 
ATOM      3  C   UNL     1      -0.429  11.356  19.682  0.00  0.00    +0.000 C 
ATOM      4  C   UNL     1      -0.356  10.156  18.679  0.00  0.00    +0.000 C 
ATOM      5  C   UNL     1      -1.297  10.182  17.473  0.00  0.00    +0.000 C 
ATOM      6  N   UNL     1      -2.641  10.694  17.694  0.00  0.00    +0.000 NA
ATOM      7  C   UNL     1      -2.721  11.812  18.610  0.00  0.00    +0.000 C 
ATOM      8  C   UNL     1      -1.941  11.580  19.904  0.00  0.00    +0.000 C 
ATOM      9  C   UNL     1       0.456  10.876  20.893  0.00  0.00    +0.000 C 
ATOM     10  O   UNL     1       0.155  11.132  22.257  0.00  0.00    +0.000 OA
ATOM     11  C   UNL     1      -0.772  12.054  22.579  0.00  0.00    +0.000 A 
ATOM     12  C   UNL     1      -1.918  11.518  23.191  0.00  0.00    +0.000 A 
ATOM     13  C   UNL     1      -2.994  12.336  23.525  0.00  0.00    +0.000 A 
ATOM     14  C   UNL     1      -2.879  13.712  23.363  0.00  0.00    +0.000 A 
ATOM     15  C   UNL     1      -1.706  14.257  22.831  0.00  0.00    +0.000 A 
ATOM     16  C   UNL     1      -0.673  13.422  22.362  0.00  0.00    +0.000 A 
ATOM     17  S   UNL     1       0.625  14.149  21.375  0.00  0.00    +0.000 S 
ATOM     18  O   UNL     1       0.596  15.575  21.656  0.00  0.00    +0.000 OA
ATOM     19  O   UNL     1       1.848  13.412  21.531  0.00  0.00    +0.000 OA
ATOM     20  H   UNL     1      -3.268   9.947  17.994  0.00  0.00    +0.000 HD
ENDROOT
BRANCH   1  21
ATOM     21  C   UNL     1       0.207  15.105  18.887  0.00  0.00    +0.000 C 
BRANCH  21  22
ATOM     22  C   UNL     1       1.610  15.616  18.655  0.00  0.00    +0.000 C 
ATOM     23  O   UNL     1       2.002  16.742  18.934  0.00  0.00    +0.000 OA
BRANCH  22  25
ATOM     24  C   UNL     1       3.807  14.865  18.138  0.00  0.00    +0.000 C 
ATOM     25  O   UNL     1       2.403  14.595  18.219  0.00  0.00    +0.000 OA
ENDBRANCH  22  25
ENDBRANCH  21  22
ENDBRANCH   1  21
TORSDOF 3
ENDMDL
MODEL 9
REMARK VINA RESULT:      -5.2      8.753     11.698
REMARK  Name = 
REMARK  4 active torsions:
REMARK  status: ('A' for Active; 'I' for Inactive)
REMARK    1  A    between atoms: C_1  and  O_2
REMARK    2  A    between atoms: O_2  and  C_3
REMARK    3  A    between atoms: C_3  and  C_5
REMARK    4  A    between atoms: C_5  and  N_6
REMARK                            x       y       z     vdW  Elec       q    Type
REMARK                         _______ _______ _______ _____ _____    ______ ____
ROOT
ATOM      1  N   UNL     1       9.502  12.844  18.706  0.00  0.00    +0.000 NA
ATOM      2  C   UNL     1       8.671  13.077  19.937  0.00  0.00    +0.000 C 
ATOM      3  C   UNL     1       8.746  14.507  20.550  0.00  0.00    +0.000 C 
ATOM      4  C   UNL     1       7.610  14.699  21.611  0.00  0.00    +0.000 C 
ATOM      5  C   UNL     1       6.186  14.910  21.093  0.00  0.00    +0.000 C 
ATOM      6  N   UNL     1       6.031  15.726  19.899  0.00  0.00    +0.000 NA
ATOM      7  C   UNL     1       7.068  15.549  18.904  0.00  0.00    +0.000 C 
ATOM      8  C   UNL     1       8.477  15.604  19.495  0.00  0.00    +0.000 C 
ATOM      9  C   UNL     1      10.065  14.583  21.408  0.00  0.00    +0.000 C 
ATOM     10  O   UNL     1      11.265  15.209  20.979  0.00  0.00    +0.000 OA
ATOM     11  C   UNL     1      11.428  15.536  19.683  0.00  0.00    +0.000 A 
ATOM     12  C   UNL     1      11.489  16.919  19.448  0.00  0.00    +0.000 A 
ATOM     13  C   UNL     1      11.590  17.416  18.151  0.00  0.00    +0.000 A 
ATOM     14  C   UNL     1      11.757  16.530  17.094  0.00  0.00    +0.000 A 
ATOM     15  C   UNL     1      11.780  15.152  17.334  0.00  0.00    +0.000 A 
ATOM     16  C   UNL     1      11.536  14.643  18.625  0.00  0.00    +0.000 A 
ATOM     17  S   UNL     1      11.221  12.895  18.802  0.00  0.00    +0.000 S 
ATOM     18  O   UNL     1      11.754  12.264  17.606  0.00  0.00    +0.000 OA
ATOM     19  O   UNL     1      11.635  12.438  20.099  0.00  0.00    +0.000 OA
ATOM     20  H   UNL     1       5.941  16.712  20.144  0.00  0.00    +0.000 HD
ENDROOT
BRANCH   1  21
ATOM     21  C   UNL     1       8.985  11.711  17.863  0.00  0.00    +0.000 C 
BRANCH  21  22
ATOM     22  C   UNL     1       8.881  10.339  18.489  0.00  0.00    +0.000 C 
ATOM     23  O   UNL     1       9.465   9.985  19.505  0.00  0.00    +0.000 OA
BRANCH  22  25
ATOM     24  C   UNL     1       8.052   8.182  17.924  0.00  0.00    +0.000 C 
ATOM     25  O   UNL     1       7.936   9.606  17.832  0.00  0.00    +0.000 OA
ENDBRANCH  22  25
ENDBRANCH  21  22
ENDBRANCH   1  21
TORSDOF 3
ENDMDL
