MODEL 1
REMARK VINA RESULT:      -6.8      0.000      0.000
REMARK  Name = 
REMARK  7 active torsions:
REMARK  status: ('A' for Active; 'I' for Inactive)
REMARK    1  A    between atoms: C_1  and  C_2
REMARK    2  A    between atoms: C_2  and  C_3
REMARK    3  A    between atoms: C_3  and  C_4
REMARK    4  A    between atoms: C_3  and  N_6
REMARK    5  A    between atoms: C_4  and  O_5
REMARK    6  A    between atoms: C_12  and  C_13
REMARK    7  A    between atoms: C_12  and  C_14
REMARK                            x       y       z     vdW  Elec       q    Type
REMARK                         _______ _______ _______ _____ _____    ______ ____
ROOT
ATOM      1  N   UNL     1       3.339   3.419  19.319  0.00  0.00    +0.000 N 
ATOM      2  C   UNL     1       4.606   2.927  19.584  0.00  0.00    +0.000 C 
ATOM      3  O   UNL     1       4.921   2.133  20.461  0.00  0.00    +0.000 OA
ATOM      4  N   UNL     1       5.483   3.430  18.645  0.00  0.00    +0.000 N 
ATOM      5  C   UNL     1       4.774   4.206  17.687  0.00  0.00    +0.000 C 
ATOM      6  C   UNL     1       5.036   4.126  16.204  0.00  0.00    +0.000 C 
ATOM      7  C   UNL     1       5.465   5.355  16.973  0.00  0.00    +0.000 C 
ATOM      8  C   UNL     1       4.727   6.652  16.770  0.00  0.00    +0.000 C 
ATOM      9  C   UNL     1       6.957   5.542  17.141  0.00  0.00    +0.000 C 
ATOM     10  C   UNL     1       3.337   4.150  18.156  0.00  0.00    +0.000 C 
ATOM     11  O   UNL     1       2.389   4.603  17.539  0.00  0.00    +0.000 OA
ATOM     12  H   UNL     1       6.435   3.102  18.580  0.00  0.00    +0.000 HD
ENDROOT
BRANCH   1  13
ATOM     13  C   UNL     1       2.167   2.811  19.947  0.00  0.00    +0.000 C 
BRANCH  13  15
ATOM     14  C   UNL     1       1.821   5.124  20.975  0.00  0.00    +0.000 C 
ATOM     15  C   UNL     1       1.173   3.808  20.569  0.00  0.00    +0.000 C 
ENDBRANCH  13  15
BRANCH  13  16
ATOM     16  C   UNL     1       1.464   1.860  18.946  0.00  0.00    +0.000 C 
BRANCH  16  17
ATOM     17  O   UNL     1       0.247   2.384  18.422  0.00  0.00    +0.000 OA
ATOM     18  H   UNL     1      -0.179   2.937  19.098  0.00  0.00    +0.000 HD
ENDBRANCH  16  17
ENDBRANCH  13  16
ENDBRANCH   1  13
TORSDOF 4
ENDMDL
MODEL 2
REMARK VINA RESULT:      -6.6      2.207      5.383
REMARK  Name = 
REMARK  7 active torsions:
REMARK  status: ('A' for Active; 'I' for Inactive)
REMARK    1  A    between atoms: C_1  and  C_2
REMARK    2  A    between atoms: C_2  and  C_3
REMARK    3  A    between atoms: C_3  and  C_4
REMARK    4  A    between atoms: C_3  and  N_6
REMARK    5  A    between atoms: C_4  and  O_5
REMARK    6  A    between atoms: C_12  and  C_13
REMARK    7  A    between atoms: C_12  and  C_14
REMARK                            x       y       z     vdW  Elec       q    Type
REMARK                         _______ _______ _______ _____ _____    ______ ____
ROOT
ATOM      1  N   UNL     1       4.751   4.434  17.249  0.00  0.00    +0.000 N 
ATOM      2  C   UNL     1       4.265   5.716  17.442  0.00  0.00    +0.000 C 
ATOM      3  O   UNL     1       4.738   6.757  17.006  0.00  0.00    +0.000 OA
ATOM      4  N   UNL     1       3.094   5.643  18.167  0.00  0.00    +0.000 N 
ATOM      5  C   UNL     1       2.749   4.282  18.393  0.00  0.00    +0.000 C 
ATOM      6  C   UNL     1       1.344   3.752  18.252  0.00  0.00    +0.000 C 
ATOM      7  C   UNL     1       1.955   3.890  19.628  0.00  0.00    +0.000 C 
ATOM      8  C   UNL     1       2.341   2.653  20.394  0.00  0.00    +0.000 C 
ATOM      9  C   UNL     1       1.370   4.973  20.507  0.00  0.00    +0.000 C 
ATOM     10  C   UNL     1       3.867   3.503  17.737  0.00  0.00    +0.000 C 
ATOM     11  O   UNL     1       3.887   2.290  17.613  0.00  0.00    +0.000 OA
ATOM     12  H   UNL     1       2.510   6.452  18.314  0.00  0.00    +0.000 HD
ENDROOT
BRANCH   1  13
ATOM     13  C   UNL     1       5.792   4.183  16.253  0.00  0.00    +0.000 C 
BRANCH  13  15
ATOM     14  C   UNL     1       6.137   3.878  13.740  0.00  0.00    +0.000 C 
ATOM     15  C   UNL     1       5.477   4.701  14.838  0.00  0.00    +0.000 C 
ENDBRANCH  13  15
BRANCH  13  16
ATOM     16  C   UNL     1       7.152   4.719  16.764  0.00  0.00    +0.000 C 
BRANCH  16  17
ATOM     17  O   UNL     1       7.519   5.973  16.196  0.00  0.00    +0.000 OA
ATOM     18  H   UNL     1       6.900   6.656  16.505  0.00  0.00    +0.000 HD
ENDBRANCH  16  17
ENDBRANCH  13  16
ENDBRANCH   1  13
TORSDOF 4
ENDMDL
MODEL 3
REMARK VINA RESULT:      -6.5      1.224      1.846
REMARK  Name = 
REMARK  7 active torsions:
REMARK  status: ('A' for Active; 'I' for Inactive)
REMARK    1  A    between atoms: C_1  and  C_2
REMARK    2  A    between atoms: C_2  and  C_3
REMARK    3  A    between atoms: C_3  and  C_4
REMARK    4  A    between atoms: C_3  and  N_6
REMARK    5  A    between atoms: C_4  and  O_5
REMARK    6  A    between atoms: C_12  and  C_13
REMARK    7  A    between atoms: C_12  and  C_14
REMARK                            x       y       z     vdW  Elec       q    Type
REMARK                         _______ _______ _______ _____ _____    ______ ____
ROOT
ATOM      1  N   UNL     1       3.429   3.968  19.356  0.00  0.00    +0.000 N 
ATOM      2  C   UNL     1       4.525   3.140  19.528  0.00  0.00    +0.000 C 
ATOM      3  O   UNL     1       4.653   2.251  20.358  0.00  0.00    +0.000 OA
ATOM      4  N   UNL     1       5.458   3.430  18.554  0.00  0.00    +0.000 N 
ATOM      5  C   UNL     1       4.941   4.413  17.666  0.00  0.00    +0.000 C 
ATOM      6  C   UNL     1       5.097   4.335  16.168  0.00  0.00    +0.000 C 
ATOM      7  C   UNL     1       5.884   5.364  16.948  0.00  0.00    +0.000 C 
ATOM      8  C   UNL     1       5.519   6.820  16.831  0.00  0.00    +0.000 C 
ATOM      9  C   UNL     1       7.376   5.132  17.031  0.00  0.00    +0.000 C 
ATOM     10  C   UNL     1       3.569   4.727  18.219  0.00  0.00    +0.000 C 
ATOM     11  O   UNL     1       2.751   5.449  17.675  0.00  0.00    +0.000 OA
ATOM     12  H   UNL     1       6.279   2.860  18.421  0.00  0.00    +0.000 HD
ENDROOT
BRANCH   1  13
ATOM     13  C   UNL     1       2.168   3.673  20.034  0.00  0.00    +0.000 C 
BRANCH  13  15
ATOM     14  C   UNL     1       0.586   2.225  18.645  0.00  0.00    +0.000 C 
ATOM     15  C   UNL     1       1.605   2.263  19.775  0.00  0.00    +0.000 C 
ENDBRANCH  13  15
BRANCH  13  16
ATOM     16  C   UNL     1       2.303   3.959  21.550  0.00  0.00    +0.000 C 
BRANCH  16  17
ATOM     17  O   UNL     1       2.420   2.782  22.344  0.00  0.00    +0.000 OA
ATOM     18  H   UNL     1       2.408   2.003  21.762  0.00  0.00    +0.000 HD
ENDBRANCH  16  17
ENDBRANCH  13  16
ENDBRANCH   1  13
TORSDOF 4
ENDMDL
MODEL 4
REMARK VINA RESULT:      -6.5      2.216      5.163
REMARK  Name = 
REMARK  7 active torsions:
REMARK  status: ('A' for Active; 'I' for Inactive)
REMARK    1  A    between atoms: C_1  and  C_2
REMARK    2  A    between atoms: C_2  and  C_3
REMARK    3  A    between atoms: C_3  and  C_4
REMARK    4  A    between atoms: C_3  and  N_6
REMARK    5  A    between atoms: C_4  and  O_5
REMARK    6  A    between atoms: C_12  and  C_13
REMARK    7  A    between atoms: C_12  and  C_14
REMARK                            x       y       z     vdW  Elec       q    Type
REMARK                         _______ _______ _______ _____ _____    ______ ____
ROOT
ATOM      1  N   UNL     1       5.261   5.038  17.503  0.00  0.00    +0.000 N 
ATOM      2  C   UNL     1       4.798   4.083  16.613  0.00  0.00    +0.000 C 
ATOM      3  O   UNL     1       5.224   3.855  15.489  0.00  0.00    +0.000 OA
ATOM      4  N   UNL     1       3.795   3.358  17.222  0.00  0.00    +0.000 N 
ATOM      5  C   UNL     1       3.640   3.783  18.571  0.00  0.00    +0.000 C 
ATOM      6  C   UNL     1       3.454   2.826  19.722  0.00  0.00    +0.000 C 
ATOM      7  C   UNL     1       2.289   3.672  19.257  0.00  0.00    +0.000 C 
ATOM      8  C   UNL     1       1.803   4.803  20.123  0.00  0.00    +0.000 C 
ATOM      9  C   UNL     1       1.167   2.930  18.567  0.00  0.00    +0.000 C 
ATOM     10  C   UNL     1       4.660   4.889  18.729  0.00  0.00    +0.000 C 
ATOM     11  O   UNL     1       4.922   5.445  19.782  0.00  0.00    +0.000 OA
ATOM     12  H   UNL     1       3.403   2.533  16.796  0.00  0.00    +0.000 HD
ENDROOT
BRANCH   1  13
ATOM     13  C   UNL     1       6.523   5.730  17.250  0.00  0.00    +0.000 C 
BRANCH  13  15
ATOM     14  C   UNL     1       7.787   7.914  17.652  0.00  0.00    +0.000 C 
ATOM     15  C   UNL     1       6.449   7.267  17.324  0.00  0.00    +0.000 C 
ENDBRANCH  13  15
BRANCH  13  16
ATOM     16  C   UNL     1       7.628   5.171  18.180  0.00  0.00    +0.000 C 
BRANCH  16  17
ATOM     17  O   UNL     1       8.271   4.009  17.666  0.00  0.00    +0.000 OA
ATOM     18  H   UNL     1       9.109   4.267  17.245  0.00  0.00    +0.000 HD
ENDBRANCH  16  17
ENDBRANCH  13  16
ENDBRANCH   1  13
TORSDOF 4
ENDMDL
MODEL 5
REMARK VINA RESULT:      -6.4      1.908      5.340
REMARK  Name = 
REMARK  7 active torsions:
REMARK  status: ('A' for Active; 'I' for Inactive)
REMARK    1  A    between atoms: C_1  and  C_2
REMARK    2  A    between atoms: C_2  and  C_3
REMARK    3  A    between atoms: C_3  and  C_4
REMARK    4  A    between atoms: C_3  and  N_6
REMARK    5  A    between atoms: C_4  and  O_5
REMARK    6  A    between atoms: C_12  and  C_13
REMARK    7  A    between atoms: C_12  and  C_14
REMARK                            x       y       z     vdW  Elec       q    Type
REMARK                         _______ _______ _______ _____ _____    ______ ____
ROOT
ATOM      1  N   UNL     1       5.304   4.791  18.744  0.00  0.00    +0.000 N 
ATOM      2  C   UNL     1       4.365   5.697  18.280  0.00  0.00    +0.000 C 
ATOM      3  O   UNL     1       4.578   6.715  17.637  0.00  0.00    +0.000 OA
ATOM      4  N   UNL     1       3.105   5.236  18.604  0.00  0.00    +0.000 N 
ATOM      5  C   UNL     1       3.201   3.960  19.223  0.00  0.00    +0.000 C 
ATOM      6  C   UNL     1       2.280   2.811  18.895  0.00  0.00    +0.000 C 
ATOM      7  C   UNL     1       2.149   3.516  20.226  0.00  0.00    +0.000 C 
ATOM      8  C   UNL     1       2.576   2.808  21.484  0.00  0.00    +0.000 C 
ATOM      9  C   UNL     1       0.902   4.353  20.411  0.00  0.00    +0.000 C 
ATOM     10  C   UNL     1       4.688   3.683  19.272  0.00  0.00    +0.000 C 
ATOM     11  O   UNL     1       5.185   2.631  19.635  0.00  0.00    +0.000 OA
ATOM     12  H   UNL     1       2.272   5.682  18.253  0.00  0.00    +0.000 HD
ENDROOT
BRANCH   1  13
ATOM     13  C   UNL     1       6.685   4.854  18.271  0.00  0.00    +0.000 C 
BRANCH  13  15
ATOM     14  C   UNL     1       6.317   3.975  15.901  0.00  0.00    +0.000 C 
ATOM     15  C   UNL     1       6.845   5.114  16.762  0.00  0.00    +0.000 C 
ENDBRANCH  13  15
BRANCH  13  16
ATOM     16  C   UNL     1       7.485   5.882  19.110  0.00  0.00    +0.000 C 
BRANCH  16  17
ATOM     17  O   UNL     1       7.866   5.396  20.394  0.00  0.00    +0.000 OA
ATOM     18  H   UNL     1       7.524   5.997  21.077  0.00  0.00    +0.000 HD
ENDBRANCH  16  17
ENDBRANCH  13  16
ENDBRANCH   1  13
TORSDOF 4
ENDMDL
MODEL 6
REMARK VINA RESULT:      -6.4      2.087      5.286
REMARK  Name = 
REMARK  7 active torsions:
REMARK  status: ('A' for Active; 'I' for Inactive)
REMARK    1  A    between atoms: C_1  and  C_2
REMARK    2  A    between atoms: C_2  and  C_3
REMARK    3  A    between atoms: C_3  and  C_4
REMARK    4  A    between atoms: C_3  and  N_6
REMARK    5  A    between atoms: C_4  and  O_5
REMARK    6  A    between atoms: C_12  and  C_13
REMARK    7  A    between atoms: C_12  and  C_14
REMARK                            x       y       z     vdW  Elec       q    Type
REMARK                         _______ _______ _______ _____ _____    ______ ____
ROOT
ATOM      1  N   UNL     1       5.076   5.460  18.257  0.00  0.00    +0.000 N 
ATOM      2  C   UNL     1       3.936   6.139  17.862  0.00  0.00    +0.000 C 
ATOM      3  O   UNL     1       3.883   7.189  17.235  0.00  0.00    +0.000 OA
ATOM      4  N   UNL     1       2.830   5.404  18.233  0.00  0.00    +0.000 N 
ATOM      5  C   UNL     1       3.240   4.173  18.815  0.00  0.00    +0.000 C 
ATOM      6  C   UNL     1       2.583   2.851  18.501  0.00  0.00    +0.000 C 
ATOM      7  C   UNL     1       2.367   3.490  19.854  0.00  0.00    +0.000 C 
ATOM      8  C   UNL     1       3.006   2.878  21.072  0.00  0.00    +0.000 C 
ATOM      9  C   UNL     1       0.977   4.024  20.120  0.00  0.00    +0.000 C 
ATOM     10  C   UNL     1       4.751   4.235  18.785  0.00  0.00    +0.000 C 
ATOM     11  O   UNL     1       5.489   3.316  19.097  0.00  0.00    +0.000 OA
ATOM     12  H   UNL     1       1.900   5.656  17.934  0.00  0.00    +0.000 HD
ENDROOT
BRANCH   1  13
ATOM     13  C   UNL     1       6.382   5.838  17.720  0.00  0.00    +0.000 C 
BRANCH  13  15
ATOM     14  C   UNL     1       8.208   7.458  18.475  0.00  0.00    +0.000 C 
ATOM     15  C   UNL     1       7.448   6.174  18.779  0.00  0.00    +0.000 C 
ENDBRANCH  13  15
BRANCH  13  16
ATOM     16  C   UNL     1       6.884   4.752  16.736  0.00  0.00    +0.000 C 
BRANCH  16  17
ATOM     17  O   UNL     1       8.038   4.056  17.197  0.00  0.00    +0.000 OA
ATOM     18  H   UNL     1       7.799   3.133  17.386  0.00  0.00    +0.000 HD
ENDBRANCH  16  17
ENDBRANCH  13  16
ENDBRANCH   1  13
TORSDOF 4
ENDMDL
MODEL 7
REMARK VINA RESULT:      -6.4      1.803      2.777
REMARK  Name = 
REMARK  7 active torsions:
REMARK  status: ('A' for Active; 'I' for Inactive)
REMARK    1  A    between atoms: C_1  and  C_2
REMARK    2  A    between atoms: C_2  and  C_3
REMARK    3  A    between atoms: C_3  and  C_4
REMARK    4  A    between atoms: C_3  and  N_6
REMARK    5  A    between atoms: C_4  and  O_5
REMARK    6  A    between atoms: C_12  and  C_13
REMARK    7  A    between atoms: C_12  and  C_14
REMARK                            x       y       z     vdW  Elec       q    Type
REMARK                         _______ _______ _______ _____ _____    ______ ____
ROOT
ATOM      1  N   UNL     1       3.429   3.971  18.635  0.00  0.00    +0.000 N 
ATOM      2  C   UNL     1       3.158   3.661  17.313  0.00  0.00    +0.000 C 
ATOM      3  O   UNL     1       2.163   3.098  16.877  0.00  0.00    +0.000 OA
ATOM      4  N   UNL     1       4.179   4.150  16.524  0.00  0.00    +0.000 N 
ATOM      5  C   UNL     1       5.106   4.872  17.324  0.00  0.00    +0.000 C 
ATOM      6  C   UNL     1       5.701   6.195  16.910  0.00  0.00    +0.000 C 
ATOM      7  C   UNL     1       6.567   4.955  16.914  0.00  0.00    +0.000 C 
ATOM      8  C   UNL     1       7.639   4.805  17.960  0.00  0.00    +0.000 C 
ATOM      9  C   UNL     1       6.986   4.436  15.557  0.00  0.00    +0.000 C 
ATOM     10  C   UNL     1       4.554   4.755  18.728  0.00  0.00    +0.000 C 
ATOM     11  O   UNL     1       5.004   5.335  19.701  0.00  0.00    +0.000 OA
ATOM     12  H   UNL     1       4.121   4.142  15.517  0.00  0.00    +0.000 HD
ENDROOT
BRANCH   1  13
ATOM     13  C   UNL     1       2.380   3.862  19.647  0.00  0.00    +0.000 C 
BRANCH  13  15
ATOM     14  C   UNL     1       1.616   2.533  21.691  0.00  0.00    +0.000 C 
ATOM     15  C   UNL     1       2.795   3.132  20.938  0.00  0.00    +0.000 C 
ENDBRANCH  13  15
BRANCH  13  16
ATOM     16  C   UNL     1       1.791   5.262  19.952  0.00  0.00    +0.000 C 
BRANCH  16  17
ATOM     17  O   UNL     1       2.334   5.865  21.123  0.00  0.00    +0.000 OA
ATOM     18  H   UNL     1       1.713   5.745  21.861  0.00  0.00    +0.000 HD
ENDBRANCH  16  17
ENDBRANCH  13  16
ENDBRANCH   1  13
TORSDOF 4
ENDMDL
MODEL 8
REMARK VINA RESULT:      -6.4      1.889      5.030
REMARK  Name = 
REMARK  7 active torsions:
REMARK  status: ('A' for Active; 'I' for Inactive)
REMARK    1  A    between atoms: C_1  and  C_2
REMARK    2  A    between atoms: C_2  and  C_3
REMARK    3  A    between atoms: C_3  and  C_4
REMARK    4  A    between atoms: C_3  and  N_6
REMARK    5  A    between atoms: C_4  and  O_5
REMARK    6  A    between atoms: C_12  and  C_13
REMARK    7  A    between atoms: C_12  and  C_14
REMARK                            x       y       z     vdW  Elec       q    Type
REMARK                         _______ _______ _______ _____ _____    ______ ____
ROOT
ATOM      1  N   UNL     1       4.977   4.332  17.915  0.00  0.00    +0.000 N 
ATOM      2  C   UNL     1       5.292   4.710  19.209  0.00  0.00    +0.000 C 
ATOM      3  O   UNL     1       6.352   5.178  19.603  0.00  0.00    +0.000 OA
ATOM      4  N   UNL     1       4.180   4.536  20.007  0.00  0.00    +0.000 N 
ATOM      5  C   UNL     1       3.078   4.112  19.214  0.00  0.00    +0.000 C 
ATOM      6  C   UNL     1       1.684   4.666  19.374  0.00  0.00    +0.000 C 
ATOM      7  C   UNL     1       1.983   3.254  19.826  0.00  0.00    +0.000 C 
ATOM      8  C   UNL     1       1.428   2.094  19.044  0.00  0.00    +0.000 C 
ATOM      9  C   UNL     1       1.972   3.021  21.320  0.00  0.00    +0.000 C 
ATOM     10  C   UNL     1       3.644   4.015  17.815  0.00  0.00    +0.000 C 
ATOM     11  O   UNL     1       2.985   3.786  16.815  0.00  0.00    +0.000 OA
ATOM     12  H   UNL     1       4.154   4.867  20.959  0.00  0.00    +0.000 HD
ENDROOT
BRANCH   1  13
ATOM     13  C   UNL     1       5.851   4.705  16.804  0.00  0.00    +0.000 C 
BRANCH  13  15
ATOM     14  C   UNL     1       5.809   4.283  14.285  0.00  0.00    +0.000 C 
ATOM     15  C   UNL     1       5.941   3.667  15.671  0.00  0.00    +0.000 C 
ENDBRANCH  13  15
BRANCH  13  16
ATOM     16  C   UNL     1       5.452   6.101  16.264  0.00  0.00    +0.000 C 
BRANCH  16  17
ATOM     17  O   UNL     1       6.398   7.121  16.571  0.00  0.00    +0.000 OA
ATOM     18  H   UNL     1       6.160   7.932  16.091  0.00  0.00    +0.000 HD
ENDBRANCH  16  17
ENDBRANCH  13  16
ENDBRANCH   1  13
TORSDOF 4
ENDMDL
MODEL 9
REMARK VINA RESULT:      -6.2      1.723      2.451
REMARK  Name = 
REMARK  7 active torsions:
REMARK  status: ('A' for Active; 'I' for Inactive)
REMARK    1  A    between atoms: C_1  and  C_2
REMARK    2  A    between atoms: C_2  and  C_3
REMARK    3  A    between atoms: C_3  and  C_4
REMARK    4  A    between atoms: C_3  and  N_6
REMARK    5  A    between atoms: C_4  and  O_5
REMARK    6  A    between atoms: C_12  and  C_13
REMARK    7  A    between atoms: C_12  and  C_14
REMARK                            x       y       z     vdW  Elec       q    Type
REMARK                         _______ _______ _______ _____ _____    ______ ____
ROOT
ATOM      1  N   UNL     1       3.558   4.008  19.305  0.00  0.00    +0.000 N 
ATOM      2  C   UNL     1       2.891   3.542  18.185  0.00  0.00    +0.000 C 
ATOM      3  O   UNL     1       1.806   2.976  18.156  0.00  0.00    +0.000 OA
ATOM      4  N   UNL     1       3.620   3.876  17.062  0.00  0.00    +0.000 N 
ATOM      5  C   UNL     1       4.753   4.650  17.434  0.00  0.00    +0.000 C 
ATOM      6  C   UNL     1       5.198   5.878  16.678  0.00  0.00    +0.000 C 
ATOM      7  C   UNL     1       6.016   4.609  16.590  0.00  0.00    +0.000 C 
ATOM      8  C   UNL     1       7.359   4.544  17.268  0.00  0.00    +0.000 C 
ATOM      9  C   UNL     1       5.992   3.898  15.255  0.00  0.00    +0.000 C 
ATOM     10  C   UNL     1       4.661   4.742  18.941  0.00  0.00    +0.000 C 
ATOM     11  O   UNL     1       5.393   5.421  19.640  0.00  0.00    +0.000 OA
ATOM     12  H   UNL     1       3.253   3.740  16.133  0.00  0.00    +0.000 HD
ENDROOT
BRANCH   1  13
ATOM     13  C   UNL     1       2.873   4.081  20.594  0.00  0.00    +0.000 C 
BRANCH  13  15
ATOM     14  C   UNL     1       1.744   6.372  20.526  0.00  0.00    +0.000 C 
ATOM     15  C   UNL     1       1.547   4.864  20.583  0.00  0.00    +0.000 C 
ENDBRANCH  13  15
BRANCH  13  16
ATOM     16  C   UNL     1       2.686   2.658  21.175  0.00  0.00    +0.000 C 
BRANCH  16  17
ATOM     17  O   UNL     1       1.629   2.565  22.126  0.00  0.00    +0.000 OA
ATOM     18  H   UNL     1       1.801   1.818  22.723  0.00  0.00    +0.000 HD
ENDBRANCH  16  17
ENDBRANCH  13  16
ENDBRANCH   1  13
TORSDOF 4
ENDMDL
