MODEL 1
REMARK VINA RESULT:      -9.3      0.000      0.000
REMARK  Name = 
REMARK  8 active torsions:
REMARK  status: ('A' for Active; 'I' for Inactive)
REMARK    1  A    between atoms: C_1  and  N_2
REMARK    2  A    between atoms: C_4  and  N_5
REMARK    3  A    between atoms: C_6  and  C_8
REMARK    4  A    between atoms: C_13  and  C_14
REMARK    5  A    between atoms: C_14  and  C_16
REMARK    6  A    between atoms: C_19  and  C_20
REMARK    7  A    between atoms: C_27  and  O_28
REMARK    8  A    between atoms: O_28  and  C_29
REMARK                            x       y       z     vdW  Elec       q    Type
REMARK                         _______ _______ _______ _____ _____    ______ ____
ROOT
ATOM      1  C   UNL     1       3.787   4.537  19.480  0.00  0.00    +0.000 C 
ATOM      2  C   UNL     1       3.397   3.207  20.128  0.00  0.00    +0.000 C 
ATOM      3  C   UNL     1       2.253   2.443  19.460  0.00  0.00    +0.000 C 
ATOM      4  C   UNL     1       1.142   3.255  18.800  0.00  0.00    +0.000 C 
ATOM      5  C   UNL     1       1.614   4.525  18.116  0.00  0.00    +0.000 C 
ATOM      6  C   UNL     1       2.611   5.367  18.924  0.00  0.00    +0.000 C 
ENDROOT
BRANCH   1   8
ATOM      7  N   UNL     1       4.774   5.113  17.332  0.00  0.00    +0.000 N 
ATOM      8  C   UNL     1       4.862   4.256  18.413  0.00  0.00    +0.000 C 
ATOM      9  O   UNL     1       5.698   3.364  18.551  0.00  0.00    +0.000 OA
ATOM     10  H   UNL     1       4.035   5.815  17.325  0.00  0.00    +0.000 HD
BRANCH   7  14
ATOM     11  C   UNL     1       6.906   3.961  13.064  0.00  0.00    +0.000 C 
ATOM     12  N   UNL     1       6.568   4.599  14.312  0.00  0.00    +0.000 N 
ATOM     13  C   UNL     1       5.460   4.378  15.078  0.00  0.00    +0.000 A 
ATOM     14  C   UNL     1       5.613   5.121  16.221  0.00  0.00    +0.000 A 
ATOM     15  C   UNL     1       6.852   5.804  16.013  0.00  0.00    +0.000 A 
ATOM     16  N   UNL     1       7.417   5.490  14.848  0.00  0.00    +0.000 NA
BRANCH  15  17
ATOM     17  O   UNL     1       7.582   6.664  16.748  0.00  0.00    +0.000 OA
BRANCH  17  18
ATOM     18  C   UNL     1       7.609   6.380  18.126  0.00  0.00    +0.000 C 
ATOM     19  F   UNL     1       8.157   5.153  18.328  0.00  0.00    +0.000 F 
ATOM     20  F   UNL     1       8.475   7.257  18.700  0.00  0.00    +0.000 F 
ENDBRANCH  17  18
ENDBRANCH  15  17
ENDBRANCH   7  14
ENDBRANCH   1   8
BRANCH   6  21
ATOM     21  C   UNL     1       1.941   6.235  20.018  0.00  0.00    +0.000 C 
ATOM     22  O   UNL     1       1.632   5.786  21.106  0.00  0.00    +0.000 OA
BRANCH  21  23
ATOM     23  C   UNL     1       1.699   7.700  19.755  0.00  0.00    +0.000 A 
ATOM     24  C   UNL     1       2.038   8.244  18.501  0.00  0.00    +0.000 A 
ATOM     25  C   UNL     1       1.777   9.595  18.219  0.00  0.00    +0.000 A 
ATOM     26  C   UNL     1       1.147  10.412  19.165  0.00  0.00    +0.000 A 
ATOM     27  C   UNL     1       0.821   9.865  20.408  0.00  0.00    +0.000 A 
ATOM     28  C   UNL     1       1.127   8.541  20.707  0.00  0.00    +0.000 A 
BRANCH  26  29
ATOM     29  C   UNL     1       0.852  11.820  18.900  0.00  0.00    +0.000 A 
ATOM     30  C   UNL     1      -0.420  12.432  18.792  0.00  0.00    +0.000 A 
ATOM     31  C   UNL     1      -0.173  13.748  18.484  0.00  0.00    +0.000 A 
ATOM     32  N   UNL     1       1.178  13.866  18.432  0.00  0.00    +0.000 N 
ATOM     33  N   UNL     1       1.828  12.727  18.703  0.00  0.00    +0.000 NA
ATOM     34  H   UNL     1       1.729  14.690  18.213  0.00  0.00    +0.000 HD
ENDBRANCH  26  29
ENDBRANCH  21  23
ENDBRANCH   6  21
TORSDOF 7
ENDMDL
MODEL 2
REMARK VINA RESULT:      -9.1      0.878      1.304
REMARK  Name = 
REMARK  8 active torsions:
REMARK  status: ('A' for Active; 'I' for Inactive)
REMARK    1  A    between atoms: C_1  and  N_2
REMARK    2  A    between atoms: C_4  and  N_5
REMARK    3  A    between atoms: C_6  and  C_8
REMARK    4  A    between atoms: C_13  and  C_14
REMARK    5  A    between atoms: C_14  and  C_16
REMARK    6  A    between atoms: C_19  and  C_20
REMARK    7  A    between atoms: C_27  and  O_28
REMARK    8  A    between atoms: O_28  and  C_29
REMARK                            x       y       z     vdW  Elec       q    Type
REMARK                         _______ _______ _______ _____ _____    ______ ____
ROOT
ATOM      1  C   UNL     1       3.772   4.847  19.584  0.00  0.00    +0.000 C 
ATOM      2  C   UNL     1       3.291   3.497  20.120  0.00  0.00    +0.000 C 
ATOM      3  C   UNL     1       2.211   2.792  19.299  0.00  0.00    +0.000 C 
ATOM      4  C   UNL     1       1.192   3.659  18.566  0.00  0.00    +0.000 C 
ATOM      5  C   UNL     1       1.757   4.949  17.998  0.00  0.00    +0.000 C 
ATOM      6  C   UNL     1       2.677   5.728  18.948  0.00  0.00    +0.000 C 
ENDROOT
BRANCH   1   8
ATOM      7  N   UNL     1       4.730   5.113  17.363  0.00  0.00    +0.000 N 
ATOM      8  C   UNL     1       4.949   4.591  18.624  0.00  0.00    +0.000 C 
ATOM      9  O   UNL     1       5.963   3.994  18.982  0.00  0.00    +0.000 OA
ATOM     10  H   UNL     1       3.847   5.587  17.178  0.00  0.00    +0.000 HD
BRANCH   7  14
ATOM     11  C   UNL     1       6.804   3.999  13.056  0.00  0.00    +0.000 C 
ATOM     12  N   UNL     1       6.540   4.555  14.360  0.00  0.00    +0.000 N 
ATOM     13  C   UNL     1       5.369   4.498  15.060  0.00  0.00    +0.000 A 
ATOM     14  C   UNL     1       5.612   5.060  16.288  0.00  0.00    +0.000 A 
ATOM     15  C   UNL     1       6.978   5.475  16.201  0.00  0.00    +0.000 A 
ATOM     16  N   UNL     1       7.528   5.175  15.025  0.00  0.00    +0.000 NA
BRANCH  15  17
ATOM     17  O   UNL     1       7.832   6.069  17.056  0.00  0.00    +0.000 OA
BRANCH  17  18
ATOM     18  C   UNL     1       7.649   7.457  17.197  0.00  0.00    +0.000 C 
ATOM     19  F   UNL     1       6.339   7.721  17.443  0.00  0.00    +0.000 F 
ATOM     20  F   UNL     1       8.308   7.837  18.324  0.00  0.00    +0.000 F 
ENDBRANCH  17  18
ENDBRANCH  15  17
ENDBRANCH   7  14
ENDBRANCH   1   8
BRANCH   6  21
ATOM     21  C   UNL     1       1.910   6.560  20.005  0.00  0.00    +0.000 C 
ATOM     22  O   UNL     1       1.621   6.113  21.099  0.00  0.00    +0.000 OA
BRANCH  21  23
ATOM     23  C   UNL     1       1.542   7.990  19.699  0.00  0.00    +0.000 A 
ATOM     24  C   UNL     1       0.880   8.759  20.675  0.00  0.00    +0.000 A 
ATOM     25  C   UNL     1       0.570  10.107  20.427  0.00  0.00    +0.000 A 
ATOM     26  C   UNL     1       0.944  10.714  19.223  0.00  0.00    +0.000 A 
ATOM     27  C   UNL     1       1.594   9.941  18.258  0.00  0.00    +0.000 A 
ATOM     28  C   UNL     1       1.854   8.593  18.482  0.00  0.00    +0.000 A 
BRANCH  26  29
ATOM     29  C   UNL     1       0.646  12.117  18.937  0.00  0.00    +0.000 A 
ATOM     30  C   UNL     1       1.532  13.220  18.996  0.00  0.00    +0.000 A 
ATOM     31  C   UNL     1       0.771  14.323  18.697  0.00  0.00    +0.000 A 
ATOM     32  N   UNL     1      -0.483  13.855  18.471  0.00  0.00    +0.000 N 
ATOM     33  N   UNL     1      -0.588  12.525  18.582  0.00  0.00    +0.000 NA
ATOM     34  H   UNL     1      -1.318  14.383  18.240  0.00  0.00    +0.000 HD
ENDBRANCH  26  29
ENDBRANCH  21  23
ENDBRANCH   6  21
TORSDOF 7
ENDMDL
MODEL 3
REMARK VINA RESULT:      -8.8      1.040      1.143
REMARK  Name = 
REMARK  8 active torsions:
REMARK  status: ('A' for Active; 'I' for Inactive)
REMARK    1  A    between atoms: C_1  and  N_2
REMARK    2  A    between atoms: C_4  and  N_5
REMARK    3  A    between atoms: C_6  and  C_8
REMARK    4  A    between atoms: C_13  and  C_14
REMARK    5  A    between atoms: C_14  and  C_16
REMARK    6  A    between atoms: C_19  and  C_20
REMARK    7  A    between atoms: C_27  and  O_28
REMARK    8  A    between atoms: O_28  and  C_29
REMARK                            x       y       z     vdW  Elec       q    Type
REMARK                         _______ _______ _______ _____ _____    ______ ____
ROOT
ATOM      1  C   UNL     1       3.666   3.940  19.035  0.00  0.00    +0.000 C 
ATOM      2  C   UNL     1       3.393   2.600  19.721  0.00  0.00    +0.000 C 
ATOM      3  C   UNL     1       2.059   1.932  19.386  0.00  0.00    +0.000 C 
ATOM      4  C   UNL     1       0.860   2.833  19.105  0.00  0.00    +0.000 C 
ATOM      5  C   UNL     1       1.197   4.111  18.358  0.00  0.00    +0.000 C 
ATOM      6  C   UNL     1       2.436   4.857  18.873  0.00  0.00    +0.000 C 
ENDROOT
BRANCH   1   8
ATOM      7  N   UNL     1       5.005   4.776  17.184  0.00  0.00    +0.000 N 
ATOM      8  C   UNL     1       4.369   3.660  17.694  0.00  0.00    +0.000 C 
ATOM      9  O   UNL     1       4.354   2.546  17.171  0.00  0.00    +0.000 OA
ATOM     10  H   UNL     1       4.947   5.650  17.704  0.00  0.00    +0.000 HD
BRANCH   7  14
ATOM     11  C   UNL     1       6.652   3.897  12.645  0.00  0.00    +0.000 C 
ATOM     12  N   UNL     1       6.477   4.435  13.971  0.00  0.00    +0.000 N 
ATOM     13  C   UNL     1       5.428   4.215  14.818  0.00  0.00    +0.000 A 
ATOM     14  C   UNL     1       5.739   4.835  16.002  0.00  0.00    +0.000 A 
ATOM     15  C   UNL     1       7.001   5.452  15.736  0.00  0.00    +0.000 A 
ATOM     16  N   UNL     1       7.434   5.213  14.499  0.00  0.00    +0.000 NA
BRANCH  15  17
ATOM     17  O   UNL     1       7.856   6.188  16.471  0.00  0.00    +0.000 OA
BRANCH  17  18
ATOM     18  C   UNL     1       7.300   6.740  17.639  0.00  0.00    +0.000 C 
ATOM     19  F   UNL     1       8.274   7.353  18.362  0.00  0.00    +0.000 F 
ATOM     20  F   UNL     1       6.460   7.737  17.253  0.00  0.00    +0.000 F 
ENDBRANCH  17  18
ENDBRANCH  15  17
ENDBRANCH   7  14
ENDBRANCH   1   8
BRANCH   6  21
ATOM     21  C   UNL     1       2.165   5.701  20.143  0.00  0.00    +0.000 C 
ATOM     22  O   UNL     1       2.250   5.234  21.263  0.00  0.00    +0.000 OA
BRANCH  21  23
ATOM     23  C   UNL     1       1.828   7.164  20.002  0.00  0.00    +0.000 A 
ATOM     24  C   UNL     1       2.029   7.805  18.764  0.00  0.00    +0.000 A 
ATOM     25  C   UNL     1       1.677   9.155  18.598  0.00  0.00    +0.000 A 
ATOM     26  C   UNL     1       1.092   9.873  19.648  0.00  0.00    +0.000 A 
ATOM     27  C   UNL     1       0.903   9.231  20.874  0.00  0.00    +0.000 A 
ATOM     28  C   UNL     1       1.299   7.909  21.054  0.00  0.00    +0.000 A 
BRANCH  26  29
ATOM     29  C   UNL     1       0.704  11.276  19.506  0.00  0.00    +0.000 A 
ATOM     30  C   UNL     1       1.235  12.235  18.609  0.00  0.00    +0.000 A 
ATOM     31  C   UNL     1       0.587  13.411  18.898  0.00  0.00    +0.000 A 
ATOM     32  N   UNL     1      -0.274  13.118  19.906  0.00  0.00    +0.000 N 
ATOM     33  N   UNL     1      -0.248  11.833  20.280  0.00  0.00    +0.000 NA
ATOM     34  H   UNL     1      -0.909  13.745  20.391  0.00  0.00    +0.000 HD
ENDBRANCH  26  29
ENDBRANCH  21  23
ENDBRANCH   6  21
TORSDOF 7
ENDMDL
MODEL 4
REMARK VINA RESULT:      -8.6      3.459      8.250
REMARK  Name = 
REMARK  8 active torsions:
REMARK  status: ('A' for Active; 'I' for Inactive)
REMARK    1  A    between atoms: C_1  and  N_2
REMARK    2  A    between atoms: C_4  and  N_5
REMARK    3  A    between atoms: C_6  and  C_8
REMARK    4  A    between atoms: C_13  and  C_14
REMARK    5  A    between atoms: C_14  and  C_16
REMARK    6  A    between atoms: C_19  and  C_20
REMARK    7  A    between atoms: C_27  and  O_28
REMARK    8  A    between atoms: O_28  and  C_29
REMARK                            x       y       z     vdW  Elec       q    Type
REMARK                         _______ _______ _______ _____ _____    ______ ____
ROOT
ATOM      1  C   UNL     1       2.895   5.720  19.400  0.00  0.00    +0.000 C 
ATOM      2  C   UNL     1       2.440   5.777  17.941  0.00  0.00    +0.000 C 
ATOM      3  C   UNL     1       1.349   4.784  17.537  0.00  0.00    +0.000 C 
ATOM      4  C   UNL     1       1.333   3.422  18.224  0.00  0.00    +0.000 C 
ATOM      5  C   UNL     1       1.727   3.454  19.690  0.00  0.00    +0.000 C 
ATOM      6  C   UNL     1       2.963   4.305  20.013  0.00  0.00    +0.000 C 
ENDROOT
BRANCH   1   8
ATOM      7  N   UNL     1       1.848   7.905  19.618  0.00  0.00    +0.000 N 
ATOM      8  C   UNL     1       2.004   6.671  20.220  0.00  0.00    +0.000 C 
ATOM      9  O   UNL     1       1.494   6.328  21.286  0.00  0.00    +0.000 OA
ATOM     10  H   UNL     1       2.322   8.079  18.733  0.00  0.00    +0.000 HD
BRANCH   7  14
ATOM     11  C   UNL     1      -0.512  10.988  22.620  0.00  0.00    +0.000 C 
ATOM     12  N   UNL     1       0.028  10.341  21.451  0.00  0.00    +0.000 N 
ATOM     13  C   UNL     1       0.960   9.344  21.416  0.00  0.00    +0.000 A 
ATOM     14  C   UNL     1       1.088   8.966  20.103  0.00  0.00    +0.000 A 
ATOM     15  C   UNL     1       0.204   9.853  19.412  0.00  0.00    +0.000 A 
ATOM     16  N   UNL     1      -0.424  10.689  20.236  0.00  0.00    +0.000 NA
BRANCH  15  17
ATOM     17  O   UNL     1      -0.153  10.001  18.122  0.00  0.00    +0.000 OA
BRANCH  17  18
ATOM     18  C   UNL     1      -1.478  10.429  17.926  0.00  0.00    +0.000 C 
ATOM     19  F   UNL     1      -1.487  11.534  17.134  0.00  0.00    +0.000 F 
ATOM     20  F   UNL     1      -2.110   9.467  17.203  0.00  0.00    +0.000 F 
ENDBRANCH  17  18
ENDBRANCH  15  17
ENDBRANCH   7  14
ENDBRANCH   1   8
BRANCH   6  21
ATOM     21  C   UNL     1       4.302   3.595  19.694  0.00  0.00    +0.000 C 
ATOM     22  O   UNL     1       4.806   2.788  20.453  0.00  0.00    +0.000 OA
BRANCH  21  23
ATOM     23  C   UNL     1       4.993   3.870  18.383  0.00  0.00    +0.000 A 
ATOM     24  C   UNL     1       4.548   3.219  17.216  0.00  0.00    +0.000 A 
ATOM     25  C   UNL     1       5.147   3.497  15.976  0.00  0.00    +0.000 A 
ATOM     26  C   UNL     1       6.170   4.447  15.875  0.00  0.00    +0.000 A 
ATOM     27  C   UNL     1       6.609   5.083  17.040  0.00  0.00    +0.000 A 
ATOM     28  C   UNL     1       6.051   4.769  18.276  0.00  0.00    +0.000 A 
BRANCH  26  29
ATOM     29  C   UNL     1       6.808   4.768  14.599  0.00  0.00    +0.000 A 
ATOM     30  C   UNL     1       6.490   4.255  13.318  0.00  0.00    +0.000 A 
ATOM     31  C   UNL     1       7.402   4.815  12.458  0.00  0.00    +0.000 A 
ATOM     32  N   UNL     1       8.189   5.613  13.224  0.00  0.00    +0.000 N 
ATOM     33  N   UNL     1       7.843   5.628  14.517  0.00  0.00    +0.000 NA
ATOM     34  H   UNL     1       8.984   6.174  12.935  0.00  0.00    +0.000 HD
ENDBRANCH  26  29
ENDBRANCH  21  23
ENDBRANCH   6  21
TORSDOF 7
ENDMDL
MODEL 5
REMARK VINA RESULT:      -8.5      3.500      8.347
REMARK  Name = 
REMARK  8 active torsions:
REMARK  status: ('A' for Active; 'I' for Inactive)
REMARK    1  A    between atoms: C_1  and  N_2
REMARK    2  A    between atoms: C_4  and  N_5
REMARK    3  A    between atoms: C_6  and  C_8
REMARK    4  A    between atoms: C_13  and  C_14
REMARK    5  A    between atoms: C_14  and  C_16
REMARK    6  A    between atoms: C_19  and  C_20
REMARK    7  A    between atoms: C_27  and  O_28
REMARK    8  A    between atoms: O_28  and  C_29
REMARK                            x       y       z     vdW  Elec       q    Type
REMARK                         _______ _______ _______ _____ _____    ______ ____
ROOT
ATOM      1  C   UNL     1       2.988   6.127  19.062  0.00  0.00    +0.000 C 
ATOM      2  C   UNL     1       2.353   5.803  17.708  0.00  0.00    +0.000 C 
ATOM      3  C   UNL     1       1.392   4.613  17.681  0.00  0.00    +0.000 C 
ATOM      4  C   UNL     1       1.678   3.444  18.620  0.00  0.00    +0.000 C 
ATOM      5  C   UNL     1       2.239   3.847  19.972  0.00  0.00    +0.000 C 
ATOM      6  C   UNL     1       3.354   4.901  19.925  0.00  0.00    +0.000 C 
ENDROOT
BRANCH   1   8
ATOM      7  N   UNL     1       1.883   8.294  19.113  0.00  0.00    +0.000 N 
ATOM      8  C   UNL     1       2.064   7.110  19.804  0.00  0.00    +0.000 C 
ATOM      9  O   UNL     1       1.551   6.832  20.887  0.00  0.00    +0.000 OA
ATOM     10  H   UNL     1       2.362   8.416  18.222  0.00  0.00    +0.000 HD
BRANCH   7  14
ATOM     11  C   UNL     1      -0.306  11.737  21.841  0.00  0.00    +0.000 C 
ATOM     12  N   UNL     1       0.110  10.904  20.740  0.00  0.00    +0.000 N 
ATOM     13  C   UNL     1       1.136  10.003  20.729  0.00  0.00    +0.000 A 
ATOM     14  C   UNL     1       1.091   9.366  19.514  0.00  0.00    +0.000 A 
ATOM     15  C   UNL     1       0.007  10.009  18.839  0.00  0.00    +0.000 A 
ATOM     16  N   UNL     1      -0.574  10.947  19.586  0.00  0.00    +0.000 NA
BRANCH  15  17
ATOM     17  O   UNL     1      -0.571   9.850  17.633  0.00  0.00    +0.000 OA
BRANCH  17  18
ATOM     18  C   UNL     1      -1.881  10.354  17.540  0.00  0.00    +0.000 C 
ATOM     19  F   UNL     1      -2.176  10.616  16.239  0.00  0.00    +0.000 F 
ATOM     20  F   UNL     1      -2.725   9.351  17.903  0.00  0.00    +0.000 F 
ENDBRANCH  17  18
ENDBRANCH  15  17
ENDBRANCH   7  14
ENDBRANCH   1   8
BRANCH   6  21
ATOM     21  C   UNL     1       4.739   4.318  19.552  0.00  0.00    +0.000 C 
ATOM     22  O   UNL     1       5.426   3.711  20.353  0.00  0.00    +0.000 OA
BRANCH  21  23
ATOM     23  C   UNL     1       5.248   4.462  18.140  0.00  0.00    +0.000 A 
ATOM     24  C   UNL     1       6.161   5.489  17.834  0.00  0.00    +0.000 A 
ATOM     25  C   UNL     1       6.683   5.612  16.536  0.00  0.00    +0.000 A 
ATOM     26  C   UNL     1       6.331   4.696  15.536  0.00  0.00    +0.000 A 
ATOM     27  C   UNL     1       5.420   3.684  15.848  0.00  0.00    +0.000 A 
ATOM     28  C   UNL     1       4.862   3.595  17.120  0.00  0.00    +0.000 A 
BRANCH  26  29
ATOM     29  C   UNL     1       6.864   4.789  14.178  0.00  0.00    +0.000 A 
ATOM     30  C   UNL     1       6.473   4.040  13.041  0.00  0.00    +0.000 A 
ATOM     31  C   UNL     1       7.300   4.451  12.025  0.00  0.00    +0.000 A 
ATOM     32  N   UNL     1       8.111   5.394  12.568  0.00  0.00    +0.000 N 
ATOM     33  N   UNL     1       7.858   5.641  13.860  0.00  0.00    +0.000 NA
ATOM     34  H   UNL     1       8.862   5.909  12.121  0.00  0.00    +0.000 HD
ENDBRANCH  26  29
ENDBRANCH  21  23
ENDBRANCH   6  21
TORSDOF 7
ENDMDL
MODEL 6
REMARK VINA RESULT:      -8.5      2.733      7.931
REMARK  Name = 
REMARK  8 active torsions:
REMARK  status: ('A' for Active; 'I' for Inactive)
REMARK    1  A    between atoms: C_1  and  N_2
REMARK    2  A    between atoms: C_4  and  N_5
REMARK    3  A    between atoms: C_6  and  C_8
REMARK    4  A    between atoms: C_13  and  C_14
REMARK    5  A    between atoms: C_14  and  C_16
REMARK    6  A    between atoms: C_19  and  C_20
REMARK    7  A    between atoms: C_27  and  O_28
REMARK    8  A    between atoms: O_28  and  C_29
REMARK                            x       y       z     vdW  Elec       q    Type
REMARK                         _______ _______ _______ _____ _____    ______ ____
ROOT
ATOM      1  C   UNL     1       2.884   5.471  19.484  0.00  0.00    +0.000 C 
ATOM      2  C   UNL     1       2.446   5.612  18.025  0.00  0.00    +0.000 C 
ATOM      3  C   UNL     1       1.360   4.645  17.552  0.00  0.00    +0.000 C 
ATOM      4  C   UNL     1       1.334   3.246  18.160  0.00  0.00    +0.000 C 
ATOM      5  C   UNL     1       1.711   3.193  19.630  0.00  0.00    +0.000 C 
ATOM      6  C   UNL     1       2.943   4.023  20.016  0.00  0.00    +0.000 C 
ENDROOT
BRANCH   1   8
ATOM      7  N   UNL     1       1.944   7.678  19.889  0.00  0.00    +0.000 N 
ATOM      8  C   UNL     1       1.983   6.375  20.347  0.00  0.00    +0.000 C 
ATOM      9  O   UNL     1       1.370   5.943  21.322  0.00  0.00    +0.000 OA
ATOM     10  H   UNL     1       2.497   7.924  19.069  0.00  0.00    +0.000 HD
BRANCH   7  14
ATOM     11  C   UNL     1      -0.579  10.476  23.034  0.00  0.00    +0.000 C 
ATOM     12  N   UNL     1       0.073   9.969  21.853  0.00  0.00    +0.000 N 
ATOM     13  C   UNL     1       0.920   8.901  21.773  0.00  0.00    +0.000 A 
ATOM     14  C   UNL     1       1.207   8.721  20.443  0.00  0.00    +0.000 A 
ATOM     15  C   UNL     1       0.505   9.790  19.802  0.00  0.00    +0.000 A 
ATOM     16  N   UNL     1      -0.169  10.547  20.666  0.00  0.00    +0.000 NA
BRANCH  15  17
ATOM     17  O   UNL     1       0.352  10.173  18.520  0.00  0.00    +0.000 OA
BRANCH  17  18
ATOM     18  C   UNL     1       1.455  10.855  17.977  0.00  0.00    +0.000 C 
ATOM     19  F   UNL     1       2.035  11.622  18.938  0.00  0.00    +0.000 F 
ATOM     20  F   UNL     1       2.388   9.920  17.655  0.00  0.00    +0.000 F 
ENDBRANCH  17  18
ENDBRANCH  15  17
ENDBRANCH   7  14
ENDBRANCH   1   8
BRANCH   6  21
ATOM     21  C   UNL     1       4.285   3.331  19.674  0.00  0.00    +0.000 C 
ATOM     22  O   UNL     1       4.794   2.501  20.405  0.00  0.00    +0.000 OA
BRANCH  21  23
ATOM     23  C   UNL     1       4.974   3.652  18.372  0.00  0.00    +0.000 A 
ATOM     24  C   UNL     1       4.515   3.059  17.180  0.00  0.00    +0.000 A 
ATOM     25  C   UNL     1       5.112   3.381  15.950  0.00  0.00    +0.000 A 
ATOM     26  C   UNL     1       6.148   4.320  15.885  0.00  0.00    +0.000 A 
ATOM     27  C   UNL     1       6.601   4.899  17.073  0.00  0.00    +0.000 A 
ATOM     28  C   UNL     1       6.045   4.540  18.298  0.00  0.00    +0.000 A 
BRANCH  26  29
ATOM     29  C   UNL     1       6.785   4.686  14.621  0.00  0.00    +0.000 A 
ATOM     30  C   UNL     1       6.503   4.177  13.330  0.00  0.00    +0.000 A 
ATOM     31  C   UNL     1       7.398   4.789  12.487  0.00  0.00    +0.000 A 
ATOM     32  N   UNL     1       8.141   5.610  13.272  0.00  0.00    +0.000 N 
ATOM     33  N   UNL     1       7.781   5.592  14.562  0.00  0.00    +0.000 NA
ATOM     34  H   UNL     1       8.913   6.210  13.000  0.00  0.00    +0.000 HD
ENDBRANCH  26  29
ENDBRANCH  21  23
ENDBRANCH   6  21
TORSDOF 7
ENDMDL
MODEL 7
REMARK VINA RESULT:      -8.4      3.060      8.135
REMARK  Name = 
REMARK  8 active torsions:
REMARK  status: ('A' for Active; 'I' for Inactive)
REMARK    1  A    between atoms: C_1  and  N_2
REMARK    2  A    between atoms: C_4  and  N_5
REMARK    3  A    between atoms: C_6  and  C_8
REMARK    4  A    between atoms: C_13  and  C_14
REMARK    5  A    between atoms: C_14  and  C_16
REMARK    6  A    between atoms: C_19  and  C_20
REMARK    7  A    between atoms: C_27  and  O_28
REMARK    8  A    between atoms: O_28  and  C_29
REMARK                            x       y       z     vdW  Elec       q    Type
REMARK                         _______ _______ _______ _____ _____    ______ ____
ROOT
ATOM      1  C   UNL     1       3.006   6.218  18.991  0.00  0.00    +0.000 C 
ATOM      2  C   UNL     1       2.345   5.731  17.700  0.00  0.00    +0.000 C 
ATOM      3  C   UNL     1       1.466   4.485  17.823  0.00  0.00    +0.000 C 
ATOM      4  C   UNL     1       1.864   3.429  18.849  0.00  0.00    +0.000 C 
ATOM      5  C   UNL     1       2.447   3.990  20.134  0.00  0.00    +0.000 C 
ATOM      6  C   UNL     1       3.486   5.104  19.945  0.00  0.00    +0.000 C 
ENDROOT
BRANCH   1   8
ATOM      7  N   UNL     1       1.908   8.390  18.981  0.00  0.00    +0.000 N 
ATOM      8  C   UNL     1       2.046   7.206  19.681  0.00  0.00    +0.000 C 
ATOM      9  O   UNL     1       1.473   6.929  20.734  0.00  0.00    +0.000 OA
ATOM     10  H   UNL     1       2.437   8.510  18.118  0.00  0.00    +0.000 HD
BRANCH   7  14
ATOM     11  C   UNL     1      -0.758  12.506  18.804  0.00  0.00    +0.000 C 
ATOM     12  N   UNL     1      -0.089  11.312  19.256  0.00  0.00    +0.000 N 
ATOM     13  C   UNL     1       0.496  10.351  18.482  0.00  0.00    +0.000 A 
ATOM     14  C   UNL     1       1.100   9.466  19.338  0.00  0.00    +0.000 A 
ATOM     15  C   UNL     1       0.767   9.973  20.633  0.00  0.00    +0.000 A 
ATOM     16  N   UNL     1       0.037  11.085  20.573  0.00  0.00    +0.000 NA
BRANCH  15  17
ATOM     17  O   UNL     1       1.058   9.590  21.891  0.00  0.00    +0.000 OA
BRANCH  17  18
ATOM     18  C   UNL     1      -0.047   9.541  22.760  0.00  0.00    +0.000 C 
ATOM     19  F   UNL     1      -0.822   8.468  22.450  0.00  0.00    +0.000 F 
ATOM     20  F   UNL     1       0.432   9.288  24.007  0.00  0.00    +0.000 F 
ENDBRANCH  17  18
ENDBRANCH  15  17
ENDBRANCH   7  14
ENDBRANCH   1   8
BRANCH   6  21
ATOM     21  C   UNL     1       4.893   4.578  19.567  0.00  0.00    +0.000 C 
ATOM     22  O   UNL     1       5.644   4.084  20.387  0.00  0.00    +0.000 OA
BRANCH  21  23
ATOM     23  C   UNL     1       5.342   4.634  18.129  0.00  0.00    +0.000 A 
ATOM     24  C   UNL     1       6.202   5.668  17.711  0.00  0.00    +0.000 A 
ATOM     25  C   UNL     1       6.670   5.711  16.387  0.00  0.00    +0.000 A 
ATOM     26  C   UNL     1       6.318   4.711  15.474  0.00  0.00    +0.000 A 
ATOM     27  C   UNL     1       5.459   3.693  15.895  0.00  0.00    +0.000 A 
ATOM     28  C   UNL     1       4.953   3.679  17.192  0.00  0.00    +0.000 A 
BRANCH  26  29
ATOM     29  C   UNL     1       6.796   4.720  14.092  0.00  0.00    +0.000 A 
ATOM     30  C   UNL     1       6.349   3.916  13.015  0.00  0.00    +0.000 A 
ATOM     31  C   UNL     1       7.139   4.257  11.945  0.00  0.00    +0.000 A 
ATOM     32  N   UNL     1       7.984   5.216  12.402  0.00  0.00    +0.000 N 
ATOM     33  N   UNL     1       7.787   5.538  13.687  0.00  0.00    +0.000 NA
ATOM     34  H   UNL     1       8.723   5.695  11.897  0.00  0.00    +0.000 HD
ENDBRANCH  26  29
ENDBRANCH  21  23
ENDBRANCH   6  21
TORSDOF 7
ENDMDL
MODEL 8
REMARK VINA RESULT:      -8.4      3.060      8.000
REMARK  Name = 
REMARK  8 active torsions:
REMARK  status: ('A' for Active; 'I' for Inactive)
REMARK    1  A    between atoms: C_1  and  N_2
REMARK    2  A    between atoms: C_4  and  N_5
REMARK    3  A    between atoms: C_6  and  C_8
REMARK    4  A    between atoms: C_13  and  C_14
REMARK    5  A    between atoms: C_14  and  C_16
REMARK    6  A    between atoms: C_19  and  C_20
REMARK    7  A    between atoms: C_27  and  O_28
REMARK    8  A    between atoms: O_28  and  C_29
REMARK                            x       y       z     vdW  Elec       q    Type
REMARK                         _______ _______ _______ _____ _____    ______ ____
ROOT
ATOM      1  C   UNL     1       2.921   5.777  19.089  0.00  0.00    +0.000 C 
ATOM      2  C   UNL     1       2.334   5.552  17.694  0.00  0.00    +0.000 C 
ATOM      3  C   UNL     1       1.242   4.487  17.587  0.00  0.00    +0.000 C 
ATOM      4  C   UNL     1       1.330   3.278  18.513  0.00  0.00    +0.000 C 
ATOM      5  C   UNL     1       1.854   3.590  19.904  0.00  0.00    +0.000 C 
ATOM      6  C   UNL     1       3.087   4.504  19.945  0.00  0.00    +0.000 C 
ENDROOT
BRANCH   1   8
ATOM      7  N   UNL     1       1.971   8.017  19.060  0.00  0.00    +0.000 N 
ATOM      8  C   UNL     1       2.078   6.853  19.798  0.00  0.00    +0.000 C 
ATOM      9  O   UNL     1       1.562   6.656  20.898  0.00  0.00    +0.000 OA
ATOM     10  H   UNL     1       2.446   8.068  18.160  0.00  0.00    +0.000 HD
BRANCH   7  14
ATOM     11  C   UNL     1      -0.434  12.291  18.884  0.00  0.00    +0.000 C 
ATOM     12  N   UNL     1       0.190  11.075  19.342  0.00  0.00    +0.000 N 
ATOM     13  C   UNL     1       0.653  10.046  18.573  0.00  0.00    +0.000 A 
ATOM     14  C   UNL     1       1.262   9.158  19.424  0.00  0.00    +0.000 A 
ATOM     15  C   UNL     1       1.061   9.740  20.715  0.00  0.00    +0.000 A 
ATOM     16  N   UNL     1       0.400  10.895  20.655  0.00  0.00    +0.000 NA
BRANCH  15  17
ATOM     17  O   UNL     1       1.422   9.392  21.965  0.00  0.00    +0.000 OA
BRANCH  17  18
ATOM     18  C   UNL     1       0.363   8.953  22.780  0.00  0.00    +0.000 C 
ATOM     19  F   UNL     1      -0.120   9.998  23.503  0.00  0.00    +0.000 F 
ATOM     20  F   UNL     1      -0.655   8.589  21.955  0.00  0.00    +0.000 F 
ENDBRANCH  17  18
ENDBRANCH  15  17
ENDBRANCH   7  14
ENDBRANCH   1   8
BRANCH   6  21
ATOM     21  C   UNL     1       4.413   3.764  19.640  0.00  0.00    +0.000 C 
ATOM     22  O   UNL     1       4.910   2.972  20.419  0.00  0.00    +0.000 OA
BRANCH  21  23
ATOM     23  C   UNL     1       5.099   3.990  18.317  0.00  0.00    +0.000 A 
ATOM     24  C   UNL     1       4.624   3.328  17.168  0.00  0.00    +0.000 A 
ATOM     25  C   UNL     1       5.220   3.561  15.917  0.00  0.00    +0.000 A 
ATOM     26  C   UNL     1       6.270   4.477  15.786  0.00  0.00    +0.000 A 
ATOM     27  C   UNL     1       6.738   5.124  16.932  0.00  0.00    +0.000 A 
ATOM     28  C   UNL     1       6.183   4.855  18.180  0.00  0.00    +0.000 A 
BRANCH  26  29
ATOM     29  C   UNL     1       6.905   4.751  14.498  0.00  0.00    +0.000 A 
ATOM     30  C   UNL     1       6.594   4.179  13.240  0.00  0.00    +0.000 A 
ATOM     31  C   UNL     1       7.500   4.714  12.357  0.00  0.00    +0.000 A 
ATOM     32  N   UNL     1       8.275   5.554  13.088  0.00  0.00    +0.000 N 
ATOM     33  N   UNL     1       7.928   5.620  14.379  0.00  0.00    +0.000 NA
ATOM     34  H   UNL     1       9.063   6.112  12.775  0.00  0.00    +0.000 HD
ENDBRANCH  26  29
ENDBRANCH  21  23
ENDBRANCH   6  21
TORSDOF 7
ENDMDL
MODEL 9
REMARK VINA RESULT:      -8.4      2.804      7.789
REMARK  Name = 
REMARK  8 active torsions:
REMARK  status: ('A' for Active; 'I' for Inactive)
REMARK    1  A    between atoms: C_1  and  N_2
REMARK    2  A    between atoms: C_4  and  N_5
REMARK    3  A    between atoms: C_6  and  C_8
REMARK    4  A    between atoms: C_13  and  C_14
REMARK    5  A    between atoms: C_14  and  C_16
REMARK    6  A    between atoms: C_19  and  C_20
REMARK    7  A    between atoms: C_27  and  O_28
REMARK    8  A    between atoms: O_28  and  C_29
REMARK                            x       y       z     vdW  Elec       q    Type
REMARK                         _______ _______ _______ _____ _____    ______ ____
ROOT
ATOM      1  C   UNL     1       2.693   5.421  19.117  0.00  0.00    +0.000 C 
ATOM      2  C   UNL     1       1.447   4.694  18.608  0.00  0.00    +0.000 C 
ATOM      3  C   UNL     1       0.679   3.869  19.641  0.00  0.00    +0.000 C 
ATOM      4  C   UNL     1       1.476   3.197  20.754  0.00  0.00    +0.000 C 
ATOM      5  C   UNL     1       2.656   4.009  21.260  0.00  0.00    +0.000 C 
ATOM      6  C   UNL     1       3.522   4.648  20.165  0.00  0.00    +0.000 C 
ENDROOT
BRANCH   1   8
ATOM      7  N   UNL     1       2.084   7.716  18.588  0.00  0.00    +0.000 N 
ATOM      8  C   UNL     1       2.267   6.813  19.619  0.00  0.00    +0.000 C 
ATOM      9  O   UNL     1       2.105   7.053  20.815  0.00  0.00    +0.000 OA
ATOM     10  H   UNL     1       2.251   7.405  17.632  0.00  0.00    +0.000 HD
BRANCH   7  14
ATOM     11  C   UNL     1       1.926  12.613  18.300  0.00  0.00    +0.000 C 
ATOM     12  N   UNL     1       1.617  11.235  18.594  0.00  0.00    +0.000 N 
ATOM     13  C   UNL     1       2.224  10.126  18.077  0.00  0.00    +0.000 A 
ATOM     14  C   UNL     1       1.682   9.042  18.720  0.00  0.00    +0.000 A 
ATOM     15  C   UNL     1       0.704   9.622  19.588  0.00  0.00    +0.000 A 
ATOM     16  N   UNL     1       0.665  10.950  19.495  0.00  0.00    +0.000 NA
BRANCH  15  17
ATOM     17  O   UNL     1      -0.156   9.122  20.496  0.00  0.00    +0.000 OA
BRANCH  17  18
ATOM     18  C   UNL     1       0.139   9.458  21.829  0.00  0.00    +0.000 C 
ATOM     19  F   UNL     1       1.441   9.838  21.926  0.00  0.00    +0.000 F 
ATOM     20  F   UNL     1      -0.582  10.570  22.133  0.00  0.00    +0.000 F 
ENDBRANCH  17  18
ENDBRANCH  15  17
ENDBRANCH   7  14
ENDBRANCH   1   8
BRANCH   6  21
ATOM     21  C   UNL     1       4.516   3.659  19.509  0.00  0.00    +0.000 C 
ATOM     22  O   UNL     1       4.823   2.603  20.031  0.00  0.00    +0.000 OA
BRANCH  21  23
ATOM     23  C   UNL     1       5.099   3.983  18.157  0.00  0.00    +0.000 A 
ATOM     24  C   UNL     1       6.337   4.649  18.078  0.00  0.00    +0.000 A 
ATOM     25  C   UNL     1       6.920   4.919  16.828  0.00  0.00    +0.000 A 
ATOM     26  C   UNL     1       6.298   4.500  15.646  0.00  0.00    +0.000 A 
ATOM     27  C   UNL     1       5.067   3.845  15.734  0.00  0.00    +0.000 A 
ATOM     28  C   UNL     1       4.464   3.625  16.970  0.00  0.00    +0.000 A 
BRANCH  26  29
ATOM     29  C   UNL     1       6.882   4.755  14.330  0.00  0.00    +0.000 A 
ATOM     30  C   UNL     1       6.524   4.164  13.094  0.00  0.00    +0.000 A 
ATOM     31  C   UNL     1       7.394   4.686  12.168  0.00  0.00    +0.000 A 
ATOM     32  N   UNL     1       8.196   5.537  12.856  0.00  0.00    +0.000 N 
ATOM     33  N   UNL     1       7.899   5.623  14.158  0.00  0.00    +0.000 NA
ATOM     34  H   UNL     1       8.970   6.092  12.505  0.00  0.00    +0.000 HD
ENDBRANCH  26  29
ENDBRANCH  21  23
ENDBRANCH   6  21
TORSDOF 7
ENDMDL
