MODEL 1
REMARK VINA RESULT:      -7.9      0.000      0.000
REMARK  Name = 
REMARK  5 active torsions:
REMARK  status: ('A' for Active; 'I' for Inactive)
REMARK    1  A    between atoms: C_1  and  C_2
REMARK    2  A    between atoms: C_5  and  C_6
REMARK    3  A    between atoms: N_8  and  C_9
REMARK    4  A    between atoms: C_10  and  C_11
REMARK    5  A    between atoms: C_20  and  O_21
REMARK                            x       y       z     vdW  Elec       q    Type
REMARK                         _______ _______ _______ _____ _____    ______ ____
ROOT
ATOM      1  C   UNL     1       3.524   4.391  19.985  0.00  0.00    +0.000 A 
ATOM      2  C   UNL     1       4.308   3.588  19.092  0.00  0.00    +0.000 A 
ATOM      3  N   UNL     1       4.321   2.305  19.501  0.00  0.00    +0.000 NA
ATOM      4  N   UNL     1       3.615   2.310  20.640  0.00  0.00    +0.000 N 
ATOM      5  C   UNL     1       3.068   3.523  20.955  0.00  0.00    +0.000 A 
ATOM      6  H   UNL     1       3.518   1.431  21.138  0.00  0.00    +0.000 HD
ENDROOT
BRANCH   2   7
ATOM      7  C   UNL     1       5.086   3.994  17.917  0.00  0.00    +0.000 A 
ATOM      8  C   UNL     1       6.397   4.479  18.039  0.00  0.00    +0.000 A 
ATOM      9  C   UNL     1       7.134   4.836  16.904  0.00  0.00    +0.000 A 
ATOM     10  C   UNL     1       6.574   4.690  15.639  0.00  0.00    +0.000 A 
ATOM     11 CL   UNL     1       7.486   5.115  14.245  0.00  0.00    +0.000 Cl
ATOM     12  C   UNL     1       5.282   4.192  15.495  0.00  0.00    +0.000 A 
ATOM     13  C   UNL     1       4.542   3.846  16.630  0.00  0.00    +0.000 A 
ENDBRANCH   2   7
BRANCH   1  16
ATOM     14  C   UNL     1       2.421   6.212  18.855  0.00  0.00    +0.000 C 
ATOM     15  O   UNL     1       1.937   5.530  17.959  0.00  0.00    +0.000 OA
ATOM     16  N   UNL     1       3.218   5.748  19.893  0.00  0.00    +0.000 N 
ATOM     17  H   UNL     1       3.149   6.251  20.769  0.00  0.00    +0.000 HD
BRANCH  14  22
ATOM     18  C   UNL     1       0.681  11.729  19.378  0.00  0.00    +0.000 C 
ATOM     19  C   UNL     1       1.154  10.309  19.243  0.00  0.00    +0.000 A 
ATOM     20  C   UNL     1       1.095   9.429  20.329  0.00  0.00    +0.000 A 
ATOM     21  C   UNL     1       1.515   8.104  20.189  0.00  0.00    +0.000 A 
ATOM     22  C   UNL     1       2.009   7.643  18.962  0.00  0.00    +0.000 A 
ATOM     23  C   UNL     1       2.077   8.517  17.873  0.00  0.00    +0.000 A 
ATOM     24  C   UNL     1       1.648   9.843  18.016  0.00  0.00    +0.000 A 
ENDBRANCH  14  22
ENDBRANCH   1  16
BRANCH   5  25
ATOM     25  O   UNL     1       2.233   3.701  21.976  0.00  0.00    +0.000 OA
ATOM     26  H   UNL     1       1.660   4.468  21.816  0.00  0.00    +0.000 HD
ENDBRANCH   5  25
TORSDOF 4
ENDMDL
MODEL 2
REMARK VINA RESULT:      -7.8      0.084      1.010
REMARK  Name = 
REMARK  5 active torsions:
REMARK  status: ('A' for Active; 'I' for Inactive)
REMARK    1  A    between atoms: C_1  and  C_2
REMARK    2  A    between atoms: C_5  and  C_6
REMARK    3  A    between atoms: N_8  and  C_9
REMARK    4  A    between atoms: C_10  and  C_11
REMARK    5  A    between atoms: C_20  and  O_21
REMARK                            x       y       z     vdW  Elec       q    Type
REMARK                         _______ _______ _______ _____ _____    ______ ____
ROOT
ATOM      1  C   UNL     1       3.519   4.387  19.999  0.00  0.00    +0.000 A 
ATOM      2  C   UNL     1       4.313   3.597  19.104  0.00  0.00    +0.000 A 
ATOM      3  N   UNL     1       4.337   2.312  19.505  0.00  0.00    +0.000 NA
ATOM      4  N   UNL     1       3.627   2.303  20.642  0.00  0.00    +0.000 N 
ATOM      5  C   UNL     1       3.067   3.509  20.961  0.00  0.00    +0.000 A 
ATOM      6  H   UNL     1       3.535   1.421  21.133  0.00  0.00    +0.000 HD
ENDROOT
BRANCH   2   7
ATOM      7  C   UNL     1       5.093   4.018  17.935  0.00  0.00    +0.000 A 
ATOM      8  C   UNL     1       6.393   4.527  18.066  0.00  0.00    +0.000 A 
ATOM      9  C   UNL     1       7.131   4.898  16.936  0.00  0.00    +0.000 A 
ATOM     10  C   UNL     1       6.583   4.741  15.667  0.00  0.00    +0.000 A 
ATOM     11 CL   UNL     1       7.497   5.183  14.280  0.00  0.00    +0.000 Cl
ATOM     12  C   UNL     1       5.302   4.219  15.514  0.00  0.00    +0.000 A 
ATOM     13  C   UNL     1       4.560   3.860  16.643  0.00  0.00    +0.000 A 
ENDBRANCH   2   7
BRANCH   1  16
ATOM     14  C   UNL     1       2.401   6.205  18.878  0.00  0.00    +0.000 C 
ATOM     15  O   UNL     1       1.924   5.523  17.977  0.00  0.00    +0.000 OA
ATOM     16  N   UNL     1       3.201   5.742  19.915  0.00  0.00    +0.000 N 
ATOM     17  H   UNL     1       3.126   6.239  20.793  0.00  0.00    +0.000 HD
BRANCH  14  22
ATOM     18  C   UNL     1       0.886  11.801  19.223  0.00  0.00    +0.000 C 
ATOM     19  C   UNL     1       1.255  10.347  19.133  0.00  0.00    +0.000 A 
ATOM     20  C   UNL     1       1.750   9.808  17.941  0.00  0.00    +0.000 A 
ATOM     21  C   UNL     1       2.112   8.460  17.872  0.00  0.00    +0.000 A 
ATOM     22  C   UNL     1       1.976   7.631  18.993  0.00  0.00    +0.000 A 
ATOM     23  C   UNL     1       1.478   8.161  20.187  0.00  0.00    +0.000 A 
ATOM     24  C   UNL     1       1.122   9.515  20.253  0.00  0.00    +0.000 A 
ENDBRANCH  14  22
ENDBRANCH   1  16
BRANCH   5  25
ATOM     25  O   UNL     1       2.227   3.673  21.980  0.00  0.00    +0.000 OA
ATOM     26  H   UNL     1       1.319   3.464  21.709  0.00  0.00    +0.000 HD
ENDBRANCH   5  25
TORSDOF 4
ENDMDL
MODEL 3
REMARK VINA RESULT:      -7.8      0.077      1.009
REMARK  Name = 
REMARK  5 active torsions:
REMARK  status: ('A' for Active; 'I' for Inactive)
REMARK    1  A    between atoms: C_1  and  C_2
REMARK    2  A    between atoms: C_5  and  C_6
REMARK    3  A    between atoms: N_8  and  C_9
REMARK    4  A    between atoms: C_10  and  C_11
REMARK    5  A    between atoms: C_20  and  O_21
REMARK                            x       y       z     vdW  Elec       q    Type
REMARK                         _______ _______ _______ _____ _____    ______ ____
ROOT
ATOM      1  C   UNL     1       3.520   4.352  19.994  0.00  0.00    +0.000 A 
ATOM      2  C   UNL     1       4.301   3.535  19.112  0.00  0.00    +0.000 A 
ATOM      3  N   UNL     1       4.300   2.256  19.532  0.00  0.00    +0.000 NA
ATOM      4  N   UNL     1       3.589   2.277  20.668  0.00  0.00    +0.000 N 
ATOM      5  C   UNL     1       3.051   3.497  20.969  0.00  0.00    +0.000 A 
ATOM      6  H   UNL     1       3.480   1.403  21.172  0.00  0.00    +0.000 HD
ENDROOT
BRANCH   2   7
ATOM      7  C   UNL     1       5.090   3.924  17.938  0.00  0.00    +0.000 A 
ATOM      8  C   UNL     1       4.591   3.769  16.636  0.00  0.00    +0.000 A 
ATOM      9  C   UNL     1       5.347   4.171  15.530  0.00  0.00    +0.000 A 
ATOM     10  C   UNL     1       6.597   4.752  15.718  0.00  0.00    +0.000 A 
ATOM     11 CL   UNL     1       7.518   5.259  14.358  0.00  0.00    +0.000 Cl
ATOM     12  C   UNL     1       7.102   4.934  17.003  0.00  0.00    +0.000 A 
ATOM     13  C   UNL     1       6.351   4.521  18.108  0.00  0.00    +0.000 A 
ENDBRANCH   2   7
BRANCH   1  16
ATOM     14  C   UNL     1       2.425   6.172  18.854  0.00  0.00    +0.000 C 
ATOM     15  O   UNL     1       1.924   5.484  17.971  0.00  0.00    +0.000 OA
ATOM     16  N   UNL     1       3.227   5.711  19.890  0.00  0.00    +0.000 N 
ATOM     17  H   UNL     1       3.172   6.225  20.760  0.00  0.00    +0.000 HD
BRANCH  14  22
ATOM     18  C   UNL     1       0.745  11.711  19.326  0.00  0.00    +0.000 C 
ATOM     19  C   UNL     1       1.202  10.285  19.204  0.00  0.00    +0.000 A 
ATOM     20  C   UNL     1       1.121   9.413  20.295  0.00  0.00    +0.000 A 
ATOM     21  C   UNL     1       1.527   8.082  20.167  0.00  0.00    +0.000 A 
ATOM     22  C   UNL     1       2.028   7.608  18.948  0.00  0.00    +0.000 A 
ATOM     23  C   UNL     1       2.117   8.474  17.855  0.00  0.00    +0.000 A 
ATOM     24  C   UNL     1       1.703   9.806  17.985  0.00  0.00    +0.000 A 
ENDBRANCH  14  22
ENDBRANCH   1  16
BRANCH   5  25
ATOM     25  O   UNL     1       2.212   3.692  21.984  0.00  0.00    +0.000 OA
ATOM     26  H   UNL     1       1.536   4.346  21.746  0.00  0.00    +0.000 HD
ENDBRANCH   5  25
TORSDOF 4
ENDMDL
MODEL 4
REMARK VINA RESULT:      -7.8      2.748      6.371
REMARK  Name = 
REMARK  5 active torsions:
REMARK  status: ('A' for Active; 'I' for Inactive)
REMARK    1  A    between atoms: C_1  and  C_2
REMARK    2  A    between atoms: C_5  and  C_6
REMARK    3  A    between atoms: N_8  and  C_9
REMARK    4  A    between atoms: C_10  and  C_11
REMARK    5  A    between atoms: C_20  and  O_21
REMARK                            x       y       z     vdW  Elec       q    Type
REMARK                         _______ _______ _______ _____ _____    ______ ____
ROOT
ATOM      1  C   UNL     1       3.561   3.990  18.900  0.00  0.00    +0.000 A 
ATOM      2  C   UNL     1       2.875   4.901  19.768  0.00  0.00    +0.000 A 
ATOM      3  N   UNL     1       2.553   4.295  20.927  0.00  0.00    +0.000 NA
ATOM      4  N   UNL     1       2.973   3.032  20.772  0.00  0.00    +0.000 N 
ATOM      5  C   UNL     1       3.632   2.802  19.596  0.00  0.00    +0.000 A 
ATOM      6  H   UNL     1       2.806   2.383  21.533  0.00  0.00    +0.000 HD
ENDROOT
BRANCH   2   7
ATOM      7  C   UNL     1       2.462   6.287  19.523  0.00  0.00    +0.000 A 
ATOM      8  C   UNL     1       2.606   6.882  18.261  0.00  0.00    +0.000 A 
ATOM      9  C   UNL     1       2.181   8.196  18.040  0.00  0.00    +0.000 A 
ATOM     10  C   UNL     1       1.589   8.918  19.071  0.00  0.00    +0.000 A 
ATOM     11 CL   UNL     1       1.054  10.527  18.792  0.00  0.00    +0.000 Cl
ATOM     12  C   UNL     1       1.418   8.338  20.325  0.00  0.00    +0.000 A 
ATOM     13  C   UNL     1       1.853   7.029  20.550  0.00  0.00    +0.000 A 
ENDBRANCH   2   7
BRANCH   1  16
ATOM     14  C   UNL     1       5.476   4.395  17.493  0.00  0.00    +0.000 C 
ATOM     15  O   UNL     1       6.305   4.355  18.395  0.00  0.00    +0.000 OA
ATOM     16  N   UNL     1       4.104   4.232  17.639  0.00  0.00    +0.000 N 
ATOM     17  H   UNL     1       3.618   3.817  16.855  0.00  0.00    +0.000 HD
BRANCH  14  22
ATOM     18  C   UNL     1       7.308   4.489  11.983  0.00  0.00    +0.000 C 
ATOM     19  C   UNL     1       6.827   4.487  13.406  0.00  0.00    +0.000 A 
ATOM     20  C   UNL     1       5.646   3.827  13.761  0.00  0.00    +0.000 A 
ATOM     21  C   UNL     1       5.218   3.811  15.091  0.00  0.00    +0.000 A 
ATOM     22  C   UNL     1       5.960   4.463  16.083  0.00  0.00    +0.000 A 
ATOM     23  C   UNL     1       7.139   5.129  15.736  0.00  0.00    +0.000 A 
ATOM     24  C   UNL     1       7.569   5.137  14.403  0.00  0.00    +0.000 A 
ENDBRANCH  14  22
ENDBRANCH   1  16
BRANCH   5  25
ATOM     25  O   UNL     1       4.233   1.648  19.313  0.00  0.00    +0.000 OA
ATOM     26  H   UNL     1       4.497   1.193  20.128  0.00  0.00    +0.000 HD
ENDBRANCH   5  25
TORSDOF 4
ENDMDL
MODEL 5
REMARK VINA RESULT:      -7.7      2.492      6.022
REMARK  Name = 
REMARK  5 active torsions:
REMARK  status: ('A' for Active; 'I' for Inactive)
REMARK    1  A    between atoms: C_1  and  C_2
REMARK    2  A    between atoms: C_5  and  C_6
REMARK    3  A    between atoms: N_8  and  C_9
REMARK    4  A    between atoms: C_10  and  C_11
REMARK    5  A    between atoms: C_20  and  O_21
REMARK                            x       y       z     vdW  Elec       q    Type
REMARK                         _______ _______ _______ _____ _____    ______ ____
ROOT
ATOM      1  C   UNL     1       4.226   3.667  19.330  0.00  0.00    +0.000 A 
ATOM      2  C   UNL     1       3.291   4.576  19.926  0.00  0.00    +0.000 A 
ATOM      3  N   UNL     1       2.709   4.014  21.002  0.00  0.00    +0.000 NA
ATOM      4  N   UNL     1       3.220   2.776  21.051  0.00  0.00    +0.000 N 
ATOM      5  C   UNL     1       4.174   2.527  20.104  0.00  0.00    +0.000 A 
ATOM      6  H   UNL     1       2.894   2.160  21.788  0.00  0.00    +0.000 HD
ENDROOT
BRANCH   2   7
ATOM      7  C   UNL     1       2.886   5.915  19.484  0.00  0.00    +0.000 A 
ATOM      8  C   UNL     1       3.188   6.385  18.198  0.00  0.00    +0.000 A 
ATOM      9  C   UNL     1       2.769   7.654  17.786  0.00  0.00    +0.000 A 
ATOM     10  C   UNL     1       2.026   8.454  18.648  0.00  0.00    +0.000 A 
ATOM     11 CL   UNL     1       1.499  10.007  18.134  0.00  0.00    +0.000 Cl
ATOM     12  C   UNL     1       1.698   7.998  19.922  0.00  0.00    +0.000 A 
ATOM     13  C   UNL     1       2.126   6.734  20.338  0.00  0.00    +0.000 A 
ENDBRANCH   2   7
BRANCH   1  16
ATOM     14  C   UNL     1       4.602   3.646  16.949  0.00  0.00    +0.000 C 
ATOM     15  O   UNL     1       3.480   3.254  16.648  0.00  0.00    +0.000 OA
ATOM     16  N   UNL     1       5.067   3.875  18.238  0.00  0.00    +0.000 N 
ATOM     17  H   UNL     1       5.760   4.606  18.339  0.00  0.00    +0.000 HD
BRANCH  14  22
ATOM     18  C   UNL     1       8.192   5.488  12.772  0.00  0.00    +0.000 C 
ATOM     19  C   UNL     1       7.274   4.990  13.852  0.00  0.00    +0.000 A 
ATOM     20  C   UNL     1       7.456   5.382  15.183  0.00  0.00    +0.000 A 
ATOM     21  C   UNL     1       6.584   4.933  16.177  0.00  0.00    +0.000 A 
ATOM     22  C   UNL     1       5.522   4.078  15.856  0.00  0.00    +0.000 A 
ATOM     23  C   UNL     1       5.336   3.677  14.530  0.00  0.00    +0.000 A 
ATOM     24  C   UNL     1       6.209   4.135  13.534  0.00  0.00    +0.000 A 
ENDBRANCH  14  22
ENDBRANCH   1  16
BRANCH   5  25
ATOM     25  O   UNL     1       4.887   1.403  20.068  0.00  0.00    +0.000 OA
ATOM     26  H   UNL     1       5.614   1.482  19.430  0.00  0.00    +0.000 HD
ENDBRANCH   5  25
TORSDOF 4
ENDMDL
MODEL 6
REMARK VINA RESULT:      -7.7      2.685      6.308
REMARK  Name = 
REMARK  5 active torsions:
REMARK  status: ('A' for Active; 'I' for Inactive)
REMARK    1  A    between atoms: C_1  and  C_2
REMARK    2  A    between atoms: C_5  and  C_6
REMARK    3  A    between atoms: N_8  and  C_9
REMARK    4  A    between atoms: C_10  and  C_11
REMARK    5  A    between atoms: C_20  and  O_21
REMARK                            x       y       z     vdW  Elec       q    Type
REMARK                         _______ _______ _______ _____ _____    ______ ____
ROOT
ATOM      1  C   UNL     1       3.321   4.179  19.246  0.00  0.00    +0.000 A 
ATOM      2  C   UNL     1       2.632   5.134  20.064  0.00  0.00    +0.000 A 
ATOM      3  N   UNL     1       2.262   4.573  21.231  0.00  0.00    +0.000 NA
ATOM      4  N   UNL     1       2.658   3.296  21.129  0.00  0.00    +0.000 N 
ATOM      5  C   UNL     1       3.345   3.013  19.982  0.00  0.00    +0.000 A 
ATOM      6  H   UNL     1       2.454   2.676  21.906  0.00  0.00    +0.000 HD
ENDROOT
BRANCH   2   7
ATOM      7  C   UNL     1       2.258   6.519  19.762  0.00  0.00    +0.000 A 
ATOM      8  C   UNL     1       2.461   7.072  18.488  0.00  0.00    +0.000 A 
ATOM      9  C   UNL     1       2.073   8.387  18.212  0.00  0.00    +0.000 A 
ATOM     10  C   UNL     1       1.460   9.152  19.199  0.00  0.00    +0.000 A 
ATOM     11 CL   UNL     1       0.970  10.763  18.852  0.00  0.00    +0.000 Cl
ATOM     12  C   UNL     1       1.232   8.616  20.463  0.00  0.00    +0.000 A 
ATOM     13  C   UNL     1       1.629   7.305  20.743  0.00  0.00    +0.000 A 
ENDBRANCH   2   7
BRANCH   1  16
ATOM     14  C   UNL     1       5.286   4.488  17.884  0.00  0.00    +0.000 C 
ATOM     15  O   UNL     1       6.088   4.452  18.810  0.00  0.00    +0.000 OA
ATOM     16  N   UNL     1       3.906   4.367  17.994  0.00  0.00    +0.000 N 
ATOM     17  H   UNL     1       3.431   3.942  17.209  0.00  0.00    +0.000 HD
BRANCH  14  22
ATOM     18  C   UNL     1       7.404   4.691  12.480  0.00  0.00    +0.000 C 
ATOM     19  C   UNL     1       6.860   4.615  13.878  0.00  0.00    +0.000 A 
ATOM     20  C   UNL     1       7.611   5.078  14.963  0.00  0.00    +0.000 A 
ATOM     21  C   UNL     1       7.089   5.025  16.258  0.00  0.00    +0.000 A 
ATOM     22  C   UNL     1       5.811   4.499  16.486  0.00  0.00    +0.000 A 
ATOM     23  C   UNL     1       5.056   4.028  15.408  0.00  0.00    +0.000 A 
ATOM     24  C   UNL     1       5.581   4.090  14.110  0.00  0.00    +0.000 A 
ENDBRANCH  14  22
ENDBRANCH   1  16
BRANCH   5  25
ATOM     25  O   UNL     1       3.927   1.838  19.754  0.00  0.00    +0.000 OA
ATOM     26  H   UNL     1       4.449   1.870  18.936  0.00  0.00    +0.000 HD
ENDBRANCH   5  25
TORSDOF 4
ENDMDL
MODEL 7
REMARK VINA RESULT:      -7.7      0.139      1.429
REMARK  Name = 
REMARK  5 active torsions:
REMARK  status: ('A' for Active; 'I' for Inactive)
REMARK    1  A    between atoms: C_1  and  C_2
REMARK    2  A    between atoms: C_5  and  C_6
REMARK    3  A    between atoms: N_8  and  C_9
REMARK    4  A    between atoms: C_10  and  C_11
REMARK    5  A    between atoms: C_20  and  O_21
REMARK                            x       y       z     vdW  Elec       q    Type
REMARK                         _______ _______ _______ _____ _____    ______ ____
ROOT
ATOM      1  C   UNL     1       3.514   4.351  20.014  0.00  0.00    +0.000 A 
ATOM      2  C   UNL     1       4.299   3.539  19.131  0.00  0.00    +0.000 A 
ATOM      3  N   UNL     1       4.310   2.260  19.553  0.00  0.00    +0.000 NA
ATOM      4  N   UNL     1       3.602   2.276  20.690  0.00  0.00    +0.000 N 
ATOM      5  C   UNL     1       3.055   3.493  20.991  0.00  0.00    +0.000 A 
ATOM      6  H   UNL     1       3.502   1.403  21.196  0.00  0.00    +0.000 HD
ENDROOT
BRANCH   2   7
ATOM      7  C   UNL     1       5.081   3.932  17.954  0.00  0.00    +0.000 A 
ATOM      8  C   UNL     1       4.576   3.778  16.654  0.00  0.00    +0.000 A 
ATOM      9  C   UNL     1       5.326   4.185  15.545  0.00  0.00    +0.000 A 
ATOM     10  C   UNL     1       6.574   4.769  15.728  0.00  0.00    +0.000 A 
ATOM     11 CL   UNL     1       7.487   5.282  14.365  0.00  0.00    +0.000 Cl
ATOM     12  C   UNL     1       7.085   4.949  17.011  0.00  0.00    +0.000 A 
ATOM     13  C   UNL     1       6.341   4.533  18.118  0.00  0.00    +0.000 A 
ENDBRANCH   2   7
BRANCH   1  16
ATOM     14  C   UNL     1       2.409   6.160  18.868  0.00  0.00    +0.000 C 
ATOM     15  O   UNL     1       1.920   5.469  17.982  0.00  0.00    +0.000 OA
ATOM     16  N   UNL     1       3.210   5.707  19.909  0.00  0.00    +0.000 N 
ATOM     17  H   UNL     1       3.145   6.220  20.778  0.00  0.00    +0.000 HD
BRANCH  14  22
ATOM     18  C   UNL     1       0.956  11.778  19.129  0.00  0.00    +0.000 C 
ATOM     19  C   UNL     1       1.309  10.319  19.060  0.00  0.00    +0.000 A 
ATOM     20  C   UNL     1       1.812   9.760  17.881  0.00  0.00    +0.000 A 
ATOM     21  C   UNL     1       2.159   8.407  17.833  0.00  0.00    +0.000 A 
ATOM     22  C   UNL     1       1.999   7.593  18.961  0.00  0.00    +0.000 A 
ATOM     23  C   UNL     1       1.492   8.143  20.142  0.00  0.00    +0.000 A 
ATOM     24  C   UNL     1       1.152   9.501  20.188  0.00  0.00    +0.000 A 
ENDBRANCH  14  22
ENDBRANCH   1  16
BRANCH   5  25
ATOM     25  O   UNL     1       2.218   3.682  22.009  0.00  0.00    +0.000 OA
ATOM     26  H   UNL     1       1.799   4.555  21.946  0.00  0.00    +0.000 HD
ENDBRANCH   5  25
TORSDOF 4
ENDMDL
MODEL 8
REMARK VINA RESULT:      -7.7      2.487      5.989
REMARK  Name = 
REMARK  5 active torsions:
REMARK  status: ('A' for Active; 'I' for Inactive)
REMARK    1  A    between atoms: C_1  and  C_2
REMARK    2  A    between atoms: C_5  and  C_6
REMARK    3  A    between atoms: N_8  and  C_9
REMARK    4  A    between atoms: C_10  and  C_11
REMARK    5  A    between atoms: C_20  and  O_21
REMARK                            x       y       z     vdW  Elec       q    Type
REMARK                         _______ _______ _______ _____ _____    ______ ____
ROOT
ATOM      1  C   UNL     1       4.259   3.624  19.331  0.00  0.00    +0.000 A 
ATOM      2  C   UNL     1       3.302   4.515  19.920  0.00  0.00    +0.000 A 
ATOM      3  N   UNL     1       2.729   3.945  20.997  0.00  0.00    +0.000 NA
ATOM      4  N   UNL     1       3.266   2.718  21.052  0.00  0.00    +0.000 N 
ATOM      5  C   UNL     1       4.228   2.486  20.109  0.00  0.00    +0.000 A 
ATOM      6  H   UNL     1       2.949   2.098  21.790  0.00  0.00    +0.000 HD
ENDROOT
BRANCH   2   7
ATOM      7  C   UNL     1       2.870   5.843  19.472  0.00  0.00    +0.000 A 
ATOM      8  C   UNL     1       2.094   6.676  20.292  0.00  0.00    +0.000 A 
ATOM      9  C   UNL     1       1.715   7.951  19.857  0.00  0.00    +0.000 A 
ATOM     10  C   UNL     1       2.126   8.411  18.611  0.00  0.00    +0.000 A 
ATOM     11 CL   UNL     1       1.671   9.983  18.086  0.00  0.00    +0.000 Cl
ATOM     12  C   UNL     1       2.913   7.607  17.790  0.00  0.00    +0.000 A 
ATOM     13  C   UNL     1       3.283   6.329  18.220  0.00  0.00    +0.000 A 
ENDBRANCH   2   7
BRANCH   1  16
ATOM     14  C   UNL     1       4.641   3.606  16.952  0.00  0.00    +0.000 C 
ATOM     15  O   UNL     1       3.528   3.194  16.648  0.00  0.00    +0.000 OA
ATOM     16  N   UNL     1       5.099   3.846  18.241  0.00  0.00    +0.000 N 
ATOM     17  H   UNL     1       5.778   4.589  18.343  0.00  0.00    +0.000 HD
BRANCH  14  22
ATOM     18  C   UNL     1       8.213   5.507  12.785  0.00  0.00    +0.000 C 
ATOM     19  C   UNL     1       7.300   4.994  13.862  0.00  0.00    +0.000 A 
ATOM     20  C   UNL     1       7.486   5.370  15.196  0.00  0.00    +0.000 A 
ATOM     21  C   UNL     1       6.618   4.907  16.188  0.00  0.00    +0.000 A 
ATOM     22  C   UNL     1       5.557   4.053  15.861  0.00  0.00    +0.000 A 
ATOM     23  C   UNL     1       5.367   3.669  14.530  0.00  0.00    +0.000 A 
ATOM     24  C   UNL     1       6.235   4.141  13.537  0.00  0.00    +0.000 A 
ENDBRANCH  14  22
ENDBRANCH   1  16
BRANCH   5  25
ATOM     25  O   UNL     1       4.965   1.377  20.080  0.00  0.00    +0.000 OA
ATOM     26  H   UNL     1       4.667   0.790  19.368  0.00  0.00    +0.000 HD
ENDBRANCH   5  25
TORSDOF 4
ENDMDL
MODEL 9
REMARK VINA RESULT:      -7.7      2.678      6.282
REMARK  Name = 
REMARK  5 active torsions:
REMARK  status: ('A' for Active; 'I' for Inactive)
REMARK    1  A    between atoms: C_1  and  C_2
REMARK    2  A    between atoms: C_5  and  C_6
REMARK    3  A    between atoms: N_8  and  C_9
REMARK    4  A    between atoms: C_10  and  C_11
REMARK    5  A    between atoms: C_20  and  O_21
REMARK                            x       y       z     vdW  Elec       q    Type
REMARK                         _______ _______ _______ _____ _____    ______ ____
ROOT
ATOM      1  C   UNL     1       3.356   4.171  19.269  0.00  0.00    +0.000 A 
ATOM      2  C   UNL     1       2.636   5.103  20.086  0.00  0.00    +0.000 A 
ATOM      3  N   UNL     1       2.287   4.531  21.255  0.00  0.00    +0.000 NA
ATOM      4  N   UNL     1       2.726   3.269  21.155  0.00  0.00    +0.000 N 
ATOM      5  C   UNL     1       3.421   3.008  20.007  0.00  0.00    +0.000 A 
ATOM      6  H   UNL     1       2.544   2.644  21.933  0.00  0.00    +0.000 HD
ENDROOT
BRANCH   2   7
ATOM      7  C   UNL     1       2.215   6.474  19.783  0.00  0.00    +0.000 A 
ATOM      8  C   UNL     1       1.621   7.291  20.757  0.00  0.00    +0.000 A 
ATOM      9  C   UNL     1       1.251   8.606  20.455  0.00  0.00    +0.000 A 
ATOM     10  C   UNL     1       1.492   9.122  19.186  0.00  0.00    +0.000 A 
ATOM     11 CL   UNL     1       1.050  10.743  18.822  0.00  0.00    +0.000 Cl
ATOM     12  C   UNL     1       2.098   8.334  18.211  0.00  0.00    +0.000 A 
ATOM     13  C   UNL     1       2.458   7.016  18.509  0.00  0.00    +0.000 A 
ENDBRANCH   2   7
BRANCH   1  16
ATOM     14  C   UNL     1       5.310   4.512  17.900  0.00  0.00    +0.000 C 
ATOM     15  O   UNL     1       6.118   4.476  18.821  0.00  0.00    +0.000 OA
ATOM     16  N   UNL     1       3.933   4.377  18.016  0.00  0.00    +0.000 N 
ATOM     17  H   UNL     1       3.457   3.954  17.230  0.00  0.00    +0.000 HD
BRANCH  14  22
ATOM     18  C   UNL     1       7.250   4.468  12.425  0.00  0.00    +0.000 C 
ATOM     19  C   UNL     1       6.744   4.503  13.839  0.00  0.00    +0.000 A 
ATOM     20  C   UNL     1       5.474   4.010  14.157  0.00  0.00    +0.000 A 
ATOM     21  C   UNL     1       5.021   4.025  15.479  0.00  0.00    +0.000 A 
ATOM     22  C   UNL     1       5.828   4.542  16.500  0.00  0.00    +0.000 A 
ATOM     23  C   UNL     1       7.097   5.041  16.190  0.00  0.00    +0.000 A 
ATOM     24  C   UNL     1       7.550   5.018  14.865  0.00  0.00    +0.000 A 
ENDBRANCH  14  22
ENDBRANCH   1  16
BRANCH   5  25
ATOM     25  O   UNL     1       4.042   1.852  19.780  0.00  0.00    +0.000 OA
ATOM     26  H   UNL     1       3.934   1.584  18.854  0.00  0.00    +0.000 HD
ENDBRANCH   5  25
TORSDOF 4
ENDMDL
