MODEL 1
REMARK VINA RESULT:      -8.6      0.000      0.000
REMARK  Name = 
REMARK  5 active torsions:
REMARK  status: ('A' for Active; 'I' for Inactive)
REMARK    1  A    between atoms: C_1  and  C_2
REMARK    2  A    between atoms: C_2  and  O_3
REMARK    3  A    between atoms: O_3  and  C_4
REMARK    4  A    between atoms: C_4  and  C_6
REMARK    5  A    between atoms: C_18  and  C_19
REMARK                            x       y       z     vdW  Elec       q    Type
REMARK                         _______ _______ _______ _____ _____    ______ ____
ROOT
ATOM      1  C   UNL     1      -0.220  11.753  19.607  0.00  0.00    +0.000 C 
ATOM      2  O   UNL     1      -0.044  12.572  18.711  0.00  0.00    +0.000 OA
ATOM      3  N   UNL     1       0.102  10.401  19.509  0.00  0.00    +0.000 N 
ATOM      4  C   UNL     1       0.809   9.899  18.327  0.00  0.00    +0.000 C 
ATOM      5  C   UNL     1       2.102   9.147  18.719  0.00  0.00    +0.000 C 
ATOM      6  N   UNL     1       1.793   8.136  19.733  0.00  0.00    +0.000 N 
ATOM      7  C   UNL     1       2.328   6.900  19.699  0.00  0.00    +0.000 A 
ATOM      8  N   UNL     1       1.901   5.982  20.613  0.00  0.00    +0.000 NA
ATOM      9  C   UNL     1       2.534   4.881  20.289  0.00  0.00    +0.000 A 
ATOM     10  N   UNL     1       2.449   3.643  20.862  0.00  0.00    +0.000 NA
ATOM     11  C   UNL     1       3.212   2.732  20.347  0.00  0.00    +0.000 A 
ATOM     12  C   UNL     1       4.158   2.908  19.218  0.00  0.00    +0.000 A 
ATOM     13  C   UNL     1       4.204   4.142  18.682  0.00  0.00    +0.000 A 
ATOM     14  N   UNL     1       3.375   5.147  19.204  0.00  0.00    +0.000 N 
ATOM     15  N   UNL     1       3.210   6.433  18.814  0.00  0.00    +0.000 NA
ATOM     16  C   UNL     1       1.114   8.635  20.936  0.00  0.00    +0.000 C 
ATOM     17  C   UNL     1      -0.171   9.380  20.533  0.00  0.00    +0.000 C 
ENDROOT
BRANCH  13  18
ATOM     18  C   UNL     1       5.171   4.406  17.603  0.00  0.00    +0.000 A 
ATOM     19  C   UNL     1       4.845   4.047  16.284  0.00  0.00    +0.000 A 
ATOM     20  C   UNL     1       5.772   4.238  15.257  0.00  0.00    +0.000 A 
ATOM     21 CL   UNL     1       5.370   3.774  13.649  0.00  0.00    +0.000 Cl
ATOM     22  C   UNL     1       7.025   4.783  15.523  0.00  0.00    +0.000 A 
ATOM     23  C   UNL     1       7.359   5.146  16.828  0.00  0.00    +0.000 A 
ATOM     24  C   UNL     1       6.439   4.957  17.863  0.00  0.00    +0.000 A 
ATOM     25 CL   UNL     1       6.931   5.389  19.465  0.00  0.00    +0.000 Cl
ENDBRANCH  13  18
BRANCH   1  26
ATOM     26  C   UNL     1      -0.829  12.229  20.933  0.00  0.00    +0.000 C 
ATOM     27  O   UNL     1      -2.032  12.308  21.111  0.00  0.00    +0.000 OA
BRANCH  26  28
ATOM     28  O   UNL     1       0.158  12.631  21.763  0.00  0.00    +0.000 OA
BRANCH  28  30
ATOM     29  C   UNL     1       1.599  14.517  21.538  0.00  0.00    +0.000 C 
ATOM     30  C   UNL     1       0.229  14.045  21.990  0.00  0.00    +0.000 C 
ENDBRANCH  28  30
ENDBRANCH  26  28
ENDBRANCH   1  26
TORSDOF 4
ENDMDL
MODEL 2
REMARK VINA RESULT:      -8.4      0.768      1.356
REMARK  Name = 
REMARK  5 active torsions:
REMARK  status: ('A' for Active; 'I' for Inactive)
REMARK    1  A    between atoms: C_1  and  C_2
REMARK    2  A    between atoms: C_2  and  O_3
REMARK    3  A    between atoms: O_3  and  C_4
REMARK    4  A    between atoms: C_4  and  C_6
REMARK    5  A    between atoms: C_18  and  C_19
REMARK                            x       y       z     vdW  Elec       q    Type
REMARK                         _______ _______ _______ _____ _____    ______ ____
ROOT
ATOM      1  C   UNL     1      -0.085  11.768  19.649  0.00  0.00    +0.000 C 
ATOM      2  O   UNL     1       0.094  12.602  18.768  0.00  0.00    +0.000 OA
ATOM      3  N   UNL     1       0.216  10.414  19.521  0.00  0.00    +0.000 N 
ATOM      4  C   UNL     1       0.903   9.926  18.321  0.00  0.00    +0.000 C 
ATOM      5  C   UNL     1       2.188   9.146  18.684  0.00  0.00    +0.000 C 
ATOM      6  N   UNL     1       1.875   8.120  19.682  0.00  0.00    +0.000 N 
ATOM      7  C   UNL     1       2.390   6.877  19.617  0.00  0.00    +0.000 A 
ATOM      8  N   UNL     1       1.959   5.947  20.517  0.00  0.00    +0.000 NA
ATOM      9  C   UNL     1       2.572   4.843  20.164  0.00  0.00    +0.000 A 
ATOM     10  N   UNL     1       2.474   3.596  20.714  0.00  0.00    +0.000 NA
ATOM     11  C   UNL     1       3.218   2.684  20.172  0.00  0.00    +0.000 A 
ATOM     12  C   UNL     1       4.155   2.869  19.037  0.00  0.00    +0.000 A 
ATOM     13  C   UNL     1       4.214   4.113  18.526  0.00  0.00    +0.000 A 
ATOM     14  N   UNL     1       3.406   5.119  19.076  0.00  0.00    +0.000 N 
ATOM     15  N   UNL     1       3.256   6.415  18.713  0.00  0.00    +0.000 NA
ATOM     16  C   UNL     1       1.215   8.604  20.901  0.00  0.00    +0.000 C 
ATOM     17  C   UNL     1      -0.063   9.377  20.527  0.00  0.00    +0.000 C 
ENDROOT
BRANCH  13  18
ATOM     18  C   UNL     1       5.174   4.384  17.442  0.00  0.00    +0.000 A 
ATOM     19  C   UNL     1       4.851   4.010  16.127  0.00  0.00    +0.000 A 
ATOM     20  C   UNL     1       5.771   4.207  15.096  0.00  0.00    +0.000 A 
ATOM     21 CL   UNL     1       5.373   3.726  13.493  0.00  0.00    +0.000 Cl
ATOM     22  C   UNL     1       7.017   4.775  15.354  0.00  0.00    +0.000 A 
ATOM     23  C   UNL     1       7.348   5.153  16.656  0.00  0.00    +0.000 A 
ATOM     24  C   UNL     1       6.434   4.957  17.695  0.00  0.00    +0.000 A 
ATOM     25 CL   UNL     1       6.923   5.408  19.292  0.00  0.00    +0.000 Cl
ENDBRANCH  13  18
BRANCH   1  26
ATOM     26  C   UNL     1      -0.673  12.227  20.991  0.00  0.00    +0.000 C 
ATOM     27  O   UNL     1       0.022  12.455  21.967  0.00  0.00    +0.000 OA
BRANCH  26  28
ATOM     28  O   UNL     1      -2.022  12.211  20.921  0.00  0.00    +0.000 OA
BRANCH  28  30
ATOM     29  C   UNL     1      -4.119  13.293  21.258  0.00  0.00    +0.000 C 
ATOM     30  C   UNL     1      -2.650  13.499  20.939  0.00  0.00    +0.000 C 
ENDBRANCH  28  30
ENDBRANCH  26  28
ENDBRANCH   1  26
TORSDOF 4
ENDMDL
MODEL 3
REMARK VINA RESULT:      -8.0      0.869      1.095
REMARK  Name = 
REMARK  5 active torsions:
REMARK  status: ('A' for Active; 'I' for Inactive)
REMARK    1  A    between atoms: C_1  and  C_2
REMARK    2  A    between atoms: C_2  and  O_3
REMARK    3  A    between atoms: O_3  and  C_4
REMARK    4  A    between atoms: C_4  and  C_6
REMARK    5  A    between atoms: C_18  and  C_19
REMARK                            x       y       z     vdW  Elec       q    Type
REMARK                         _______ _______ _______ _____ _____    ______ ____
ROOT
ATOM      1  C   UNL     1      -0.317  11.906  19.201  0.00  0.00    +0.000 C 
ATOM      2  O   UNL     1      -0.094  12.710  18.303  0.00  0.00    +0.000 OA
ATOM      3  N   UNL     1       0.007  10.552  19.141  0.00  0.00    +0.000 N 
ATOM      4  C   UNL     1       0.772  10.032  18.004  0.00  0.00    +0.000 C 
ATOM      5  C   UNL     1       2.042   9.284  18.473  0.00  0.00    +0.000 C 
ATOM      6  N   UNL     1       1.680   8.289  19.486  0.00  0.00    +0.000 N 
ATOM      7  C   UNL     1       2.213   7.051  19.498  0.00  0.00    +0.000 A 
ATOM      8  N   UNL     1       1.738   6.148  20.403  0.00  0.00    +0.000 NA
ATOM      9  C   UNL     1       2.385   5.041  20.129  0.00  0.00    +0.000 A 
ATOM     10  N   UNL     1       2.268   3.813  20.716  0.00  0.00    +0.000 NA
ATOM     11  C   UNL     1       3.054   2.893  20.254  0.00  0.00    +0.000 A 
ATOM     12  C   UNL     1       4.058   3.050  19.172  0.00  0.00    +0.000 A 
ATOM     13  C   UNL     1       4.133   4.276  18.621  0.00  0.00    +0.000 A 
ATOM     14  N   UNL     1       3.281   5.290  19.084  0.00  0.00    +0.000 N 
ATOM     15  N   UNL     1       3.138   6.570  18.666  0.00  0.00    +0.000 NA
ATOM     16  C   UNL     1       0.941   8.807  20.645  0.00  0.00    +0.000 C 
ATOM     17  C   UNL     1      -0.321   9.548  20.165  0.00  0.00    +0.000 C 
ENDROOT
BRANCH  13  18
ATOM     18  C   UNL     1       5.155   4.522  17.589  0.00  0.00    +0.000 A 
ATOM     19  C   UNL     1       4.887   4.165  16.257  0.00  0.00    +0.000 A 
ATOM     20  C   UNL     1       5.865   4.338  15.275  0.00  0.00    +0.000 A 
ATOM     21 CL   UNL     1       5.533   3.877  13.651  0.00  0.00    +0.000 Cl
ATOM     22  C   UNL     1       7.112   4.866  15.600  0.00  0.00    +0.000 A 
ATOM     23  C   UNL     1       7.389   5.227  16.918  0.00  0.00    +0.000 A 
ATOM     24  C   UNL     1       6.418   5.055  17.909  0.00  0.00    +0.000 A 
ATOM     25 CL   UNL     1       6.839   5.483  19.531  0.00  0.00    +0.000 Cl
ENDBRANCH  13  18
BRANCH   1  26
ATOM     26  C   UNL     1      -0.992  12.403  20.488  0.00  0.00    +0.000 C 
ATOM     27  O   UNL     1      -1.957  13.148  20.475  0.00  0.00    +0.000 OA
BRANCH  26  28
ATOM     28  O   UNL     1      -0.285  11.983  21.559  0.00  0.00    +0.000 OA
BRANCH  28  30
ATOM     29  C   UNL     1      -0.661  10.468  23.361  0.00  0.00    +0.000 C 
ATOM     30  C   UNL     1      -1.043  11.809  22.762  0.00  0.00    +0.000 C 
ENDBRANCH  28  30
ENDBRANCH  26  28
ENDBRANCH   1  26
TORSDOF 4
ENDMDL
MODEL 4
REMARK VINA RESULT:      -7.5      1.602      2.405
REMARK  Name = 
REMARK  5 active torsions:
REMARK  status: ('A' for Active; 'I' for Inactive)
REMARK    1  A    between atoms: C_1  and  C_2
REMARK    2  A    between atoms: C_2  and  O_3
REMARK    3  A    between atoms: O_3  and  C_4
REMARK    4  A    between atoms: C_4  and  C_6
REMARK    5  A    between atoms: C_18  and  C_19
REMARK                            x       y       z     vdW  Elec       q    Type
REMARK                         _______ _______ _______ _____ _____    ______ ____
ROOT
ATOM      1  C   UNL     1      -0.840  11.800  20.696  0.00  0.00    +0.000 C 
ATOM      2  O   UNL     1      -0.768  12.652  19.817  0.00  0.00    +0.000 OA
ATOM      3  N   UNL     1      -0.483  10.464  20.526  0.00  0.00    +0.000 N 
ATOM      4  C   UNL     1       0.138  10.025  19.272  0.00  0.00    +0.000 C 
ATOM      5  C   UNL     1       1.483   9.307  19.529  0.00  0.00    +0.000 C 
ATOM      6  N   UNL     1       1.295   8.255  20.531  0.00  0.00    +0.000 N 
ATOM      7  C   UNL     1       1.866   7.040  20.410  0.00  0.00    +0.000 A 
ATOM      8  N   UNL     1       1.548   6.080  21.325  0.00  0.00    +0.000 NA
ATOM      9  C   UNL     1       2.188   5.012  20.912  0.00  0.00    +0.000 A 
ATOM     10  N   UNL     1       2.192   3.755  21.448  0.00  0.00    +0.000 NA
ATOM     11  C   UNL     1       2.938   2.888  20.840  0.00  0.00    +0.000 A 
ATOM     12  C   UNL     1       3.780   3.133  19.642  0.00  0.00    +0.000 A 
ATOM     13  C   UNL     1       3.739   4.384  19.147  0.00  0.00    +0.000 A 
ATOM     14  N   UNL     1       2.924   5.342  19.770  0.00  0.00    +0.000 N 
ATOM     15  N   UNL     1       2.685   6.633  19.439  0.00  0.00    +0.000 NA
ATOM     16  C   UNL     1       0.704   8.691  21.802  0.00  0.00    +0.000 C 
ATOM     17  C   UNL     1      -0.635   9.403  21.534  0.00  0.00    +0.000 C 
ENDROOT
BRANCH  13  18
ATOM     18  C   UNL     1       4.602   4.716  18.001  0.00  0.00    +0.000 A 
ATOM     19  C   UNL     1       5.655   5.630  18.174  0.00  0.00    +0.000 A 
ATOM     20  C   UNL     1       6.448   5.999  17.086  0.00  0.00    +0.000 A 
ATOM     21 CL   UNL     1       7.722   7.136  17.306  0.00  0.00    +0.000 Cl
ATOM     22  C   UNL     1       6.209   5.470  15.820  0.00  0.00    +0.000 A 
ATOM     23  C   UNL     1       5.168   4.560  15.636  0.00  0.00    +0.000 A 
ATOM     24  C   UNL     1       4.367   4.186  16.718  0.00  0.00    +0.000 A 
ATOM     25 CL   UNL     1       3.067   3.086  16.415  0.00  0.00    +0.000 Cl
ENDBRANCH  13  18
BRANCH   1  26
ATOM     26  C   UNL     1      -1.350  12.212  22.084  0.00  0.00    +0.000 C 
ATOM     27  O   UNL     1      -0.601  12.396  23.028  0.00  0.00    +0.000 OA
BRANCH  26  28
ATOM     28  O   UNL     1      -2.701  12.213  22.086  0.00  0.00    +0.000 OA
BRANCH  28  30
ATOM     29  C   UNL     1      -3.927  12.584  24.096  0.00  0.00    +0.000 C 
ATOM     30  C   UNL     1      -3.311  13.242  22.876  0.00  0.00    +0.000 C 
ENDBRANCH  28  30
ENDBRANCH  26  28
ENDBRANCH   1  26
TORSDOF 4
ENDMDL
MODEL 5
REMARK VINA RESULT:      -7.5      1.296      2.116
REMARK  Name = 
REMARK  5 active torsions:
REMARK  status: ('A' for Active; 'I' for Inactive)
REMARK    1  A    between atoms: C_1  and  C_2
REMARK    2  A    between atoms: C_2  and  O_3
REMARK    3  A    between atoms: O_3  and  C_4
REMARK    4  A    between atoms: C_4  and  C_6
REMARK    5  A    between atoms: C_18  and  C_19
REMARK                            x       y       z     vdW  Elec       q    Type
REMARK                         _______ _______ _______ _____ _____    ______ ____
ROOT
ATOM      1  C   UNL     1      -0.600  12.079  19.263  0.00  0.00    +0.000 C 
ATOM      2  O   UNL     1      -0.262  12.866  18.385  0.00  0.00    +0.000 OA
ATOM      3  N   UNL     1      -0.266  10.727  19.276  0.00  0.00    +0.000 N 
ATOM      4  C   UNL     1       0.646  10.187  18.262  0.00  0.00    +0.000 C 
ATOM      5  C   UNL     1       1.844   9.457  18.912  0.00  0.00    +0.000 C 
ATOM      6  N   UNL     1       1.355   8.482  19.889  0.00  0.00    +0.000 N 
ATOM      7  C   UNL     1       1.886   7.249  19.999  0.00  0.00    +0.000 A 
ATOM      8  N   UNL     1       1.298   6.362  20.852  0.00  0.00    +0.000 NA
ATOM      9  C   UNL     1       1.980   5.254  20.691  0.00  0.00    +0.000 A 
ATOM     10  N   UNL     1       1.790   4.037  21.284  0.00  0.00    +0.000 NA
ATOM     11  C   UNL     1       2.634   3.112  20.951  0.00  0.00    +0.000 A 
ATOM     12  C   UNL     1       3.772   3.253  20.008  0.00  0.00    +0.000 A 
ATOM     13  C   UNL     1       3.915   4.468  19.445  0.00  0.00    +0.000 A 
ATOM     14  N   UNL     1       3.005   5.486  19.769  0.00  0.00    +0.000 N 
ATOM     15  N   UNL     1       2.915   6.756  19.308  0.00  0.00    +0.000 NA
ATOM     16  C   UNL     1       0.466   9.020  20.928  0.00  0.00    +0.000 C 
ATOM     17  C   UNL     1      -0.723   9.742  20.269  0.00  0.00    +0.000 C 
ENDROOT
BRANCH  13  18
ATOM     18  C   UNL     1       5.064   4.698  18.552  0.00  0.00    +0.000 A 
ATOM     19  C   UNL     1       6.095   5.558  18.966  0.00  0.00    +0.000 A 
ATOM     20  C   UNL     1       7.163   5.833  18.110  0.00  0.00    +0.000 A 
ATOM     21 CL   UNL     1       8.409   6.905  18.619  0.00  0.00    +0.000 Cl
ATOM     22  C   UNL     1       7.223   5.261  16.842  0.00  0.00    +0.000 A 
ATOM     23  C   UNL     1       6.207   4.404  16.421  0.00  0.00    +0.000 A 
ATOM     24  C   UNL     1       5.132   4.124  17.269  0.00  0.00    +0.000 A 
ATOM     25 CL   UNL     1       3.884   3.086  16.671  0.00  0.00    +0.000 Cl
ENDBRANCH  13  18
BRANCH   1  26
ATOM     26  C   UNL     1      -1.441  12.599  20.437  0.00  0.00    +0.000 C 
ATOM     27  O   UNL     1      -2.643  12.786  20.350  0.00  0.00    +0.000 OA
BRANCH  26  28
ATOM     28  O   UNL     1      -0.629  12.904  21.473  0.00  0.00    +0.000 OA
BRANCH  28  30
ATOM     29  C   UNL     1      -1.403  11.410  23.162  0.00  0.00    +0.000 C 
ATOM     30  C   UNL     1      -1.247  12.866  22.766  0.00  0.00    +0.000 C 
ENDBRANCH  28  30
ENDBRANCH  26  28
ENDBRANCH   1  26
TORSDOF 4
ENDMDL
MODEL 6
REMARK VINA RESULT:      -7.3      1.135      1.795
REMARK  Name = 
REMARK  5 active torsions:
REMARK  status: ('A' for Active; 'I' for Inactive)
REMARK    1  A    between atoms: C_1  and  C_2
REMARK    2  A    between atoms: C_2  and  O_3
REMARK    3  A    between atoms: O_3  and  C_4
REMARK    4  A    between atoms: C_4  and  C_6
REMARK    5  A    between atoms: C_18  and  C_19
REMARK                            x       y       z     vdW  Elec       q    Type
REMARK                         _______ _______ _______ _____ _____    ______ ____
ROOT
ATOM      1  C   UNL     1      -0.723  12.008  20.063  0.00  0.00    +0.000 C 
ATOM      2  O   UNL     1      -0.604  12.793  19.128  0.00  0.00    +0.000 OA
ATOM      3  N   UNL     1      -0.398  10.655  19.997  0.00  0.00    +0.000 N 
ATOM      4  C   UNL     1       0.242  10.112  18.795  0.00  0.00    +0.000 C 
ATOM      5  C   UNL     1       1.560   9.380  19.139  0.00  0.00    +0.000 C 
ATOM      6  N   UNL     1       1.317   8.407  20.207  0.00  0.00    +0.000 N 
ATOM      7  C   UNL     1       1.857   7.172  20.188  0.00  0.00    +0.000 A 
ATOM      8  N   UNL     1       1.489   6.288  21.158  0.00  0.00    +0.000 NA
ATOM      9  C   UNL     1       2.110   5.178  20.839  0.00  0.00    +0.000 A 
ATOM     10  N   UNL     1       2.066   3.962  21.462  0.00  0.00    +0.000 NA
ATOM     11  C   UNL     1       2.803   3.035  20.937  0.00  0.00    +0.000 A 
ATOM     12  C   UNL     1       3.682   3.173  19.749  0.00  0.00    +0.000 A 
ATOM     13  C   UNL     1       3.688   4.386  19.166  0.00  0.00    +0.000 A 
ATOM     14  N   UNL     1       2.884   5.407  19.697  0.00  0.00    +0.000 N 
ATOM     15  N   UNL     1       2.689   6.676  19.270  0.00  0.00    +0.000 NA
ATOM     16  C   UNL     1       0.706   8.948  21.427  0.00  0.00    +0.000 C 
ATOM     17  C   UNL     1      -0.605   9.672  21.072  0.00  0.00    +0.000 C 
ENDROOT
BRANCH  13  18
ATOM     18  C   UNL     1       4.590   4.613  18.023  0.00  0.00    +0.000 A 
ATOM     19  C   UNL     1       5.646   5.530  18.152  0.00  0.00    +0.000 A 
ATOM     20  C   UNL     1       6.476   5.800  17.062  0.00  0.00    +0.000 A 
ATOM     21 CL   UNL     1       7.753   6.941  17.225  0.00  0.00    +0.000 Cl
ATOM     22  C   UNL     1       6.270   5.168  15.838  0.00  0.00    +0.000 A 
ATOM     23  C   UNL     1       5.225   4.253  15.699  0.00  0.00    +0.000 A 
ATOM     24  C   UNL     1       4.388   3.978  16.784  0.00  0.00    +0.000 A 
ATOM     25 CL   UNL     1       3.087   2.866  16.533  0.00  0.00    +0.000 Cl
ENDBRANCH  13  18
BRANCH   1  26
ATOM     26  C   UNL     1      -1.256  12.531  21.404  0.00  0.00    +0.000 C 
ATOM     27  O   UNL     1      -2.447  12.681  21.621  0.00  0.00    +0.000 OA
BRANCH  26  28
ATOM     28  O   UNL     1      -0.219  12.883  22.195  0.00  0.00    +0.000 OA
BRANCH  28  30
ATOM     29  C   UNL     1       1.167  14.771  21.751  0.00  0.00    +0.000 C 
ATOM     30  C   UNL     1      -0.092  14.288  22.447  0.00  0.00    +0.000 C 
ENDBRANCH  28  30
ENDBRANCH  26  28
ENDBRANCH   1  26
TORSDOF 4
ENDMDL
MODEL 7
REMARK VINA RESULT:      -7.3      1.380      2.398
REMARK  Name = 
REMARK  5 active torsions:
REMARK  status: ('A' for Active; 'I' for Inactive)
REMARK    1  A    between atoms: C_1  and  C_2
REMARK    2  A    between atoms: C_2  and  O_3
REMARK    3  A    between atoms: O_3  and  C_4
REMARK    4  A    between atoms: C_4  and  C_6
REMARK    5  A    between atoms: C_18  and  C_19
REMARK                            x       y       z     vdW  Elec       q    Type
REMARK                         _______ _______ _______ _____ _____    ______ ____
ROOT
ATOM      1  C   UNL     1      -0.570  12.032  19.665  0.00  0.00    +0.000 C 
ATOM      2  O   UNL     1      -0.240  12.847  18.810  0.00  0.00    +0.000 OA
ATOM      3  N   UNL     1      -0.252  10.676  19.620  0.00  0.00    +0.000 N 
ATOM      4  C   UNL     1       0.633  10.165  18.570  0.00  0.00    +0.000 C 
ATOM      5  C   UNL     1       1.835   9.398  19.168  0.00  0.00    +0.000 C 
ATOM      6  N   UNL     1       1.353   8.392  20.118  0.00  0.00    +0.000 N 
ATOM      7  C   UNL     1       1.871   7.149  20.171  0.00  0.00    +0.000 A 
ATOM      8  N   UNL     1       1.289   6.238  21.002  0.00  0.00    +0.000 NA
ATOM      9  C   UNL     1       1.955   5.129  20.786  0.00  0.00    +0.000 A 
ATOM     10  N   UNL     1       1.762   3.893  21.337  0.00  0.00    +0.000 NA
ATOM     11  C   UNL     1       2.588   2.972  20.952  0.00  0.00    +0.000 A 
ATOM     12  C   UNL     1       3.709   3.136  19.994  0.00  0.00    +0.000 A 
ATOM     13  C   UNL     1       3.856   4.369  19.474  0.00  0.00    +0.000 A 
ATOM     14  N   UNL     1       2.965   5.384  19.853  0.00  0.00    +0.000 N 
ATOM     15  N   UNL     1       2.881   6.671  19.442  0.00  0.00    +0.000 NA
ATOM     16  C   UNL     1       0.491   8.900  21.193  0.00  0.00    +0.000 C 
ATOM     17  C   UNL     1      -0.701   9.660  20.585  0.00  0.00    +0.000 C 
ENDROOT
BRANCH  13  18
ATOM     18  C   UNL     1       4.990   4.620  18.568  0.00  0.00    +0.000 A 
ATOM     19  C   UNL     1       6.036   5.457  18.990  0.00  0.00    +0.000 A 
ATOM     20  C   UNL     1       7.091   5.752  18.124  0.00  0.00    +0.000 A 
ATOM     21 CL   UNL     1       8.355   6.796  18.645  0.00  0.00    +0.000 Cl
ATOM     22  C   UNL     1       7.122   5.222  16.836  0.00  0.00    +0.000 A 
ATOM     23  C   UNL     1       6.091   4.387  16.406  0.00  0.00    +0.000 A 
ATOM     24  C   UNL     1       5.029   4.088  17.265  0.00  0.00    +0.000 A 
ATOM     25 CL   UNL     1       3.761   3.080  16.657  0.00  0.00    +0.000 Cl
ENDBRANCH  13  18
BRANCH   1  26
ATOM     26  C   UNL     1      -1.382  12.517  20.874  0.00  0.00    +0.000 C 
ATOM     27  O   UNL     1      -0.864  12.792  21.943  0.00  0.00    +0.000 OA
BRANCH  26  28
ATOM     28  O   UNL     1      -2.700  12.467  20.581  0.00  0.00    +0.000 OA
BRANCH  28  30
ATOM     29  C   UNL     1      -4.491  13.835  21.357  0.00  0.00    +0.000 C 
ATOM     30  C   UNL     1      -3.581  12.667  21.693  0.00  0.00    +0.000 C 
ENDBRANCH  28  30
ENDBRANCH  26  28
ENDBRANCH   1  26
TORSDOF 4
ENDMDL
MODEL 8
REMARK VINA RESULT:      -7.2      4.847      8.886
REMARK  Name = 
REMARK  5 active torsions:
REMARK  status: ('A' for Active; 'I' for Inactive)
REMARK    1  A    between atoms: C_1  and  C_2
REMARK    2  A    between atoms: C_2  and  O_3
REMARK    3  A    between atoms: O_3  and  C_4
REMARK    4  A    between atoms: C_4  and  C_6
REMARK    5  A    between atoms: C_18  and  C_19
REMARK                            x       y       z     vdW  Elec       q    Type
REMARK                         _______ _______ _______ _____ _____    ______ ____
ROOT
ATOM      1  C   UNL     1       4.465   3.899  18.592  0.00  0.00    +0.000 C 
ATOM      2  O   UNL     1       5.270   4.063  17.681  0.00  0.00    +0.000 OA
ATOM      3  N   UNL     1       3.929   4.930  19.361  0.00  0.00    +0.000 N 
ATOM      4  C   UNL     1       4.221   6.326  19.021  0.00  0.00    +0.000 C 
ATOM      5  C   UNL     1       2.923   7.144  18.834  0.00  0.00    +0.000 C 
ATOM      6  N   UNL     1       2.051   6.957  19.997  0.00  0.00    +0.000 N 
ATOM      7  C   UNL     1       1.376   7.979  20.558  0.00  0.00    +0.000 A 
ATOM      8  N   UNL     1       0.679   7.744  21.707  0.00  0.00    +0.000 NA
ATOM      9  C   UNL     1       0.199   8.916  22.043  0.00  0.00    +0.000 A 
ATOM     10  N   UNL     1      -0.551   9.255  23.134  0.00  0.00    +0.000 NA
ATOM     11  C   UNL     1      -0.909  10.497  23.205  0.00  0.00    +0.000 A 
ATOM     12  C   UNL     1      -0.594  11.565  22.224  0.00  0.00    +0.000 A 
ATOM     13  C   UNL     1       0.151  11.186  21.169  0.00  0.00    +0.000 A 
ATOM     14  N   UNL     1       0.574   9.851  21.072  0.00  0.00    +0.000 N 
ATOM     15  N   UNL     1       1.354   9.247  20.145  0.00  0.00    +0.000 NA
ATOM     16  C   UNL     1       1.727   5.563  20.325  0.00  0.00    +0.000 C 
ATOM     17  C   UNL     1       3.027   4.759  20.511  0.00  0.00    +0.000 C 
ENDROOT
BRANCH  13  18
ATOM     18  C   UNL     1       0.444  12.179  20.121  0.00  0.00    +0.000 A 
ATOM     19  C   UNL     1       1.686  12.834  20.122  0.00  0.00    +0.000 A 
ATOM     20  C   UNL     1       1.960  13.818  19.171  0.00  0.00    +0.000 A 
ATOM     21 CL   UNL     1       3.478  14.629  19.195  0.00  0.00    +0.000 Cl
ATOM     22  C   UNL     1       1.011  14.163  18.212  0.00  0.00    +0.000 A 
ATOM     23  C   UNL     1      -0.226  13.518  18.199  0.00  0.00    +0.000 A 
ATOM     24  C   UNL     1      -0.510  12.533  19.149  0.00  0.00    +0.000 A 
ATOM     25 CL   UNL     1      -2.077  11.801  19.104  0.00  0.00    +0.000 Cl
ENDBRANCH  13  18
BRANCH   1  26
ATOM     26  C   UNL     1       4.000   2.473  18.919  0.00  0.00    +0.000 C 
ATOM     27  O   UNL     1       4.382   1.870  19.907  0.00  0.00    +0.000 OA
BRANCH  26  28
ATOM     28  O   UNL     1       3.237   2.005  17.907  0.00  0.00    +0.000 OA
BRANCH  28  30
ATOM     29  C   UNL     1       1.019   2.261  18.742  0.00  0.00    +0.000 C 
ATOM     30  C   UNL     1       2.011   2.714  17.688  0.00  0.00    +0.000 C 
ENDBRANCH  28  30
ENDBRANCH  26  28
ENDBRANCH   1  26
TORSDOF 4
ENDMDL
MODEL 9
REMARK VINA RESULT:      -6.6      2.184      4.030
REMARK  Name = 
REMARK  5 active torsions:
REMARK  status: ('A' for Active; 'I' for Inactive)
REMARK    1  A    between atoms: C_1  and  C_2
REMARK    2  A    between atoms: C_2  and  O_3
REMARK    3  A    between atoms: O_3  and  C_4
REMARK    4  A    between atoms: C_4  and  C_6
REMARK    5  A    between atoms: C_18  and  C_19
REMARK                            x       y       z     vdW  Elec       q    Type
REMARK                         _______ _______ _______ _____ _____    ______ ____
ROOT
ATOM      1  C   UNL     1      -0.534  11.312  22.410  0.00  0.00    +0.000 C 
ATOM      2  O   UNL     1      -1.017  10.939  23.474  0.00  0.00    +0.000 OA
ATOM      3  N   UNL     1       0.456  10.623  21.713  0.00  0.00    +0.000 N 
ATOM      4  C   UNL     1       0.897   9.304  22.177  0.00  0.00    +0.000 C 
ATOM      5  C   UNL     1       0.780   8.244  21.058  0.00  0.00    +0.000 C 
ATOM      6  N   UNL     1       1.447   8.731  19.848  0.00  0.00    +0.000 N 
ATOM      7  C   UNL     1       2.221   7.934  19.086  0.00  0.00    +0.000 A 
ATOM      8  N   UNL     1       2.900   8.492  18.043  0.00  0.00    +0.000 NA
ATOM      9  C   UNL     1       3.605   7.504  17.547  0.00  0.00    +0.000 A 
ATOM     10  N   UNL     1       4.488   7.521  16.504  0.00  0.00    +0.000 NA
ATOM     11  C   UNL     1       5.034   6.383  16.213  0.00  0.00    +0.000 A 
ATOM     12  C   UNL     1       4.786   5.086  16.888  0.00  0.00    +0.000 A 
ATOM     13  C   UNL     1       3.912   5.119  17.912  0.00  0.00    +0.000 A 
ATOM     14  N   UNL     1       3.319   6.340  18.268  0.00  0.00    +0.000 N 
ATOM     15  N   UNL     1       2.458   6.634  19.271  0.00  0.00    +0.000 NA
ATOM     16  C   UNL     1       0.990  10.037  19.357  0.00  0.00    +0.000 C 
ATOM     17  C   UNL     1       1.112  11.084  20.479  0.00  0.00    +0.000 C 
ENDROOT
BRANCH  13  18
ATOM     18  C   UNL     1       3.567   3.855  18.585  0.00  0.00    +0.000 A 
ATOM     19  C   UNL     1       4.519   3.231  19.408  0.00  0.00    +0.000 A 
ATOM     20  C   UNL     1       4.229   2.004  20.008  0.00  0.00    +0.000 A 
ATOM     21 CL   UNL     1       5.410   1.238  20.997  0.00  0.00    +0.000 Cl
ATOM     22  C   UNL     1       2.999   1.384  19.800  0.00  0.00    +0.000 A 
ATOM     23  C   UNL     1       2.045   1.995  18.987  0.00  0.00    +0.000 A 
ATOM     24  C   UNL     1       2.326   3.223  18.380  0.00  0.00    +0.000 A 
ATOM     25 CL   UNL     1       1.116   3.907  17.350  0.00  0.00    +0.000 Cl
ENDBRANCH  13  18
BRANCH   1  26
ATOM     26  C   UNL     1      -1.045  12.618  21.785  0.00  0.00    +0.000 C 
ATOM     27  O   UNL     1      -0.687  13.716  22.176  0.00  0.00    +0.000 OA
BRANCH  26  28
ATOM     28  O   UNL     1      -1.992  12.336  20.864  0.00  0.00    +0.000 OA
BRANCH  28  30
ATOM     29  C   UNL     1      -1.341  12.773  18.613  0.00  0.00    +0.000 C 
ATOM     30  C   UNL     1      -2.120  13.294  19.806  0.00  0.00    +0.000 C 
ENDBRANCH  28  30
ENDBRANCH  26  28
ENDBRANCH   1  26
TORSDOF 4
ENDMDL
