MODEL 1
REMARK VINA RESULT:      -7.4      0.000      0.000
REMARK  Name = 
REMARK  6 active torsions:
REMARK  status: ('A' for Active; 'I' for Inactive)
REMARK    1  A    between atoms: C_1  and  C_2
REMARK    2  A    between atoms: C_8  and  O_9
REMARK    3  A    between atoms: O_9  and  C_10
REMARK    4  A    between atoms: C_11  and  C_12
REMARK    5  A    between atoms: C_22  and  O_23
REMARK    6  A    between atoms: N_27  and  C_28
REMARK                            x       y       z     vdW  Elec       q    Type
REMARK                         _______ _______ _______ _____ _____    ______ ____
ROOT
ATOM      1  C   UNL     1      -0.481  12.088  20.069  0.00  0.00    +0.000 A 
ATOM      2  C   UNL     1      -1.747  12.673  20.131  0.00  0.00    +0.000 A 
ATOM      3  C   UNL     1      -2.568  11.952  19.189  0.00  0.00    +0.000 A 
ATOM      4  C   UNL     1      -3.884  12.159  18.694  0.00  0.00    +0.000 A 
ATOM      5  C   UNL     1      -4.440  11.257  17.788  0.00  0.00    +0.000 A 
ATOM      6  C   UNL     1      -3.751  10.125  17.404  0.00  0.00    +0.000 A 
ATOM      7  C   UNL     1      -2.468   9.877  17.906  0.00  0.00    +0.000 A 
ATOM      8  C   UNL     1      -1.855  10.830  18.754  0.00  0.00    +0.000 A 
ATOM      9  N   UNL     1      -0.598  10.882  19.361  0.00  0.00    +0.000 N 
ENDROOT
BRANCH   2  10
ATOM     10  C   UNL     1      -2.223  13.858  20.868  0.00  0.00    +0.000 C 
ATOM     11  O   UNL     1      -2.285  14.942  20.283  0.00  0.00    +0.000 OA
ATOM     12  N   UNL     1      -2.739  13.729  22.158  0.00  0.00    +0.000 N 
ATOM     13  C   UNL     1      -3.376  14.886  22.789  0.00  0.00    +0.000 C 
ATOM     14  C   UNL     1      -4.628  14.446  23.576  0.00  0.00    +0.000 C 
ATOM     15  N   UNL     1      -4.338  13.413  24.584  0.00  0.00    +0.000 NA
ATOM     16  C   UNL     1      -3.696  12.259  23.946  0.00  0.00    +0.000 C 
ATOM     17  C   UNL     1      -2.485  12.648  23.099  0.00  0.00    +0.000 C 
ATOM     18  H   UNL     1      -5.208  13.103  25.015  0.00  0.00    +0.000 HD
ENDBRANCH   2  10
BRANCH   9  19
ATOM     19  C   UNL     1       0.463   9.929  19.226  0.00  0.00    +0.000 A 
ATOM     20  C   UNL     1       0.782   9.052  20.269  0.00  0.00    +0.000 A 
ATOM     21  C   UNL     1       1.750   8.062  20.082  0.00  0.00    +0.000 A 
ATOM     22  C   UNL     1       2.396   7.932  18.854  0.00  0.00    +0.000 A 
ATOM     23  C   UNL     1       2.101   8.815  17.818  0.00  0.00    +0.000 A 
ATOM     24  C   UNL     1       1.149   9.817  18.006  0.00  0.00    +0.000 A 
ENDBRANCH   9  19
BRANCH   5  25
ATOM     25  O   UNL     1      -5.684  11.452  17.262  0.00  0.00    +0.000 OA
ATOM     26  H   UNL     1      -6.343  11.284  17.957  0.00  0.00    +0.000 HD
ENDBRANCH   5  25
BRANCH   1  27
ATOM     27  O   UNL     1       0.736  12.458  20.526  0.00  0.00    +0.000 OA
BRANCH  27  35
ATOM     28  C   UNL     1       0.784  14.812  22.237  0.00  0.00    +0.000 C 
ATOM     29  C   UNL     1       1.418  14.740  20.871  0.00  0.00    +0.000 A 
ATOM     30  C   UNL     1       2.008  15.903  20.354  0.00  0.00    +0.000 A 
ATOM     31  C   UNL     1       2.597  15.902  19.091  0.00  0.00    +0.000 A 
ATOM     32  C   UNL     1       2.628  14.720  18.352  0.00  0.00    +0.000 A 
ATOM     33  F   UNL     1       3.211  14.720  17.146  0.00  0.00    +0.000 F 
ATOM     34  C   UNL     1       2.049  13.565  18.832  0.00  0.00    +0.000 A 
ATOM     35  C   UNL     1       1.405  13.574  20.069  0.00  0.00    +0.000 A 
ENDBRANCH  27  35
ENDBRANCH   1  27
TORSDOF 5
ENDMDL
MODEL 2
REMARK VINA RESULT:      -7.3      1.112      1.620
REMARK  Name = 
REMARK  6 active torsions:
REMARK  status: ('A' for Active; 'I' for Inactive)
REMARK    1  A    between atoms: C_1  and  C_2
REMARK    2  A    between atoms: C_8  and  O_9
REMARK    3  A    between atoms: O_9  and  C_10
REMARK    4  A    between atoms: C_11  and  C_12
REMARK    5  A    between atoms: C_22  and  O_23
REMARK    6  A    between atoms: N_27  and  C_28
REMARK                            x       y       z     vdW  Elec       q    Type
REMARK                         _______ _______ _______ _____ _____    ______ ____
ROOT
ATOM      1  C   UNL     1      -0.194  11.871  20.101  0.00  0.00    +0.000 A 
ATOM      2  C   UNL     1      -1.428  12.524  20.134  0.00  0.00    +0.000 A 
ATOM      3  C   UNL     1      -2.262  11.853  19.166  0.00  0.00    +0.000 A 
ATOM      4  C   UNL     1      -3.551  12.134  18.638  0.00  0.00    +0.000 A 
ATOM      5  C   UNL     1      -4.131  11.267  17.713  0.00  0.00    +0.000 A 
ATOM      6  C   UNL     1      -3.495  10.100  17.340  0.00  0.00    +0.000 A 
ATOM      7  C   UNL     1      -2.241   9.781  17.874  0.00  0.00    +0.000 A 
ATOM      8  C   UNL     1      -1.601  10.695  18.743  0.00  0.00    +0.000 A 
ATOM      9  N   UNL     1      -0.358  10.676  19.384  0.00  0.00    +0.000 N 
ENDROOT
BRANCH   2  10
ATOM     10  C   UNL     1      -1.857  13.729  20.864  0.00  0.00    +0.000 C 
ATOM     11  O   UNL     1      -1.829  14.820  20.289  0.00  0.00    +0.000 OA
ATOM     12  N   UNL     1      -2.431  13.622  22.132  0.00  0.00    +0.000 N 
ATOM     13  C   UNL     1      -3.020  14.811  22.751  0.00  0.00    +0.000 C 
ATOM     14  C   UNL     1      -4.327  14.443  23.483  0.00  0.00    +0.000 C 
ATOM     15  N   UNL     1      -4.142  13.386  24.490  0.00  0.00    +0.000 NA
ATOM     16  C   UNL     1      -3.548  12.199  23.865  0.00  0.00    +0.000 C 
ATOM     17  C   UNL     1      -2.283  12.519  23.070  0.00  0.00    +0.000 C 
ATOM     18  H   UNL     1      -5.045  13.127  24.884  0.00  0.00    +0.000 HD
ENDBRANCH   2  10
BRANCH   9  19
ATOM     19  C   UNL     1       0.652   9.666  19.271  0.00  0.00    +0.000 A 
ATOM     20  C   UNL     1       0.964   8.834  20.351  0.00  0.00    +0.000 A 
ATOM     21  C   UNL     1       1.878   7.789  20.191  0.00  0.00    +0.000 A 
ATOM     22  C   UNL     1       2.476   7.562  18.954  0.00  0.00    +0.000 A 
ATOM     23  C   UNL     1       2.190   8.400  17.880  0.00  0.00    +0.000 A 
ATOM     24  C   UNL     1       1.293   9.455  18.039  0.00  0.00    +0.000 A 
ENDBRANCH   9  19
BRANCH   5  25
ATOM     25  O   UNL     1      -5.349  11.532  17.155  0.00  0.00    +0.000 OA
ATOM     26  H   UNL     1      -5.905  11.968  17.822  0.00  0.00    +0.000 HD
ENDBRANCH   5  25
BRANCH   1  27
ATOM     27  O   UNL     1       1.028  12.171  20.592  0.00  0.00    +0.000 OA
BRANCH  27  35
ATOM     28  C   UNL     1       2.446  12.830  18.137  0.00  0.00    +0.000 C 
ATOM     29  C   UNL     1       2.311  13.759  19.317  0.00  0.00    +0.000 A 
ATOM     30  C   UNL     1       2.972  14.995  19.264  0.00  0.00    +0.000 A 
ATOM     31  C   UNL     1       2.897  15.890  20.331  0.00  0.00    +0.000 A 
ATOM     32  C   UNL     1       2.126  15.560  21.446  0.00  0.00    +0.000 A 
ATOM     33  F   UNL     1       2.042  16.431  22.460  0.00  0.00    +0.000 F 
ATOM     34  C   UNL     1       1.473  14.349  21.527  0.00  0.00    +0.000 A 
ATOM     35  C   UNL     1       1.593  13.425  20.490  0.00  0.00    +0.000 A 
ENDBRANCH  27  35
ENDBRANCH   1  27
TORSDOF 5
ENDMDL
MODEL 3
REMARK VINA RESULT:      -7.0      6.833      9.980
REMARK  Name = 
REMARK  6 active torsions:
REMARK  status: ('A' for Active; 'I' for Inactive)
REMARK    1  A    between atoms: C_1  and  C_2
REMARK    2  A    between atoms: C_8  and  O_9
REMARK    3  A    between atoms: O_9  and  C_10
REMARK    4  A    between atoms: C_11  and  C_12
REMARK    5  A    between atoms: C_22  and  O_23
REMARK    6  A    between atoms: N_27  and  C_28
REMARK                            x       y       z     vdW  Elec       q    Type
REMARK                         _______ _______ _______ _____ _____    ______ ____
ROOT
ATOM      1  C   UNL     1       7.150  14.580  21.597  0.00  0.00    +0.000 A 
ATOM      2  C   UNL     1       6.830  15.357  20.482  0.00  0.00    +0.000 A 
ATOM      3  C   UNL     1       5.424  15.147  20.237  0.00  0.00    +0.000 A 
ATOM      4  C   UNL     1       4.556  15.535  19.180  0.00  0.00    +0.000 A 
ATOM      5  C   UNL     1       3.203  15.205  19.231  0.00  0.00    +0.000 A 
ATOM      6  C   UNL     1       2.674  14.553  20.326  0.00  0.00    +0.000 A 
ATOM      7  C   UNL     1       3.499  14.193  21.398  0.00  0.00    +0.000 A 
ATOM      8  C   UNL     1       4.890  14.440  21.319  0.00  0.00    +0.000 A 
ATOM      9  N   UNL     1       5.948  14.161  22.188  0.00  0.00    +0.000 N 
ENDROOT
BRANCH   2  10
ATOM     10  C   UNL     1       7.689  16.158  19.591  0.00  0.00    +0.000 C 
ATOM     11  O   UNL     1       7.868  17.352  19.847  0.00  0.00    +0.000 OA
ATOM     12  N   UNL     1       8.411  15.546  18.566  0.00  0.00    +0.000 N 
ATOM     13  C   UNL     1       9.397  16.332  17.822  0.00  0.00    +0.000 C 
ATOM     14  C   UNL     1      10.653  15.484  17.537  0.00  0.00    +0.000 C 
ATOM     15  N   UNL     1      10.352  14.236  16.818  0.00  0.00    +0.000 NA
ATOM     16  C   UNL     1       9.360  13.455  17.566  0.00  0.00    +0.000 C 
ATOM     17  C   UNL     1       8.120  14.269  17.931  0.00  0.00    +0.000 C 
ATOM     18  H   UNL     1      11.201  13.680  16.728  0.00  0.00    +0.000 HD
ENDBRANCH   2  10
BRANCH   9  19
ATOM     19  C   UNL     1       5.872  13.472  23.442  0.00  0.00    +0.000 A 
ATOM     20  C   UNL     1       6.119  12.097  23.526  0.00  0.00    +0.000 A 
ATOM     21  C   UNL     1       6.141  11.462  24.770  0.00  0.00    +0.000 A 
ATOM     22  C   UNL     1       5.930  12.194  25.937  0.00  0.00    +0.000 A 
ATOM     23  C   UNL     1       5.660  13.557  25.861  0.00  0.00    +0.000 A 
ATOM     24  C   UNL     1       5.618  14.192  24.620  0.00  0.00    +0.000 A 
ENDBRANCH   9  19
BRANCH   5  25
ATOM     25  O   UNL     1       2.353  15.525  18.211  0.00  0.00    +0.000 OA
ATOM     26  H   UNL     1       1.967  16.398  18.394  0.00  0.00    +0.000 HD
ENDBRANCH   5  25
BRANCH   1  27
ATOM     27  O   UNL     1       8.318  14.186  22.150  0.00  0.00    +0.000 OA
BRANCH  27  35
ATOM     28  C   UNL     1      10.866  15.361  21.379  0.00  0.00    +0.000 C 
ATOM     29  C   UNL     1      10.463  13.939  21.087  0.00  0.00    +0.000 A 
ATOM     30  C   UNL     1      11.338  13.145  20.330  0.00  0.00    +0.000 A 
ATOM     31  C   UNL     1      11.013  11.827  20.015  0.00  0.00    +0.000 A 
ATOM     32  C   UNL     1       9.818  11.285  20.491  0.00  0.00    +0.000 A 
ATOM     33  F   UNL     1       9.519  10.012  20.201  0.00  0.00    +0.000 F 
ATOM     34  C   UNL     1       8.937  12.045  21.230  0.00  0.00    +0.000 A 
ATOM     35  C   UNL     1       9.228  13.382  21.496  0.00  0.00    +0.000 A 
ENDBRANCH  27  35
ENDBRANCH   1  27
TORSDOF 5
ENDMDL
MODEL 4
REMARK VINA RESULT:      -6.8      2.850      5.716
REMARK  Name = 
REMARK  6 active torsions:
REMARK  status: ('A' for Active; 'I' for Inactive)
REMARK    1  A    between atoms: C_1  and  C_2
REMARK    2  A    between atoms: C_8  and  O_9
REMARK    3  A    between atoms: O_9  and  C_10
REMARK    4  A    between atoms: C_11  and  C_12
REMARK    5  A    between atoms: C_22  and  O_23
REMARK    6  A    between atoms: N_27  and  C_28
REMARK                            x       y       z     vdW  Elec       q    Type
REMARK                         _______ _______ _______ _____ _____    ______ ____
ROOT
ATOM      1  C   UNL     1      -2.002  12.570  20.485  0.00  0.00    +0.000 A 
ATOM      2  C   UNL     1      -3.219  13.052  20.968  0.00  0.00    +0.000 A 
ATOM      3  C   UNL     1      -2.932  14.327  21.579  0.00  0.00    +0.000 A 
ATOM      4  C   UNL     1      -3.709  15.224  22.361  0.00  0.00    +0.000 A 
ATOM      5  C   UNL     1      -3.158  16.427  22.800  0.00  0.00    +0.000 A 
ATOM      6  C   UNL     1      -1.878  16.793  22.436  0.00  0.00    +0.000 A 
ATOM      7  C   UNL     1      -1.104  15.946  21.635  0.00  0.00    +0.000 A 
ATOM      8  C   UNL     1      -1.617  14.682  21.259  0.00  0.00    +0.000 A 
ATOM      9  N   UNL     1      -1.077  13.626  20.520  0.00  0.00    +0.000 N 
ENDROOT
BRANCH   2  10
ATOM     10  C   UNL     1      -4.551  12.422  21.016  0.00  0.00    +0.000 C 
ATOM     11  O   UNL     1      -5.121  12.308  22.103  0.00  0.00    +0.000 OA
ATOM     12  N   UNL     1      -5.223  12.098  19.836  0.00  0.00    +0.000 N 
ATOM     13  C   UNL     1      -6.615  11.651  19.910  0.00  0.00    +0.000 C 
ATOM     14  C   UNL     1      -7.435  12.260  18.753  0.00  0.00    +0.000 C 
ATOM     15  N   UNL     1      -6.873  11.953  17.428  0.00  0.00    +0.000 NA
ATOM     16  C   UNL     1      -5.477  12.399  17.363  0.00  0.00    +0.000 C 
ATOM     17  C   UNL     1      -4.633  11.876  18.524  0.00  0.00    +0.000 C 
ATOM     18  H   UNL     1      -7.404  12.443  16.710  0.00  0.00    +0.000 HD
ENDBRANCH   2  10
BRANCH   9  19
ATOM     19  C   UNL     1       0.239  13.554  19.959  0.00  0.00    +0.000 A 
ATOM     20  C   UNL     1       0.443  13.674  18.580  0.00  0.00    +0.000 A 
ATOM     21  C   UNL     1       1.741  13.704  18.062  0.00  0.00    +0.000 A 
ATOM     22  C   UNL     1       2.840  13.626  18.915  0.00  0.00    +0.000 A 
ATOM     23  C   UNL     1       2.646  13.483  20.286  0.00  0.00    +0.000 A 
ATOM     24  C   UNL     1       1.353  13.433  20.806  0.00  0.00    +0.000 A 
ENDBRANCH   9  19
BRANCH   5  25
ATOM     25  O   UNL     1      -3.864  17.289  23.588  0.00  0.00    +0.000 OA
ATOM     26  H   UNL     1      -3.286  17.594  24.307  0.00  0.00    +0.000 HD
ENDBRANCH   5  25
BRANCH   1  27
ATOM     27  O   UNL     1      -1.593  11.363  20.037  0.00  0.00    +0.000 OA
BRANCH  27  35
ATOM     28  C   UNL     1       0.441   9.995  18.469  0.00  0.00    +0.000 C 
ATOM     29  C   UNL     1       0.304   9.883  19.965  0.00  0.00    +0.000 A 
ATOM     30  C   UNL     1       1.163   9.007  20.645  0.00  0.00    +0.000 A 
ATOM     31  C   UNL     1       1.074   8.850  22.027  0.00  0.00    +0.000 A 
ATOM     32  C   UNL     1       0.141   9.602  22.741  0.00  0.00    +0.000 A 
ATOM     33  F   UNL     1       0.071   9.461  24.071  0.00  0.00    +0.000 F 
ATOM     34  C   UNL     1      -0.721  10.464  22.098  0.00  0.00    +0.000 A 
ATOM     35  C   UNL     1      -0.678  10.580  20.709  0.00  0.00    +0.000 A 
ENDBRANCH  27  35
ENDBRANCH   1  27
TORSDOF 5
ENDMDL
MODEL 5
REMARK VINA RESULT:      -6.8      2.984      5.983
REMARK  Name = 
REMARK  6 active torsions:
REMARK  status: ('A' for Active; 'I' for Inactive)
REMARK    1  A    between atoms: C_1  and  C_2
REMARK    2  A    between atoms: C_8  and  O_9
REMARK    3  A    between atoms: O_9  and  C_10
REMARK    4  A    between atoms: C_11  and  C_12
REMARK    5  A    between atoms: C_22  and  O_23
REMARK    6  A    between atoms: N_27  and  C_28
REMARK                            x       y       z     vdW  Elec       q    Type
REMARK                         _______ _______ _______ _____ _____    ______ ____
ROOT
ATOM      1  C   UNL     1      -1.983  13.070  21.977  0.00  0.00    +0.000 A 
ATOM      2  C   UNL     1      -2.866  13.505  22.967  0.00  0.00    +0.000 A 
ATOM      3  C   UNL     1      -2.255  14.667  23.565  0.00  0.00    +0.000 A 
ATOM      4  C   UNL     1      -2.581  15.458  24.700  0.00  0.00    +0.000 A 
ATOM      5  C   UNL     1      -1.803  16.567  25.027  0.00  0.00    +0.000 A 
ATOM      6  C   UNL     1      -0.745  16.949  24.227  0.00  0.00    +0.000 A 
ATOM      7  C   UNL     1      -0.424  16.211  23.083  0.00  0.00    +0.000 A 
ATOM      8  C   UNL     1      -1.148  15.031  22.789  0.00  0.00    +0.000 A 
ATOM      9  N   UNL     1      -1.035  14.083  21.769  0.00  0.00    +0.000 N 
ENDROOT
BRANCH   2  10
ATOM     10  C   UNL     1      -4.118  12.910  23.467  0.00  0.00    +0.000 C 
ATOM     11  O   UNL     1      -4.058  11.992  24.288  0.00  0.00    +0.000 OA
ATOM     12  N   UNL     1      -5.351  13.475  23.137  0.00  0.00    +0.000 N 
ATOM     13  C   UNL     1      -6.560  12.981  23.798  0.00  0.00    +0.000 C 
ATOM     14  C   UNL     1      -7.506  14.153  24.132  0.00  0.00    +0.000 C 
ATOM     15  N   UNL     1      -7.865  14.954  22.950  0.00  0.00    +0.000 NA
ATOM     16  C   UNL     1      -6.649  15.442  22.290  0.00  0.00    +0.000 C 
ATOM     17  C   UNL     1      -5.647  14.327  21.995  0.00  0.00    +0.000 C 
ATOM     18  H   UNL     1      -8.422  15.757  23.238  0.00  0.00    +0.000 HD
ENDBRANCH   2  10
BRANCH   9  19
ATOM     19  C   UNL     1      -0.059  14.061  20.721  0.00  0.00    +0.000 A 
ATOM     20  C   UNL     1       1.253  13.640  20.965  0.00  0.00    +0.000 A 
ATOM     21  C   UNL     1       2.163  13.528  19.910  0.00  0.00    +0.000 A 
ATOM     22  C   UNL     1       1.768  13.823  18.607  0.00  0.00    +0.000 A 
ATOM     23  C   UNL     1       0.472  14.265  18.358  0.00  0.00    +0.000 A 
ATOM     24  C   UNL     1      -0.434  14.397  19.410  0.00  0.00    +0.000 A 
ENDBRANCH   9  19
BRANCH   5  25
ATOM     25  O   UNL     1      -2.065  17.320  26.135  0.00  0.00    +0.000 OA
ATOM     26  H   UNL     1      -2.416  18.179  25.848  0.00  0.00    +0.000 HD
ENDBRANCH   5  25
BRANCH   1  27
ATOM     27  O   UNL     1      -1.887  11.932  21.254  0.00  0.00    +0.000 OA
BRANCH  27  35
ATOM     28  C   UNL     1      -0.527  10.680  19.007  0.00  0.00    +0.000 C 
ATOM     29  C   UNL     1      -0.315  10.298  20.449  0.00  0.00    +0.000 A 
ATOM     30  C   UNL     1       0.539   9.220  20.730  0.00  0.00    +0.000 A 
ATOM     31  C   UNL     1       0.762   8.811  22.043  0.00  0.00    +0.000 A 
ATOM     32  C   UNL     1       0.156   9.507  23.089  0.00  0.00    +0.000 A 
ATOM     33  F   UNL     1       0.389   9.122  24.350  0.00  0.00    +0.000 F 
ATOM     34  C   UNL     1      -0.693  10.565  22.841  0.00  0.00    +0.000 A 
ATOM     35  C   UNL     1      -0.968  10.941  21.527  0.00  0.00    +0.000 A 
ENDBRANCH  27  35
ENDBRANCH   1  27
TORSDOF 5
ENDMDL
MODEL 6
REMARK VINA RESULT:      -6.7      3.020      5.827
REMARK  Name = 
REMARK  6 active torsions:
REMARK  status: ('A' for Active; 'I' for Inactive)
REMARK    1  A    between atoms: C_1  and  C_2
REMARK    2  A    between atoms: C_8  and  O_9
REMARK    3  A    between atoms: O_9  and  C_10
REMARK    4  A    between atoms: C_11  and  C_12
REMARK    5  A    between atoms: C_22  and  O_23
REMARK    6  A    between atoms: N_27  and  C_28
REMARK                            x       y       z     vdW  Elec       q    Type
REMARK                         _______ _______ _______ _____ _____    ______ ____
ROOT
ATOM      1  C   UNL     1      -1.961  12.995  21.376  0.00  0.00    +0.000 A 
ATOM      2  C   UNL     1      -3.060  13.407  22.131  0.00  0.00    +0.000 A 
ATOM      3  C   UNL     1      -2.634  14.583  22.850  0.00  0.00    +0.000 A 
ATOM      4  C   UNL     1      -3.236  15.364  23.874  0.00  0.00    +0.000 A 
ATOM      5  C   UNL     1      -2.582  16.491  24.369  0.00  0.00    +0.000 A 
ATOM      6  C   UNL     1      -1.377  16.901  23.837  0.00  0.00    +0.000 A 
ATOM      7  C   UNL     1      -0.780  16.172  22.801  0.00  0.00    +0.000 A 
ATOM      8  C   UNL     1      -1.387  14.975  22.352  0.00  0.00    +0.000 A 
ATOM      9  N   UNL     1      -1.015  14.032  21.390  0.00  0.00    +0.000 N 
ENDROOT
BRANCH   2  10
ATOM     10  C   UNL     1      -4.380  12.781  22.328  0.00  0.00    +0.000 C 
ATOM     11  O   UNL     1      -4.615  12.203  23.392  0.00  0.00    +0.000 OA
ATOM     12  N   UNL     1      -5.399  12.968  21.393  0.00  0.00    +0.000 N 
ATOM     13  C   UNL     1      -6.748  12.495  21.706  0.00  0.00    +0.000 C 
ATOM     14  C   UNL     1      -7.800  13.513  21.219  0.00  0.00    +0.000 C 
ATOM     15  N   UNL     1      -7.687  13.810  19.781  0.00  0.00    +0.000 NA
ATOM     16  C   UNL     1      -6.332  14.279  19.474  0.00  0.00    +0.000 C 
ATOM     17  C   UNL     1      -5.247  13.337  19.993  0.00  0.00    +0.000 C 
ATOM     18  H   UNL     1      -8.349  14.543  19.531  0.00  0.00    +0.000 HD
ENDBRANCH   2  10
BRANCH   9  19
ATOM     19  C   UNL     1       0.179  14.036  20.599  0.00  0.00    +0.000 A 
ATOM     20  C   UNL     1       1.412  13.675  21.152  0.00  0.00    +0.000 A 
ATOM     21  C   UNL     1       2.547  13.586  20.341  0.00  0.00    +0.000 A 
ATOM     22  C   UNL     1       2.456  13.844  18.975  0.00  0.00    +0.000 A 
ATOM     23  C   UNL     1       1.238  14.227  18.420  0.00  0.00    +0.000 A 
ATOM     24  C   UNL     1       0.107  14.336  19.229  0.00  0.00    +0.000 A 
ENDBRANCH   9  19
BRANCH   5  25
ATOM     25  O   UNL     1      -3.115  17.236  25.382  0.00  0.00    +0.000 OA
ATOM     26  H   UNL     1      -3.142  18.165  25.100  0.00  0.00    +0.000 HD
ENDBRANCH   5  25
BRANCH   1  27
ATOM     27  O   UNL     1      -1.671  11.861  20.700  0.00  0.00    +0.000 OA
BRANCH  27  35
ATOM     28  C   UNL     1       0.097  10.617  18.753  0.00  0.00    +0.000 C 
ATOM     29  C   UNL     1       0.083  10.284  20.222  0.00  0.00    +0.000 A 
ATOM     30  C   UNL     1       0.923   9.256  20.676  0.00  0.00    +0.000 A 
ATOM     31  C   UNL     1       0.942   8.893  22.022  0.00  0.00    +0.000 A 
ATOM     32  C   UNL     1       0.140   9.587  22.928  0.00  0.00    +0.000 A 
ATOM     33  F   UNL     1       0.176   9.246  24.223  0.00  0.00    +0.000 F 
ATOM     34  C   UNL     1      -0.700  10.596  22.508  0.00  0.00    +0.000 A 
ATOM     35  C   UNL     1      -0.769  10.923  21.155  0.00  0.00    +0.000 A 
ENDBRANCH  27  35
ENDBRANCH   1  27
TORSDOF 5
ENDMDL
MODEL 7
REMARK VINA RESULT:      -6.7      3.145      5.874
REMARK  Name = 
REMARK  6 active torsions:
REMARK  status: ('A' for Active; 'I' for Inactive)
REMARK    1  A    between atoms: C_1  and  C_2
REMARK    2  A    between atoms: C_8  and  O_9
REMARK    3  A    between atoms: O_9  and  C_10
REMARK    4  A    between atoms: C_11  and  C_12
REMARK    5  A    between atoms: C_22  and  O_23
REMARK    6  A    between atoms: N_27  and  C_28
REMARK                            x       y       z     vdW  Elec       q    Type
REMARK                         _______ _______ _______ _____ _____    ______ ____
ROOT
ATOM      1  C   UNL     1      -2.557  12.428  19.668  0.00  0.00    +0.000 A 
ATOM      2  C   UNL     1      -1.708  12.700  20.742  0.00  0.00    +0.000 A 
ATOM      3  C   UNL     1      -0.836  11.557  20.863  0.00  0.00    +0.000 A 
ATOM      4  C   UNL     1       0.128  11.172  21.834  0.00  0.00    +0.000 A 
ATOM      5  C   UNL     1       0.857   9.996  21.667  0.00  0.00    +0.000 A 
ATOM      6  C   UNL     1       0.701   9.221  20.535  0.00  0.00    +0.000 A 
ATOM      7  C   UNL     1      -0.213   9.597  19.545  0.00  0.00    +0.000 A 
ATOM      8  C   UNL     1      -1.026  10.739  19.744  0.00  0.00    +0.000 A 
ATOM      9  N   UNL     1      -2.036  11.324  18.976  0.00  0.00    +0.000 N 
ENDROOT
BRANCH   2  10
ATOM     10  C   UNL     1      -1.697  13.822  21.698  0.00  0.00    +0.000 C 
ATOM     11  O   UNL     1      -1.238  14.910  21.340  0.00  0.00    +0.000 OA
ATOM     12  N   UNL     1      -2.333  13.705  22.934  0.00  0.00    +0.000 N 
ATOM     13  C   UNL     1      -2.470  14.891  23.781  0.00  0.00    +0.000 C 
ATOM     14  C   UNL     1      -3.855  14.909  24.459  0.00  0.00    +0.000 C 
ATOM     15  N   UNL     1      -4.126  13.693  25.243  0.00  0.00    +0.000 NA
ATOM     16  C   UNL     1      -3.983  12.508  24.390  0.00  0.00    +0.000 C 
ATOM     17  C   UNL     1      -2.651  12.474  23.643  0.00  0.00    +0.000 C 
ATOM     18  H   UNL     1      -5.079  13.723  25.600  0.00  0.00    +0.000 HD
ENDBRANCH   2  10
BRANCH   9  19
ATOM     19  C   UNL     1      -2.552  10.847  17.728  0.00  0.00    +0.000 A 
ATOM     20  C   UNL     1      -2.290  11.525  16.532  0.00  0.00    +0.000 A 
ATOM     21  C   UNL     1      -2.715  10.990  15.313  0.00  0.00    +0.000 A 
ATOM     22  C   UNL     1      -3.391   9.773  15.278  0.00  0.00    +0.000 A 
ATOM     23  C   UNL     1      -3.677   9.103  16.464  0.00  0.00    +0.000 A 
ATOM     24  C   UNL     1      -3.272   9.642  17.685  0.00  0.00    +0.000 A 
ENDBRANCH   9  19
BRANCH   5  25
ATOM     25  O   UNL     1       1.758   9.577  22.603  0.00  0.00    +0.000 OA
ATOM     26  H   UNL     1       2.105  10.357  23.069  0.00  0.00    +0.000 HD
ENDBRANCH   5  25
BRANCH   1  27
ATOM     27  O   UNL     1      -3.703  12.991  19.225  0.00  0.00    +0.000 OA
BRANCH  27  35
ATOM     28  C   UNL     1      -5.709  12.337  17.221  0.00  0.00    +0.000 C 
ATOM     29  C   UNL     1      -5.952  12.307  18.708  0.00  0.00    +0.000 A 
ATOM     30  C   UNL     1      -7.247  12.017  19.162  0.00  0.00    +0.000 A 
ATOM     31  C   UNL     1      -7.536  11.990  20.525  0.00  0.00    +0.000 A 
ATOM     32  C   UNL     1      -6.513  12.220  21.445  0.00  0.00    +0.000 A 
ATOM     33  F   UNL     1      -6.792  12.175  22.754  0.00  0.00    +0.000 F 
ATOM     34  C   UNL     1      -5.233  12.515  21.027  0.00  0.00    +0.000 A 
ATOM     35  C   UNL     1      -4.951  12.603  19.665  0.00  0.00    +0.000 A 
ENDBRANCH  27  35
ENDBRANCH   1  27
TORSDOF 5
ENDMDL
MODEL 8
REMARK VINA RESULT:      -6.7      2.245      5.837
REMARK  Name = 
REMARK  6 active torsions:
REMARK  status: ('A' for Active; 'I' for Inactive)
REMARK    1  A    between atoms: C_1  and  C_2
REMARK    2  A    between atoms: C_8  and  O_9
REMARK    3  A    between atoms: O_9  and  C_10
REMARK    4  A    between atoms: C_11  and  C_12
REMARK    5  A    between atoms: C_22  and  O_23
REMARK    6  A    between atoms: N_27  and  C_28
REMARK                            x       y       z     vdW  Elec       q    Type
REMARK                         _______ _______ _______ _____ _____    ______ ____
ROOT
ATOM      1  C   UNL     1      -1.632  12.792  20.672  0.00  0.00    +0.000 A 
ATOM      2  C   UNL     1      -1.204  11.736  19.866  0.00  0.00    +0.000 A 
ATOM      3  C   UNL     1      -0.581  10.783  20.752  0.00  0.00    +0.000 A 
ATOM      4  C   UNL     1       0.166   9.594  20.527  0.00  0.00    +0.000 A 
ATOM      5  C   UNL     1       0.629   8.845  21.608  0.00  0.00    +0.000 A 
ATOM      6  C   UNL     1       0.323   9.208  22.904  0.00  0.00    +0.000 A 
ATOM      7  C   UNL     1      -0.443  10.353  23.153  0.00  0.00    +0.000 A 
ATOM      8  C   UNL     1      -0.842  11.173  22.070  0.00  0.00    +0.000 A 
ATOM      9  N   UNL     1      -1.556  12.373  22.009  0.00  0.00    +0.000 N 
ENDROOT
BRANCH   2  10
ATOM     10  C   UNL     1      -1.216  11.579  18.400  0.00  0.00    +0.000 C 
ATOM     11  O   UNL     1      -0.149  11.396  17.809  0.00  0.00    +0.000 OA
ATOM     12  N   UNL     1      -2.424  11.486  17.709  0.00  0.00    +0.000 N 
ATOM     13  C   UNL     1      -2.406  11.141  16.286  0.00  0.00    +0.000 C 
ATOM     14  C   UNL     1      -3.562  10.176  15.953  0.00  0.00    +0.000 C 
ATOM     15  N   UNL     1      -4.882  10.710  16.329  0.00  0.00    +0.000 NA
ATOM     16  C   UNL     1      -4.892  11.057  17.754  0.00  0.00    +0.000 C 
ATOM     17  C   UNL     1      -3.727  11.962  18.152  0.00  0.00    +0.000 C 
ATOM     18  H   UNL     1      -5.596  10.003  16.162  0.00  0.00    +0.000 HD
ENDBRANCH   2  10
BRANCH   9  19
ATOM     19  C   UNL     1      -2.057  13.132  23.115  0.00  0.00    +0.000 A 
ATOM     20  C   UNL     1      -1.262  14.092  23.750  0.00  0.00    +0.000 A 
ATOM     21  C   UNL     1      -1.802  14.894  24.760  0.00  0.00    +0.000 A 
ATOM     22  C   UNL     1      -3.136  14.752  25.132  0.00  0.00    +0.000 A 
ATOM     23  C   UNL     1      -3.928  13.784  24.522  0.00  0.00    +0.000 A 
ATOM     24  C   UNL     1      -3.389  12.968  23.527  0.00  0.00    +0.000 A 
ENDBRANCH   9  19
BRANCH   5  25
ATOM     25  O   UNL     1       1.385   7.723  21.424  0.00  0.00    +0.000 OA
ATOM     26  H   UNL     1       0.967   6.988  21.903  0.00  0.00    +0.000 HD
ENDBRANCH   5  25
BRANCH   1  27
ATOM     27  O   UNL     1      -2.061  14.046  20.408  0.00  0.00    +0.000 OA
BRANCH  27  35
ATOM     28  C   UNL     1      -2.744  16.626  21.569  0.00  0.00    +0.000 C 
ATOM     29  C   UNL     1      -1.530  16.374  20.711  0.00  0.00    +0.000 A 
ATOM     30  C   UNL     1      -0.711  17.466  20.387  0.00  0.00    +0.000 A 
ATOM     31  C   UNL     1       0.416  17.297  19.585  0.00  0.00    +0.000 A 
ATOM     32  C   UNL     1       0.748  16.020  19.131  0.00  0.00    +0.000 A 
ATOM     33  F   UNL     1       1.843  15.861  18.376  0.00  0.00    +0.000 F 
ATOM     34  C   UNL     1      -0.043  14.932  19.429  0.00  0.00    +0.000 A 
ATOM     35  C   UNL     1      -1.205  15.103  20.180  0.00  0.00    +0.000 A 
ENDBRANCH  27  35
ENDBRANCH   1  27
TORSDOF 5
ENDMDL
MODEL 9
REMARK VINA RESULT:      -6.7      2.043      2.950
REMARK  Name = 
REMARK  6 active torsions:
REMARK  status: ('A' for Active; 'I' for Inactive)
REMARK    1  A    between atoms: C_1  and  C_2
REMARK    2  A    between atoms: C_8  and  O_9
REMARK    3  A    between atoms: O_9  and  C_10
REMARK    4  A    between atoms: C_11  and  C_12
REMARK    5  A    between atoms: C_22  and  O_23
REMARK    6  A    between atoms: N_27  and  C_28
REMARK                            x       y       z     vdW  Elec       q    Type
REMARK                         _______ _______ _______ _____ _____    ______ ____
ROOT
ATOM      1  C   UNL     1       0.212  11.798  20.227  0.00  0.00    +0.000 A 
ATOM      2  C   UNL     1      -0.986  12.503  20.365  0.00  0.00    +0.000 A 
ATOM      3  C   UNL     1      -1.907  11.913  19.424  0.00  0.00    +0.000 A 
ATOM      4  C   UNL     1      -3.212  12.274  18.991  0.00  0.00    +0.000 A 
ATOM      5  C   UNL     1      -3.887  11.476  18.068  0.00  0.00    +0.000 A 
ATOM      6  C   UNL     1      -3.330  10.300  17.608  0.00  0.00    +0.000 A 
ATOM      7  C   UNL     1      -2.062   9.902  18.047  0.00  0.00    +0.000 A 
ATOM      8  C   UNL     1      -1.328  10.747  18.912  0.00  0.00    +0.000 A 
ATOM      9  N   UNL     1      -0.051  10.645  19.472  0.00  0.00    +0.000 N 
ENDROOT
BRANCH   2  10
ATOM     10  C   UNL     1      -1.313  13.692  21.171  0.00  0.00    +0.000 C 
ATOM     11  O   UNL     1      -1.706  13.540  22.330  0.00  0.00    +0.000 OA
ATOM     12  N   UNL     1      -1.039  14.972  20.688  0.00  0.00    +0.000 N 
ATOM     13  C   UNL     1      -1.199  16.120  21.583  0.00  0.00    +0.000 C 
ATOM     14  C   UNL     1      -0.057  17.134  21.362  0.00  0.00    +0.000 C 
ATOM     15  N   UNL     1       0.043  17.589  19.966  0.00  0.00    +0.000 NA
ATOM     16  C   UNL     1       0.198  16.434  19.074  0.00  0.00    +0.000 C 
ATOM     17  C   UNL     1      -0.872  15.367  19.297  0.00  0.00    +0.000 C 
ATOM     18  H   UNL     1       0.859  18.191  19.861  0.00  0.00    +0.000 HD
ENDBRANCH   2  10
BRANCH   9  19
ATOM     19  C   UNL     1       0.902   9.599  19.253  0.00  0.00    +0.000 A 
ATOM     20  C   UNL     1       1.179   8.656  20.248  0.00  0.00    +0.000 A 
ATOM     21  C   UNL     1       2.034   7.583  19.981  0.00  0.00    +0.000 A 
ATOM     22  C   UNL     1       2.608   7.439  18.720  0.00  0.00    +0.000 A 
ATOM     23  C   UNL     1       2.357   8.385  17.731  0.00  0.00    +0.000 A 
ATOM     24  C   UNL     1       1.519   9.468  17.998  0.00  0.00    +0.000 A 
ENDBRANCH   9  19
BRANCH   5  25
ATOM     25  O   UNL     1      -5.123  11.818  17.600  0.00  0.00    +0.000 OA
ATOM     26  H   UNL     1      -5.760  11.749  18.331  0.00  0.00    +0.000 HD
ENDBRANCH   5  25
BRANCH   1  27
ATOM     27  O   UNL     1       1.475  12.023  20.652  0.00  0.00    +0.000 OA
BRANCH  27  35
ATOM     28  C   UNL     1       2.547  12.671  18.025  0.00  0.00    +0.000 C 
ATOM     29  C   UNL     1       2.671  13.558  19.237  0.00  0.00    +0.000 A 
ATOM     30  C   UNL     1       3.414  14.742  19.116  0.00  0.00    +0.000 A 
ATOM     31  C   UNL     1       3.577  15.596  20.206  0.00  0.00    +0.000 A 
ATOM     32  C   UNL     1       2.962  15.282  21.418  0.00  0.00    +0.000 A 
ATOM     33  F   UNL     1       3.106  16.115  22.457  0.00  0.00    +0.000 F 
ATOM     34  C   UNL     1       2.233  14.121  21.567  0.00  0.00    +0.000 A 
ATOM     35  C   UNL     1       2.117  13.233  20.498  0.00  0.00    +0.000 A 
ENDBRANCH  27  35
ENDBRANCH   1  27
TORSDOF 5
ENDMDL
