MODEL 1
REMARK VINA RESULT:      -7.6      0.000      0.000
REMARK  Name = 
REMARK  5 active torsions:
REMARK  status: ('A' for Active; 'I' for Inactive)
REMARK    1  A    between atoms: C_1  and  C_2
REMARK    2  A    between atoms: N_4  and  C_5
REMARK    3  A    between atoms: N_8  and  C_9
REMARK    4  A    between atoms: N_12  and  C_13
REMARK    5  A    between atoms: N_12  and  C_14
REMARK                            x       y       z     vdW  Elec       q    Type
REMARK                         _______ _______ _______ _____ _____    ______ ____
ROOT
ATOM      1  C   UNL     1       4.323   5.452  18.015  0.00  0.00    +0.000 A 
ATOM      2  N   UNL     1       4.281   4.283  18.710  0.00  0.00    +0.000 NA
ATOM      3  C   UNL     1       3.452   4.144  19.763  0.00  0.00    +0.000 A 
ATOM      4  N   UNL     1       3.434   2.973  20.494  0.00  0.00    +0.000 N 
ATOM      5  C   UNL     1       2.490   2.812  21.587  0.00  0.00    +0.000 C 
ATOM      6  C   UNL     1       4.107   1.786  20.019  0.00  0.00    +0.000 C 
ATOM      7  N   UNL     1       2.647   5.134  20.160  0.00  0.00    +0.000 NA
ATOM      8  C   UNL     1       2.652   6.285  19.470  0.00  0.00    +0.000 A 
ATOM      9  C   UNL     1       3.452   6.489  18.356  0.00  0.00    +0.000 A 
ATOM     10  C   UNL     1       3.318   7.773  17.579  0.00  0.00    +0.000 C 
ATOM     11  C   UNL     1       2.087   8.611  17.888  0.00  0.00    +0.000 C 
ATOM     12  C   UNL     1       1.920   8.709  19.392  0.00  0.00    +0.000 C 
ATOM     13  C   UNL     1       1.661   7.314  19.951  0.00  0.00    +0.000 C 
ENDROOT
BRANCH   1  17
ATOM     14  C   UNL     1       7.052   4.450  15.053  0.00  0.00    +0.000 C 
ATOM     15  C   UNL     1       5.535   4.403  14.835  0.00  0.00    +0.000 C 
ATOM     16  C   UNL     1       4.837   5.564  15.543  0.00  0.00    +0.000 C 
ATOM     17  N   UNL     1       5.209   5.528  16.953  0.00  0.00    +0.000 N 
ATOM     18  C   UNL     1       6.616   5.832  17.185  0.00  0.00    +0.000 C 
ATOM     19  C   UNL     1       7.443   4.727  16.517  0.00  0.00    +0.000 C 
BRANCH  14  23
ATOM     20  C   UNL     1       8.279   6.274  11.972  0.00  0.00    +0.000 C 
ATOM     21  C   UNL     1       7.690   5.144  12.768  0.00  0.00    +0.000 C 
ATOM     22  O   UNL     1       7.267   4.122  12.249  0.00  0.00    +0.000 OA
ATOM     23  N   UNL     1       7.673   5.393  14.131  0.00  0.00    +0.000 N 
ATOM     24  H   UNL     1       7.806   6.351  14.433  0.00  0.00    +0.000 HD
ENDBRANCH  14  23
ENDBRANCH   1  17
TORSDOF 2
ENDMDL
MODEL 2
REMARK VINA RESULT:      -7.4      1.525      3.693
REMARK  Name = 
REMARK  5 active torsions:
REMARK  status: ('A' for Active; 'I' for Inactive)
REMARK    1  A    between atoms: C_1  and  C_2
REMARK    2  A    between atoms: N_4  and  C_5
REMARK    3  A    between atoms: N_8  and  C_9
REMARK    4  A    between atoms: N_12  and  C_13
REMARK    5  A    between atoms: N_12  and  C_14
REMARK                            x       y       z     vdW  Elec       q    Type
REMARK                         _______ _______ _______ _____ _____    ______ ____
ROOT
ATOM      1  C   UNL     1       3.558   5.635  18.057  0.00  0.00    +0.000 A 
ATOM      2  N   UNL     1       3.036   6.887  18.147  0.00  0.00    +0.000 NA
ATOM      3  C   UNL     1       2.278   7.237  19.205  0.00  0.00    +0.000 A 
ATOM      4  N   UNL     1       1.714   8.495  19.281  0.00  0.00    +0.000 N 
ATOM      5  C   UNL     1       0.953   8.881  20.456  0.00  0.00    +0.000 C 
ATOM      6  C   UNL     1       2.112   9.547  18.373  0.00  0.00    +0.000 C 
ATOM      7  N   UNL     1       2.013   6.380  20.194  0.00  0.00    +0.000 NA
ATOM      8  C   UNL     1       2.543   5.148  20.139  0.00  0.00    +0.000 A 
ATOM      9  C   UNL     1       3.360   4.727  19.100  0.00  0.00    +0.000 A 
ATOM     10  C   UNL     1       3.997   3.364  19.170  0.00  0.00    +0.000 C 
ATOM     11  C   UNL     1       3.953   2.679  20.528  0.00  0.00    +0.000 C 
ATOM     12  C   UNL     1       2.553   2.803  21.098  0.00  0.00    +0.000 C 
ATOM     13  C   UNL     1       2.247   4.278  21.334  0.00  0.00    +0.000 C 
ENDROOT
BRANCH   1  17
ATOM     14  C   UNL     1       6.725   4.639  15.566  0.00  0.00    +0.000 C 
ATOM     15  C   UNL     1       5.827   3.587  16.231  0.00  0.00    +0.000 C 
ATOM     16  C   UNL     1       4.370   4.045  16.267  0.00  0.00    +0.000 C 
ATOM     17  N   UNL     1       4.316   5.341  16.935  0.00  0.00    +0.000 N 
ATOM     18  C   UNL     1       4.951   6.409  16.172  0.00  0.00    +0.000 C 
ATOM     19  C   UNL     1       6.442   6.071  16.058  0.00  0.00    +0.000 C 
BRANCH  14  23
ATOM     20  C   UNL     1       7.434   4.790  11.850  0.00  0.00    +0.000 C 
ATOM     21  C   UNL     1       7.629   5.090  13.310  0.00  0.00    +0.000 C 
ATOM     22  O   UNL     1       8.569   5.749  13.727  0.00  0.00    +0.000 OA
ATOM     23  N   UNL     1       6.648   4.532  14.113  0.00  0.00    +0.000 N 
ATOM     24  H   UNL     1       6.070   3.805  13.710  0.00  0.00    +0.000 HD
ENDBRANCH  14  23
ENDBRANCH   1  17
TORSDOF 2
ENDMDL
MODEL 3
REMARK VINA RESULT:      -7.4      1.325      3.611
REMARK  Name = 
REMARK  5 active torsions:
REMARK  status: ('A' for Active; 'I' for Inactive)
REMARK    1  A    between atoms: C_1  and  C_2
REMARK    2  A    between atoms: N_4  and  C_5
REMARK    3  A    between atoms: N_8  and  C_9
REMARK    4  A    between atoms: N_12  and  C_13
REMARK    5  A    between atoms: N_12  and  C_14
REMARK                            x       y       z     vdW  Elec       q    Type
REMARK                         _______ _______ _______ _____ _____    ______ ____
ROOT
ATOM      1  C   UNL     1       3.837   5.800  18.543  0.00  0.00    +0.000 A 
ATOM      2  N   UNL     1       3.212   7.000  18.681  0.00  0.00    +0.000 NA
ATOM      3  C   UNL     1       2.252   7.167  19.612  0.00  0.00    +0.000 A 
ATOM      4  N   UNL     1       1.589   8.372  19.730  0.00  0.00    +0.000 N 
ATOM      5  C   UNL     1       0.602   8.559  20.780  0.00  0.00    +0.000 C 
ATOM      6  C   UNL     1       2.059   9.553  19.044  0.00  0.00    +0.000 C 
ATOM      7  N   UNL     1       1.883   6.175  20.427  0.00  0.00    +0.000 NA
ATOM      8  C   UNL     1       2.508   4.992  20.327  0.00  0.00    +0.000 A 
ATOM      9  C   UNL     1       3.528   4.755  19.417  0.00  0.00    +0.000 A 
ATOM     10  C   UNL     1       4.246   3.431  19.443  0.00  0.00    +0.000 C 
ATOM     11  C   UNL     1       4.013   2.574  20.678  0.00  0.00    +0.000 C 
ATOM     12  C   UNL     1       2.529   2.546  20.987  0.00  0.00    +0.000 C 
ATOM     13  C   UNL     1       2.072   3.958  21.334  0.00  0.00    +0.000 C 
ENDROOT
BRANCH   1  17
ATOM     14  C   UNL     1       6.922   4.388  16.152  0.00  0.00    +0.000 C 
ATOM     15  C   UNL     1       5.445   4.085  15.869  0.00  0.00    +0.000 C 
ATOM     16  C   UNL     1       4.562   5.294  16.175  0.00  0.00    +0.000 C 
ATOM     17  N   UNL     1       4.804   5.697  17.556  0.00  0.00    +0.000 N 
ATOM     18  C   UNL     1       6.142   6.234  17.773  0.00  0.00    +0.000 C 
ATOM     19  C   UNL     1       7.143   5.107  17.496  0.00  0.00    +0.000 C 
BRANCH  14  23
ATOM     20  C   UNL     1       7.898   5.645  12.717  0.00  0.00    +0.000 C 
ATOM     21  C   UNL     1       7.288   4.717  13.729  0.00  0.00    +0.000 C 
ATOM     22  O   UNL     1       6.649   3.726  13.413  0.00  0.00    +0.000 OA
ATOM     23  N   UNL     1       7.518   5.114  15.036  0.00  0.00    +0.000 N 
ATOM     24  H   UNL     1       7.830   6.066  15.189  0.00  0.00    +0.000 HD
ENDBRANCH  14  23
ENDBRANCH   1  17
TORSDOF 2
ENDMDL
MODEL 4
REMARK VINA RESULT:      -7.1      3.536      7.049
REMARK  Name = 
REMARK  5 active torsions:
REMARK  status: ('A' for Active; 'I' for Inactive)
REMARK    1  A    between atoms: C_1  and  C_2
REMARK    2  A    between atoms: N_4  and  C_5
REMARK    3  A    between atoms: N_8  and  C_9
REMARK    4  A    between atoms: N_12  and  C_13
REMARK    5  A    between atoms: N_12  and  C_14
REMARK                            x       y       z     vdW  Elec       q    Type
REMARK                         _______ _______ _______ _____ _____    ______ ____
ROOT
ATOM      1  C   UNL     1       2.973   6.302  19.196  0.00  0.00    +0.000 A 
ATOM      2  N   UNL     1       4.166   6.497  18.573  0.00  0.00    +0.000 NA
ATOM      3  C   UNL     1       5.108   5.532  18.584  0.00  0.00    +0.000 A 
ATOM      4  N   UNL     1       6.335   5.740  17.986  0.00  0.00    +0.000 N 
ATOM      5  C   UNL     1       7.316   4.669  17.948  0.00  0.00    +0.000 C 
ATOM      6  C   UNL     1       6.563   6.879  17.127  0.00  0.00    +0.000 C 
ATOM      7  N   UNL     1       4.908   4.361  19.196  0.00  0.00    +0.000 NA
ATOM      8  C   UNL     1       3.727   4.139  19.792  0.00  0.00    +0.000 A 
ATOM      9  C   UNL     1       2.698   5.069  19.793  0.00  0.00    +0.000 A 
ATOM     10  C   UNL     1       1.368   4.697  20.394  0.00  0.00    +0.000 C 
ATOM     11  C   UNL     1       1.154   3.215  20.665  0.00  0.00    +0.000 C 
ATOM     12  C   UNL     1       2.387   2.654  21.347  0.00  0.00    +0.000 C 
ATOM     13  C   UNL     1       3.570   2.765  20.393  0.00  0.00    +0.000 C 
ENDROOT
BRANCH   1  17
ATOM     14  C   UNL     1       1.268  10.084  19.316  0.00  0.00    +0.000 C 
ATOM     15  C   UNL     1       1.854   9.477  18.035  0.00  0.00    +0.000 C 
ATOM     16  C   UNL     1       1.556   7.980  17.945  0.00  0.00    +0.000 C 
ATOM     17  N   UNL     1       2.059   7.342  19.157  0.00  0.00    +0.000 N 
ATOM     18  C   UNL     1       1.325   7.726  20.357  0.00  0.00    +0.000 C 
ATOM     19  C   UNL     1       1.540   9.229  20.569  0.00  0.00    +0.000 C 
BRANCH  14  23
ATOM     20  C   UNL     1      -2.062  11.693  18.509  0.00  0.00    +0.000 C 
ATOM     21  C   UNL     1      -0.577  11.620  18.726  0.00  0.00    +0.000 C 
ATOM     22  O   UNL     1       0.164  12.572  18.539  0.00  0.00    +0.000 OA
ATOM     23  N   UNL     1      -0.152  10.369  19.145  0.00  0.00    +0.000 N 
ATOM     24  H   UNL     1      -0.792   9.593  19.026  0.00  0.00    +0.000 HD
ENDBRANCH  14  23
ENDBRANCH   1  17
TORSDOF 2
ENDMDL
MODEL 5
REMARK VINA RESULT:      -7.1      3.580      6.983
REMARK  Name = 
REMARK  5 active torsions:
REMARK  status: ('A' for Active; 'I' for Inactive)
REMARK    1  A    between atoms: C_1  and  C_2
REMARK    2  A    between atoms: N_4  and  C_5
REMARK    3  A    between atoms: N_8  and  C_9
REMARK    4  A    between atoms: N_12  and  C_13
REMARK    5  A    between atoms: N_12  and  C_14
REMARK                            x       y       z     vdW  Elec       q    Type
REMARK                         _______ _______ _______ _____ _____    ______ ____
ROOT
ATOM      1  C   UNL     1       3.165   5.931  18.611  0.00  0.00    +0.000 A 
ATOM      2  N   UNL     1       4.449   6.272  18.319  0.00  0.00    +0.000 NA
ATOM      3  C   UNL     1       5.389   5.319  18.158  0.00  0.00    +0.000 A 
ATOM      4  N   UNL     1       6.701   5.662  17.899  0.00  0.00    +0.000 N 
ATOM      5  C   UNL     1       7.691   4.625  17.665  0.00  0.00    +0.000 C 
ATOM      6  C   UNL     1       7.063   7.016  17.549  0.00  0.00    +0.000 C 
ATOM      7  N   UNL     1       5.100   4.020  18.276  0.00  0.00    +0.000 NA
ATOM      8  C   UNL     1       3.834   3.662  18.536  0.00  0.00    +0.000 A 
ATOM      9  C   UNL     1       2.807   4.583  18.680  0.00  0.00    +0.000 A 
ATOM     10  C   UNL     1       1.395   4.089  18.865  0.00  0.00    +0.000 C 
ATOM     11  C   UNL     1       1.161   2.618  18.558  0.00  0.00    +0.000 C 
ATOM     12  C   UNL     1       2.257   1.797  19.208  0.00  0.00    +0.000 C 
ATOM     13  C   UNL     1       3.594   2.174  18.580  0.00  0.00    +0.000 C 
ENDROOT
BRANCH   1  17
ATOM     14  C   UNL     1       1.486   9.641  19.412  0.00  0.00    +0.000 C 
ATOM     15  C   UNL     1       2.022   9.253  18.028  0.00  0.00    +0.000 C 
ATOM     16  C   UNL     1       1.713   7.791  17.705  0.00  0.00    +0.000 C 
ATOM     17  N   UNL     1       2.255   6.963  18.776  0.00  0.00    +0.000 N 
ATOM     18  C   UNL     1       1.568   7.145  20.050  0.00  0.00    +0.000 C 
ATOM     19  C   UNL     1       1.799   8.593  20.496  0.00  0.00    +0.000 C 
BRANCH  14  23
ATOM     20  C   UNL     1      -1.863  11.333  18.913  0.00  0.00    +0.000 C 
ATOM     21  C   UNL     1      -0.370  11.232  19.041  0.00  0.00    +0.000 C 
ATOM     22  O   UNL     1       0.372  12.190  18.883  0.00  0.00    +0.000 OA
ATOM     23  N   UNL     1       0.063   9.950  19.342  0.00  0.00    +0.000 N 
ATOM     24  H   UNL     1      -0.592   9.190  19.202  0.00  0.00    +0.000 HD
ENDBRANCH  14  23
ENDBRANCH   1  17
TORSDOF 2
ENDMDL
MODEL 6
REMARK VINA RESULT:      -7.0      3.645      7.266
REMARK  Name = 
REMARK  5 active torsions:
REMARK  status: ('A' for Active; 'I' for Inactive)
REMARK    1  A    between atoms: C_1  and  C_2
REMARK    2  A    between atoms: N_4  and  C_5
REMARK    3  A    between atoms: N_8  and  C_9
REMARK    4  A    between atoms: N_12  and  C_13
REMARK    5  A    between atoms: N_12  and  C_14
REMARK                            x       y       z     vdW  Elec       q    Type
REMARK                         _______ _______ _______ _____ _____    ______ ____
ROOT
ATOM      1  C   UNL     1       2.904   6.277  18.643  0.00  0.00    +0.000 A 
ATOM      2  N   UNL     1       3.783   6.214  17.607  0.00  0.00    +0.000 NA
ATOM      3  C   UNL     1       4.284   5.027  17.209  0.00  0.00    +0.000 A 
ATOM      4  N   UNL     1       5.206   4.962  16.183  0.00  0.00    +0.000 N 
ATOM      5  C   UNL     1       5.689   3.673  15.720  0.00  0.00    +0.000 C 
ATOM      6  C   UNL     1       5.475   6.110  15.348  0.00  0.00    +0.000 C 
ATOM      7  N   UNL     1       3.941   3.883  17.806  0.00  0.00    +0.000 NA
ATOM      8  C   UNL     1       3.053   3.921  18.811  0.00  0.00    +0.000 A 
ATOM      9  C   UNL     1       2.469   5.099  19.253  0.00  0.00    +0.000 A 
ATOM     10  C   UNL     1       1.403   5.039  20.317  0.00  0.00    +0.000 C 
ATOM     11  C   UNL     1       0.820   3.661  20.595  0.00  0.00    +0.000 C 
ATOM     12  C   UNL     1       1.952   2.660  20.712  0.00  0.00    +0.000 C 
ATOM     13  C   UNL     1       2.675   2.574  19.373  0.00  0.00    +0.000 C 
ENDROOT
BRANCH   1  17
ATOM     14  C   UNL     1       0.432   9.534  19.355  0.00  0.00    +0.000 C 
ATOM     15  C   UNL     1       0.672   8.431  20.393  0.00  0.00    +0.000 C 
ATOM     16  C   UNL     1       2.124   7.953  20.368  0.00  0.00    +0.000 C 
ATOM     17  N   UNL     1       2.441   7.531  19.008  0.00  0.00    +0.000 N 
ATOM     18  C   UNL     1       2.468   8.634  18.054  0.00  0.00    +0.000 C 
ATOM     19  C   UNL     1       1.051   9.215  17.981  0.00  0.00    +0.000 C 
BRANCH  14  23
ATOM     20  C   UNL     1       0.642  12.909  21.057  0.00  0.00    +0.000 C 
ATOM     21  C   UNL     1      -0.016  11.676  20.506  0.00  0.00    +0.000 C 
ATOM     22  O   UNL     1      -1.212  11.457  20.626  0.00  0.00    +0.000 OA
ATOM     23  N   UNL     1       0.873  10.825  19.869  0.00  0.00    +0.000 N 
ATOM     24  H   UNL     1       1.861  10.966  20.042  0.00  0.00    +0.000 HD
ENDBRANCH  14  23
ENDBRANCH   1  17
TORSDOF 2
ENDMDL
MODEL 7
REMARK VINA RESULT:      -6.8      3.758      6.978
REMARK  Name = 
REMARK  5 active torsions:
REMARK  status: ('A' for Active; 'I' for Inactive)
REMARK    1  A    between atoms: C_1  and  C_2
REMARK    2  A    between atoms: N_4  and  C_5
REMARK    3  A    between atoms: N_8  and  C_9
REMARK    4  A    between atoms: N_12  and  C_13
REMARK    5  A    between atoms: N_12  and  C_14
REMARK                            x       y       z     vdW  Elec       q    Type
REMARK                         _______ _______ _______ _____ _____    ______ ____
ROOT
ATOM      1  C   UNL     1       2.644   6.410  18.568  0.00  0.00    +0.000 A 
ATOM      2  N   UNL     1       1.979   5.378  19.153  0.00  0.00    +0.000 NA
ATOM      3  C   UNL     1       2.275   4.104  18.827  0.00  0.00    +0.000 A 
ATOM      4  N   UNL     1       1.576   3.054  19.390  0.00  0.00    +0.000 N 
ATOM      5  C   UNL     1       1.947   1.684  19.080  0.00  0.00    +0.000 C 
ATOM      6  C   UNL     1       0.691   3.264  20.513  0.00  0.00    +0.000 C 
ATOM      7  N   UNL     1       3.220   3.808  17.931  0.00  0.00    +0.000 NA
ATOM      8  C   UNL     1       3.908   4.811  17.364  0.00  0.00    +0.000 A 
ATOM      9  C   UNL     1       3.684   6.145  17.674  0.00  0.00    +0.000 A 
ATOM     10  C   UNL     1       4.572   7.201  17.069  0.00  0.00    +0.000 C 
ATOM     11  C   UNL     1       5.851   6.698  16.417  0.00  0.00    +0.000 C 
ATOM     12  C   UNL     1       5.523   5.505  15.540  0.00  0.00    +0.000 C 
ATOM     13  C   UNL     1       5.000   4.376  16.421  0.00  0.00    +0.000 C 
ENDROOT
BRANCH   1  17
ATOM     14  C   UNL     1       0.414   9.813  19.388  0.00  0.00    +0.000 C 
ATOM     15  C   UNL     1       0.664   8.713  20.427  0.00  0.00    +0.000 C 
ATOM     16  C   UNL     1       2.081   8.153  20.311  0.00  0.00    +0.000 C 
ATOM     17  N   UNL     1       2.279   7.694  18.940  0.00  0.00    +0.000 N 
ATOM     18  C   UNL     1       2.300   8.780  17.967  0.00  0.00    +0.000 C 
ATOM     19  C   UNL     1       0.916   9.439  17.981  0.00  0.00    +0.000 C 
BRANCH  14  23
ATOM     20  C   UNL     1       0.929  13.197  21.004  0.00  0.00    +0.000 C 
ATOM     21  C   UNL     1       0.166  11.996  20.522  0.00  0.00    +0.000 C 
ATOM     22  O   UNL     1      -1.030  11.850  20.724  0.00  0.00    +0.000 OA
ATOM     23  N   UNL     1       0.962  11.084  19.847  0.00  0.00    +0.000 N 
ATOM     24  H   UNL     1       1.965  11.170  19.953  0.00  0.00    +0.000 HD
ENDBRANCH  14  23
ENDBRANCH   1  17
TORSDOF 2
ENDMDL
MODEL 8
REMARK VINA RESULT:      -6.8      3.393      6.362
REMARK  Name = 
REMARK  5 active torsions:
REMARK  status: ('A' for Active; 'I' for Inactive)
REMARK    1  A    between atoms: C_1  and  C_2
REMARK    2  A    between atoms: N_4  and  C_5
REMARK    3  A    between atoms: N_8  and  C_9
REMARK    4  A    between atoms: N_12  and  C_13
REMARK    5  A    between atoms: N_12  and  C_14
REMARK                            x       y       z     vdW  Elec       q    Type
REMARK                         _______ _______ _______ _____ _____    ______ ____
ROOT
ATOM      1  C   UNL     1       3.488   5.756  18.918  0.00  0.00    +0.000 A 
ATOM      2  N   UNL     1       3.219   4.664  19.683  0.00  0.00    +0.000 NA
ATOM      3  C   UNL     1       4.114   3.661  19.781  0.00  0.00    +0.000 A 
ATOM      4  N   UNL     1       3.829   2.534  20.525  0.00  0.00    +0.000 N 
ATOM      5  C   UNL     1       4.828   1.489  20.675  0.00  0.00    +0.000 C 
ATOM      6  C   UNL     1       2.690   2.494  21.413  0.00  0.00    +0.000 C 
ATOM      7  N   UNL     1       5.286   3.700  19.141  0.00  0.00    +0.000 NA
ATOM      8  C   UNL     1       5.583   4.782  18.404  0.00  0.00    +0.000 A 
ATOM      9  C   UNL     1       4.727   5.867  18.284  0.00  0.00    +0.000 A 
ATOM     10  C   UNL     1       5.184   7.084  17.523  0.00  0.00    +0.000 C 
ATOM     11  C   UNL     1       6.672   7.157  17.218  0.00  0.00    +0.000 C 
ATOM     12  C   UNL     1       7.134   5.813  16.687  0.00  0.00    +0.000 C 
ATOM     13  C   UNL     1       6.955   4.765  17.779  0.00  0.00    +0.000 C 
ENDROOT
BRANCH   1  17
ATOM     14  C   UNL     1       1.544   9.420  19.078  0.00  0.00    +0.000 C 
ATOM     15  C   UNL     1       2.268   8.917  17.823  0.00  0.00    +0.000 C 
ATOM     16  C   UNL     1       2.073   7.412  17.636  0.00  0.00    +0.000 C 
ATOM     17  N   UNL     1       2.516   6.741  18.853  0.00  0.00    +0.000 N 
ATOM     18  C   UNL     1       1.665   7.017  20.005  0.00  0.00    +0.000 C 
ATOM     19  C   UNL     1       1.769   8.517  20.306  0.00  0.00    +0.000 C 
BRANCH  14  23
ATOM     20  C   UNL     1      -1.834  10.922  18.269  0.00  0.00    +0.000 C 
ATOM     21  C   UNL     1      -0.381  10.910  18.649  0.00  0.00    +0.000 C 
ATOM     22  O   UNL     1       0.272  11.932  18.792  0.00  0.00    +0.000 OA
ATOM     23  N   UNL     1       0.128   9.630  18.803  0.00  0.00    +0.000 N 
ATOM     24  H   UNL     1      -0.411   8.863  18.420  0.00  0.00    +0.000 HD
ENDBRANCH  14  23
ENDBRANCH   1  17
TORSDOF 2
ENDMDL
MODEL 9
REMARK VINA RESULT:      -6.7      0.937      1.011
REMARK  Name = 
REMARK  5 active torsions:
REMARK  status: ('A' for Active; 'I' for Inactive)
REMARK    1  A    between atoms: C_1  and  C_2
REMARK    2  A    between atoms: N_4  and  C_5
REMARK    3  A    between atoms: N_8  and  C_9
REMARK    4  A    between atoms: N_12  and  C_13
REMARK    5  A    between atoms: N_12  and  C_14
REMARK                            x       y       z     vdW  Elec       q    Type
REMARK                         _______ _______ _______ _____ _____    ______ ____
ROOT
ATOM      1  C   UNL     1       3.818   5.441  17.956  0.00  0.00    +0.000 A 
ATOM      2  N   UNL     1       3.766   4.331  18.740  0.00  0.00    +0.000 NA
ATOM      3  C   UNL     1       3.068   4.342  19.894  0.00  0.00    +0.000 A 
ATOM      4  N   UNL     1       3.044   3.229  20.711  0.00  0.00    +0.000 N 
ATOM      5  C   UNL     1       2.237   3.231  21.919  0.00  0.00    +0.000 C 
ATOM      6  C   UNL     1       3.548   1.955  20.252  0.00  0.00    +0.000 C 
ATOM      7  N   UNL     1       2.407   5.427  20.306  0.00  0.00    +0.000 NA
ATOM      8  C   UNL     1       2.422   6.523  19.533  0.00  0.00    +0.000 A 
ATOM      9  C   UNL     1       3.088   6.577  18.317  0.00  0.00    +0.000 A 
ATOM     10  C   UNL     1       2.966   7.812  17.464  0.00  0.00    +0.000 C 
ATOM     11  C   UNL     1       1.859   8.780  17.853  0.00  0.00    +0.000 C 
ATOM     12  C   UNL     1       1.894   8.994  19.353  0.00  0.00    +0.000 C 
ATOM     13  C   UNL     1       1.590   7.671  20.047  0.00  0.00    +0.000 C 
ENDROOT
BRANCH   1  17
ATOM     14  C   UNL     1       6.955   4.911  15.291  0.00  0.00    +0.000 C 
ATOM     15  C   UNL     1       6.045   3.761  15.744  0.00  0.00    +0.000 C 
ATOM     16  C   UNL     1       4.595   4.224  15.882  0.00  0.00    +0.000 C 
ATOM     17  N   UNL     1       4.565   5.363  16.792  0.00  0.00    +0.000 N 
ATOM     18  C   UNL     1       5.212   6.552  16.249  0.00  0.00    +0.000 C 
ATOM     19  C   UNL     1       6.698   6.222  16.059  0.00  0.00    +0.000 C 
BRANCH  14  23
ATOM     20  C   UNL     1       7.707   5.601  11.646  0.00  0.00    +0.000 C 
ATOM     21  C   UNL     1       7.949   5.579  13.129  0.00  0.00    +0.000 C 
ATOM     22  O   UNL     1       9.001   5.945  13.630  0.00  0.00    +0.000 OA
ATOM     23  N   UNL     1       6.868   5.093  13.847  0.00  0.00    +0.000 N 
ATOM     24  H   UNL     1       6.156   4.586  13.336  0.00  0.00    +0.000 HD
ENDBRANCH  14  23
ENDBRANCH   1  17
TORSDOF 2
ENDMDL
