MODEL 1
REMARK VINA RESULT:      -8.0      0.000      0.000
REMARK  Name = 
REMARK  5 active torsions:
REMARK  status: ('A' for Active; 'I' for Inactive)
REMARK    1  A    between atoms: C_1  and  C_2
REMARK    2  A    between atoms: C_5  and  C_6
REMARK    3  A    between atoms: C_6  and  N_7
REMARK    4  A    between atoms: N_7  and  C_8
REMARK    5  A    between atoms: N_16  and  C_17
REMARK                            x       y       z     vdW  Elec       q    Type
REMARK                         _______ _______ _______ _____ _____    ______ ____
ROOT
ATOM      1  C   UNL     1       3.596   5.058  18.425  0.00  0.00    +0.000 A 
ATOM      2  N   UNL     1       3.320   4.167  19.402  0.00  0.00    +0.000 NA
ATOM      3  C   UNL     1       2.516   4.552  20.413  0.00  0.00    +0.000 A 
ATOM      4  N   UNL     1       1.947   5.752  20.608  0.00  0.00    +0.000 NA
ATOM      5  C   UNL     1       2.242   6.622  19.618  0.00  0.00    +0.000 A 
ATOM      6  C   UNL     1       3.018   6.329  18.511  0.00  0.00    +0.000 A 
ATOM      7  C   UNL     1       3.026   7.508  17.753  0.00  0.00    +0.000 A 
ATOM      8  N   UNL     1       2.307   8.486  18.304  0.00  0.00    +0.000 NA
ATOM      9  N   UNL     1       1.861   7.957  19.486  0.00  0.00    +0.000 N 
ENDROOT
BRANCH   9  10
ATOM     10  C   UNL     1       1.119   8.782  20.388  0.00  0.00    +0.000 A 
ATOM     11  C   UNL     1       0.254   9.761  19.869  0.00  0.00    +0.000 A 
ATOM     12  C   UNL     1      -0.491  10.577  20.726  0.00  0.00    +0.000 A 
ATOM     13  C   UNL     1      -0.367  10.429  22.104  0.00  0.00    +0.000 A 
ATOM     14 CL   UNL     1      -1.284  11.429  23.161  0.00  0.00    +0.000 Cl
ATOM     15  C   UNL     1       0.497   9.473  22.632  0.00  0.00    +0.000 A 
ATOM     16  C   UNL     1       1.238   8.649  21.778  0.00  0.00    +0.000 A 
ENDBRANCH   9  10
BRANCH   1  17
ATOM     17  N   UNL     1       4.453   4.745  17.374  0.00  0.00    +0.000 N 
ATOM     18  H   UNL     1       4.033   4.027  16.792  0.00  0.00    +0.000 HD
BRANCH  17  19
ATOM     19  C   UNL     1       5.811   4.378  17.756  0.00  0.00    +0.000 C 
BRANCH  19  24
ATOM     20  C   UNL     1       8.848   9.328  18.348  0.00  0.00    +0.000 C 
ATOM     21  C   UNL     1       8.074   8.054  18.186  0.00  0.00    +0.000 A 
ATOM     22  C   UNL     1       7.121   7.917  17.174  0.00  0.00    +0.000 A 
ATOM     23  C   UNL     1       6.402   6.728  17.039  0.00  0.00    +0.000 A 
ATOM     24  C   UNL     1       6.620   5.649  17.910  0.00  0.00    +0.000 A 
ATOM     25  C   UNL     1       7.572   5.790  18.925  0.00  0.00    +0.000 A 
ATOM     26  C   UNL     1       8.291   6.982  19.062  0.00  0.00    +0.000 A 
ENDBRANCH  19  24
ENDBRANCH  17  19
ENDBRANCH   1  17
TORSDOF 4
ENDMDL
MODEL 2
REMARK VINA RESULT:      -7.9      3.590      6.152
REMARK  Name = 
REMARK  5 active torsions:
REMARK  status: ('A' for Active; 'I' for Inactive)
REMARK    1  A    between atoms: C_1  and  C_2
REMARK    2  A    between atoms: C_5  and  C_6
REMARK    3  A    between atoms: C_6  and  N_7
REMARK    4  A    between atoms: N_7  and  C_8
REMARK    5  A    between atoms: N_16  and  C_17
REMARK                            x       y       z     vdW  Elec       q    Type
REMARK                         _______ _______ _______ _____ _____    ______ ____
ROOT
ATOM      1  C   UNL     1       1.167   9.083  20.508  0.00  0.00    +0.000 A 
ATOM      2  N   UNL     1       1.098   9.731  19.325  0.00  0.00    +0.000 NA
ATOM      3  C   UNL     1       0.439  10.905  19.275  0.00  0.00    +0.000 A 
ATOM      4  N   UNL     1      -0.207  11.536  20.268  0.00  0.00    +0.000 NA
ATOM      5  C   UNL     1      -0.124  10.865  21.436  0.00  0.00    +0.000 A 
ATOM      6  C   UNL     1       0.559   9.676  21.621  0.00  0.00    +0.000 A 
ATOM      7  C   UNL     1       0.398   9.372  22.979  0.00  0.00    +0.000 A 
ATOM      8  N   UNL     1      -0.317  10.286  23.635  0.00  0.00    +0.000 NA
ATOM      9  N   UNL     1      -0.685  11.188  22.672  0.00  0.00    +0.000 N 
ENDROOT
BRANCH   9  10
ATOM     10  C   UNL     1      -1.551  12.271  23.018  0.00  0.00    +0.000 A 
ATOM     11  C   UNL     1      -2.885  11.999  23.368  0.00  0.00    +0.000 A 
ATOM     12  C   UNL     1      -3.754  13.037  23.719  0.00  0.00    +0.000 A 
ATOM     13  C   UNL     1      -3.299  14.352  23.712  0.00  0.00    +0.000 A 
ATOM     14 CL   UNL     1      -4.364  15.631  24.146  0.00  0.00    +0.000 Cl
ATOM     15  C   UNL     1      -1.984  14.638  23.354  0.00  0.00    +0.000 A 
ATOM     16  C   UNL     1      -1.110  13.601  23.009  0.00  0.00    +0.000 A 
ENDBRANCH   9  10
BRANCH   1  17
ATOM     17  N   UNL     1       1.793   7.845  20.626  0.00  0.00    +0.000 N 
ATOM     18  H   UNL     1       2.448   7.865  21.402  0.00  0.00    +0.000 HD
BRANCH  17  19
ATOM     19  C   UNL     1       2.432   7.343  19.416  0.00  0.00    +0.000 C 
BRANCH  19  24
ATOM     20  C   UNL     1       0.944   1.727  18.850  0.00  0.00    +0.000 C 
ATOM     21  C   UNL     1       1.336   3.167  19.002  0.00  0.00    +0.000 A 
ATOM     22  C   UNL     1       1.212   3.818  20.231  0.00  0.00    +0.000 A 
ATOM     23  C   UNL     1       1.574   5.161  20.357  0.00  0.00    +0.000 A 
ATOM     24  C   UNL     1       2.068   5.881  19.259  0.00  0.00    +0.000 A 
ATOM     25  C   UNL     1       2.186   5.228  18.027  0.00  0.00    +0.000 A 
ATOM     26  C   UNL     1       1.821   3.884  17.901  0.00  0.00    +0.000 A 
ENDBRANCH  19  24
ENDBRANCH  17  19
ENDBRANCH   1  17
TORSDOF 4
ENDMDL
MODEL 3
REMARK VINA RESULT:      -7.9      3.610      6.109
REMARK  Name = 
REMARK  5 active torsions:
REMARK  status: ('A' for Active; 'I' for Inactive)
REMARK    1  A    between atoms: C_1  and  C_2
REMARK    2  A    between atoms: C_5  and  C_6
REMARK    3  A    between atoms: C_6  and  N_7
REMARK    4  A    between atoms: N_7  and  C_8
REMARK    5  A    between atoms: N_16  and  C_17
REMARK                            x       y       z     vdW  Elec       q    Type
REMARK                         _______ _______ _______ _____ _____    ______ ____
ROOT
ATOM      1  C   UNL     1       1.153   9.105  20.513  0.00  0.00    +0.000 A 
ATOM      2  N   UNL     1       1.077   9.745  19.326  0.00  0.00    +0.000 NA
ATOM      3  C   UNL     1       0.405  10.912  19.268  0.00  0.00    +0.000 A 
ATOM      4  N   UNL     1      -0.247  11.542  20.258  0.00  0.00    +0.000 NA
ATOM      5  C   UNL     1      -0.157  10.880  21.430  0.00  0.00    +0.000 A 
ATOM      6  C   UNL     1       0.539   9.699  21.622  0.00  0.00    +0.000 A 
ATOM      7  C   UNL     1       0.381   9.402  22.982  0.00  0.00    +0.000 A 
ATOM      8  N   UNL     1      -0.343  10.313  23.632  0.00  0.00    +0.000 NA
ATOM      9  N   UNL     1      -0.721  11.204  22.664  0.00  0.00    +0.000 N 
ENDROOT
BRANCH   9  10
ATOM     10  C   UNL     1      -1.598  12.280  23.004  0.00  0.00    +0.000 A 
ATOM     11  C   UNL     1      -1.079  13.582  23.111  0.00  0.00    +0.000 A 
ATOM     12  C   UNL     1      -1.913  14.656  23.435  0.00  0.00    +0.000 A 
ATOM     13  C   UNL     1      -3.267  14.436  23.665  0.00  0.00    +0.000 A 
ATOM     14 CL   UNL     1      -4.297  15.755  24.061  0.00  0.00    +0.000 Cl
ATOM     15  C   UNL     1      -3.793  13.149  23.577  0.00  0.00    +0.000 A 
ATOM     16  C   UNL     1      -2.963  12.073  23.246  0.00  0.00    +0.000 A 
ENDBRANCH   9  10
BRANCH   1  17
ATOM     17  N   UNL     1       1.792   7.875  20.639  0.00  0.00    +0.000 N 
ATOM     18  H   UNL     1       2.464   7.915  21.399  0.00  0.00    +0.000 HD
BRANCH  17  19
ATOM     19  C   UNL     1       2.408   7.357  19.424  0.00  0.00    +0.000 C 
BRANCH  19  24
ATOM     20  C   UNL     1       1.025   1.717  18.837  0.00  0.00    +0.000 C 
ATOM     21  C   UNL     1       1.371   3.169  18.982  0.00  0.00    +0.000 A 
ATOM     22  C   UNL     1       1.832   3.908  17.890  0.00  0.00    +0.000 A 
ATOM     23  C   UNL     1       2.157   5.258  18.041  0.00  0.00    +0.000 A 
ATOM     24  C   UNL     1       2.027   5.898  19.282  0.00  0.00    +0.000 A 
ATOM     25  C   UNL     1       1.569   5.155  20.375  0.00  0.00    +0.000 A 
ATOM     26  C   UNL     1       1.246   3.802  20.225  0.00  0.00    +0.000 A 
ENDBRANCH  19  24
ENDBRANCH  17  19
ENDBRANCH   1  17
TORSDOF 4
ENDMDL
MODEL 4
REMARK VINA RESULT:      -7.9      0.291      1.393
REMARK  Name = 
REMARK  5 active torsions:
REMARK  status: ('A' for Active; 'I' for Inactive)
REMARK    1  A    between atoms: C_1  and  C_2
REMARK    2  A    between atoms: C_5  and  C_6
REMARK    3  A    between atoms: C_6  and  N_7
REMARK    4  A    between atoms: N_7  and  C_8
REMARK    5  A    between atoms: N_16  and  C_17
REMARK                            x       y       z     vdW  Elec       q    Type
REMARK                         _______ _______ _______ _____ _____    ______ ____
ROOT
ATOM      1  C   UNL     1       3.759   5.237  18.170  0.00  0.00    +0.000 A 
ATOM      2  N   UNL     1       3.464   4.288  19.083  0.00  0.00    +0.000 NA
ATOM      3  C   UNL     1       2.615   4.600  20.082  0.00  0.00    +0.000 A 
ATOM      4  N   UNL     1       2.016   5.777  20.323  0.00  0.00    +0.000 NA
ATOM      5  C   UNL     1       2.331   6.707  19.397  0.00  0.00    +0.000 A 
ATOM      6  C   UNL     1       3.154   6.492  18.305  0.00  0.00    +0.000 A 
ATOM      7  C   UNL     1       3.168   7.712  17.616  0.00  0.00    +0.000 A 
ATOM      8  N   UNL     1       2.411   8.644  18.194  0.00  0.00    +0.000 NA
ATOM      9  N   UNL     1       1.930   8.041  19.326  0.00  0.00    +0.000 N 
ENDROOT
BRANCH   9  10
ATOM     10  C   UNL     1       1.139   8.800  20.244  0.00  0.00    +0.000 A 
ATOM     11  C   UNL     1       1.260   8.552  21.622  0.00  0.00    +0.000 A 
ATOM     12  C   UNL     1       0.505   9.283  22.545  0.00  0.00    +0.000 A 
ATOM     13  C   UNL     1      -0.382  10.257  22.096  0.00  0.00    +0.000 A 
ATOM     14 CL   UNL     1      -1.310  11.159  23.229  0.00  0.00    +0.000 Cl
ATOM     15  C   UNL     1      -0.523  10.503  20.733  0.00  0.00    +0.000 A 
ATOM     16  C   UNL     1       0.236   9.778  19.807  0.00  0.00    +0.000 A 
ENDBRANCH   9  10
BRANCH   1  17
ATOM     17  N   UNL     1       4.661   5.000  17.137  0.00  0.00    +0.000 N 
ATOM     18  H   UNL     1       4.270   4.322  16.489  0.00  0.00    +0.000 HD
BRANCH  17  19
ATOM     19  C   UNL     1       6.004   4.612  17.549  0.00  0.00    +0.000 C 
BRANCH  19  24
ATOM     20  C   UNL     1       9.120   9.412  18.700  0.00  0.00    +0.000 C 
ATOM     21  C   UNL     1       8.313   8.181  18.414  0.00  0.00    +0.000 A 
ATOM     22  C   UNL     1       8.446   7.037  19.203  0.00  0.00    +0.000 A 
ATOM     23  C   UNL     1       7.693   5.895  18.921  0.00  0.00    +0.000 A 
ATOM     24  C   UNL     1       6.791   5.871  17.847  0.00  0.00    +0.000 A 
ATOM     25  C   UNL     1       6.663   7.017  17.055  0.00  0.00    +0.000 A 
ATOM     26  C   UNL     1       7.419   8.160  17.336  0.00  0.00    +0.000 A 
ENDBRANCH  19  24
ENDBRANCH  17  19
ENDBRANCH   1  17
TORSDOF 4
ENDMDL
MODEL 5
REMARK VINA RESULT:      -7.8      3.027      5.417
REMARK  Name = 
REMARK  5 active torsions:
REMARK  status: ('A' for Active; 'I' for Inactive)
REMARK    1  A    between atoms: C_1  and  C_2
REMARK    2  A    between atoms: C_5  and  C_6
REMARK    3  A    between atoms: C_6  and  N_7
REMARK    4  A    between atoms: N_7  and  C_8
REMARK    5  A    between atoms: N_16  and  C_17
REMARK                            x       y       z     vdW  Elec       q    Type
REMARK                         _______ _______ _______ _____ _____    ______ ____
ROOT
ATOM      1  C   UNL     1       1.239   8.983  19.865  0.00  0.00    +0.000 A 
ATOM      2  N   UNL     1       0.928   9.631  18.722  0.00  0.00    +0.000 NA
ATOM      3  C   UNL     1       0.188  10.755  18.802  0.00  0.00    +0.000 A 
ATOM      4  N   UNL     1      -0.326  11.331  19.900  0.00  0.00    +0.000 NA
ATOM      5  C   UNL     1      -0.001  10.662  21.026  0.00  0.00    +0.000 A 
ATOM      6  C   UNL     1       0.786   9.525  21.073  0.00  0.00    +0.000 A 
ATOM      7  C   UNL     1       0.876   9.202  22.434  0.00  0.00    +0.000 A 
ATOM      8  N   UNL     1       0.218  10.059  23.215  0.00  0.00    +0.000 NA
ATOM      9  N   UNL     1      -0.369  10.936  22.343  0.00  0.00    +0.000 N 
ENDROOT
BRANCH   9  10
ATOM     10  C   UNL     1      -1.239  11.952  22.849  0.00  0.00    +0.000 A 
ATOM     11  C   UNL     1      -0.772  13.275  22.935  0.00  0.00    +0.000 A 
ATOM     12  C   UNL     1      -1.601  14.292  23.418  0.00  0.00    +0.000 A 
ATOM     13  C   UNL     1      -2.897  13.991  23.828  0.00  0.00    +0.000 A 
ATOM     14 CL   UNL     1      -3.921  15.240  24.420  0.00  0.00    +0.000 Cl
ATOM     15  C   UNL     1      -3.368  12.682  23.762  0.00  0.00    +0.000 A 
ATOM     16  C   UNL     1      -2.543  11.664  23.272  0.00  0.00    +0.000 A 
ENDBRANCH   9  10
BRANCH   1  17
ATOM     17  N   UNL     1       1.962   7.793  19.855  0.00  0.00    +0.000 N 
ATOM     18  H   UNL     1       2.640   7.799  20.610  0.00  0.00    +0.000 HD
BRANCH  17  19
ATOM     19  C   UNL     1       2.594   7.450  18.588  0.00  0.00    +0.000 C 
BRANCH  19  24
ATOM     20  C   UNL     1       3.417   1.676  18.368  0.00  0.00    +0.000 C 
ATOM     21  C   UNL     1       3.197   3.158  18.432  0.00  0.00    +0.000 A 
ATOM     22  C   UNL     1       2.090   3.745  17.815  0.00  0.00    +0.000 A 
ATOM     23  C   UNL     1       1.901   5.128  17.876  0.00  0.00    +0.000 A 
ATOM     24  C   UNL     1       2.811   5.952  18.556  0.00  0.00    +0.000 A 
ATOM     25  C   UNL     1       3.921   5.362  19.169  0.00  0.00    +0.000 A 
ATOM     26  C   UNL     1       4.112   3.977  19.105  0.00  0.00    +0.000 A 
ENDBRANCH  19  24
ENDBRANCH  17  19
ENDBRANCH   1  17
TORSDOF 4
ENDMDL
MODEL 6
REMARK VINA RESULT:      -7.7      2.937      5.473
REMARK  Name = 
REMARK  5 active torsions:
REMARK  status: ('A' for Active; 'I' for Inactive)
REMARK    1  A    between atoms: C_1  and  C_2
REMARK    2  A    between atoms: C_5  and  C_6
REMARK    3  A    between atoms: C_6  and  N_7
REMARK    4  A    between atoms: N_7  and  C_8
REMARK    5  A    between atoms: N_16  and  C_17
REMARK                            x       y       z     vdW  Elec       q    Type
REMARK                         _______ _______ _______ _____ _____    ______ ____
ROOT
ATOM      1  C   UNL     1       1.198   9.018  19.779  0.00  0.00    +0.000 A 
ATOM      2  N   UNL     1       0.886   9.682  18.645  0.00  0.00    +0.000 NA
ATOM      3  C   UNL     1       0.173  10.822  18.744  0.00  0.00    +0.000 A 
ATOM      4  N   UNL     1      -0.312  11.402  19.854  0.00  0.00    +0.000 NA
ATOM      5  C   UNL     1       0.012  10.716  20.970  0.00  0.00    +0.000 A 
ATOM      6  C   UNL     1       0.773   9.561  20.998  0.00  0.00    +0.000 A 
ATOM      7  C   UNL     1       0.874   9.226  22.355  0.00  0.00    +0.000 A 
ATOM      8  N   UNL     1       0.248  10.091  23.152  0.00  0.00    +0.000 NA
ATOM      9  N   UNL     1      -0.331  10.988  22.294  0.00  0.00    +0.000 N 
ENDROOT
BRANCH   9  10
ATOM     10  C   UNL     1      -1.170  12.020  22.819  0.00  0.00    +0.000 A 
ATOM     11  C   UNL     1      -2.464  11.694  23.263  0.00  0.00    +0.000 A 
ATOM     12  C   UNL     1      -3.305  12.680  23.788  0.00  0.00    +0.000 A 
ATOM     13  C   UNL     1      -2.864  13.998  23.862  0.00  0.00    +0.000 A 
ATOM     14 CL   UNL     1      -3.895  15.212  24.510  0.00  0.00    +0.000 Cl
ATOM     15  C   UNL     1      -1.591  14.338  23.413  0.00  0.00    +0.000 A 
ATOM     16  C   UNL     1      -0.743  13.352  22.894  0.00  0.00    +0.000 A 
ENDBRANCH   9  10
BRANCH   1  17
ATOM     17  N   UNL     1       1.892   7.812  19.751  0.00  0.00    +0.000 N 
ATOM     18  H   UNL     1       2.493   7.745  20.566  0.00  0.00    +0.000 HD
BRANCH  17  19
ATOM     19  C   UNL     1       2.638   7.543  18.528  0.00  0.00    +0.000 C 
BRANCH  19  24
ATOM     20  C   UNL     1       3.444   1.772  18.185  0.00  0.00    +0.000 C 
ATOM     21  C   UNL     1       3.244   3.256  18.264  0.00  0.00    +0.000 A 
ATOM     22  C   UNL     1       4.251   4.090  18.757  0.00  0.00    +0.000 A 
ATOM     23  C   UNL     1       4.049   5.469  18.832  0.00  0.00    +0.000 A 
ATOM     24  C   UNL     1       2.840   6.046  18.415  0.00  0.00    +0.000 A 
ATOM     25  C   UNL     1       1.831   5.209  17.927  0.00  0.00    +0.000 A 
ATOM     26  C   UNL     1       2.032   3.826  17.854  0.00  0.00    +0.000 A 
ENDBRANCH  19  24
ENDBRANCH  17  19
ENDBRANCH   1  17
TORSDOF 4
ENDMDL
MODEL 7
REMARK VINA RESULT:      -7.7      3.952      5.933
REMARK  Name = 
REMARK  5 active torsions:
REMARK  status: ('A' for Active; 'I' for Inactive)
REMARK    1  A    between atoms: C_1  and  C_2
REMARK    2  A    between atoms: C_5  and  C_6
REMARK    3  A    between atoms: C_6  and  N_7
REMARK    4  A    between atoms: N_7  and  C_8
REMARK    5  A    between atoms: N_16  and  C_17
REMARK                            x       y       z     vdW  Elec       q    Type
REMARK                         _______ _______ _______ _____ _____    ______ ____
ROOT
ATOM      1  C   UNL     1       7.849   7.200  18.182  0.00  0.00    +0.000 A 
ATOM      2  N   UNL     1       8.405   6.445  19.154  0.00  0.00    +0.000 NA
ATOM      3  C   UNL     1       7.717   5.381  19.613  0.00  0.00    +0.000 A 
ATOM      4  N   UNL     1       6.496   4.962  19.244  0.00  0.00    +0.000 NA
ATOM      5  C   UNL     1       5.963   5.736  18.275  0.00  0.00    +0.000 A 
ATOM      6  C   UNL     1       6.591   6.826  17.696  0.00  0.00    +0.000 A 
ATOM      7  C   UNL     1       5.687   7.295  16.734  0.00  0.00    +0.000 A 
ATOM      8  N   UNL     1       4.569   6.571  16.674  0.00  0.00    +0.000 NA
ATOM      9  N   UNL     1       4.715   5.635  17.662  0.00  0.00    +0.000 N 
ENDROOT
BRANCH   9  10
ATOM     10  C   UNL     1       3.640   4.733  17.939  0.00  0.00    +0.000 A 
ATOM     11  C   UNL     1       3.705   3.417  17.450  0.00  0.00    +0.000 A 
ATOM     12  C   UNL     1       2.674   2.510  17.710  0.00  0.00    +0.000 A 
ATOM     13  C   UNL     1       1.566   2.915  18.449  0.00  0.00    +0.000 A 
ATOM     14 CL   UNL     1       0.296   1.801  18.774  0.00  0.00    +0.000 Cl
ATOM     15  C   UNL     1       1.481   4.220  18.927  0.00  0.00    +0.000 A 
ATOM     16  C   UNL     1       2.516   5.129  18.675  0.00  0.00    +0.000 A 
ENDBRANCH   9  10
BRANCH   1  17
ATOM     17  N   UNL     1       8.481   8.339  17.692  0.00  0.00    +0.000 N 
ATOM     18  H   UNL     1       9.474   8.295  17.900  0.00  0.00    +0.000 HD
BRANCH  17  19
ATOM     19  C   UNL     1       7.913   9.610  18.121  0.00  0.00    +0.000 C 
BRANCH  19  24
ATOM     20  C   UNL     1      12.333  13.040  19.786  0.00  0.00    +0.000 C 
ATOM     21  C   UNL     1      11.190  12.166  19.364  0.00  0.00    +0.000 A 
ATOM     22  C   UNL     1      10.516  11.369  20.292  0.00  0.00    +0.000 A 
ATOM     23  C   UNL     1       9.458  10.554  19.883  0.00  0.00    +0.000 A 
ATOM     24  C   UNL     1       9.049  10.520  18.541  0.00  0.00    +0.000 A 
ATOM     25  C   UNL     1       9.728  11.316  17.613  0.00  0.00    +0.000 A 
ATOM     26  C   UNL     1      10.790  12.130  18.022  0.00  0.00    +0.000 A 
ENDBRANCH  19  24
ENDBRANCH  17  19
ENDBRANCH   1  17
TORSDOF 4
ENDMDL
MODEL 8
REMARK VINA RESULT:      -7.6      1.819      2.661
REMARK  Name = 
REMARK  5 active torsions:
REMARK  status: ('A' for Active; 'I' for Inactive)
REMARK    1  A    between atoms: C_1  and  C_2
REMARK    2  A    between atoms: C_5  and  C_6
REMARK    3  A    between atoms: C_6  and  N_7
REMARK    4  A    between atoms: N_7  and  C_8
REMARK    5  A    between atoms: N_16  and  C_17
REMARK                            x       y       z     vdW  Elec       q    Type
REMARK                         _______ _______ _______ _____ _____    ______ ____
ROOT
ATOM      1  C   UNL     1       3.231   4.293  19.130  0.00  0.00    +0.000 A 
ATOM      2  N   UNL     1       2.731   3.597  20.174  0.00  0.00    +0.000 NA
ATOM      3  C   UNL     1       1.921   4.235  21.042  0.00  0.00    +0.000 A 
ATOM      4  N   UNL     1       1.547   5.524  21.031  0.00  0.00    +0.000 NA
ATOM      5  C   UNL     1       2.064   6.195  19.980  0.00  0.00    +0.000 A 
ATOM      6  C   UNL     1       2.869   5.639  19.002  0.00  0.00    +0.000 A 
ATOM      7  C   UNL     1       3.136   6.688  18.113  0.00  0.00    +0.000 A 
ATOM      8  N   UNL     1       2.549   7.831  18.465  0.00  0.00    +0.000 NA
ATOM      9  N   UNL     1       1.924   7.543  19.649  0.00  0.00    +0.000 N 
ENDROOT
BRANCH   9  10
ATOM     10  C   UNL     1       1.258   8.587  20.364  0.00  0.00    +0.000 A 
ATOM     11  C   UNL     1       1.202   8.531  21.768  0.00  0.00    +0.000 A 
ATOM     12  C   UNL     1       0.565   9.541  22.495  0.00  0.00    +0.000 A 
ATOM     13  C   UNL     1      -0.029  10.606  21.825  0.00  0.00    +0.000 A 
ATOM     14 CL   UNL     1      -0.811  11.852  22.716  0.00  0.00    +0.000 Cl
ATOM     15  C   UNL     1       0.006  10.668  20.434  0.00  0.00    +0.000 A 
ATOM     16  C   UNL     1       0.649   9.662  19.703  0.00  0.00    +0.000 A 
ENDBRANCH   9  10
BRANCH   1  17
ATOM     17  N   UNL     1       4.108   3.711  18.219  0.00  0.00    +0.000 N 
ATOM     18  H   UNL     1       4.076   2.700  18.311  0.00  0.00    +0.000 HD
BRANCH  17  19
ATOM     19  C   UNL     1       5.481   4.197  18.268  0.00  0.00    +0.000 C 
BRANCH  19  24
ATOM     20  C   UNL     1       7.295   4.922  12.767  0.00  0.00    +0.000 C 
ATOM     21  C   UNL     1       6.831   4.724  14.179  0.00  0.00    +0.000 A 
ATOM     22  C   UNL     1       5.564   4.200  14.451  0.00  0.00    +0.000 A 
ATOM     23  C   UNL     1       5.142   4.027  15.770  0.00  0.00    +0.000 A 
ATOM     24  C   UNL     1       5.973   4.373  16.846  0.00  0.00    +0.000 A 
ATOM     25  C   UNL     1       7.239   4.902  16.572  0.00  0.00    +0.000 A 
ATOM     26  C   UNL     1       7.661   5.077  15.250  0.00  0.00    +0.000 A 
ENDBRANCH  19  24
ENDBRANCH  17  19
ENDBRANCH   1  17
TORSDOF 4
ENDMDL
MODEL 9
REMARK VINA RESULT:      -7.6      1.901      2.752
REMARK  Name = 
REMARK  5 active torsions:
REMARK  status: ('A' for Active; 'I' for Inactive)
REMARK    1  A    between atoms: C_1  and  C_2
REMARK    2  A    between atoms: C_5  and  C_6
REMARK    3  A    between atoms: C_6  and  N_7
REMARK    4  A    between atoms: N_7  and  C_8
REMARK    5  A    between atoms: N_16  and  C_17
REMARK                            x       y       z     vdW  Elec       q    Type
REMARK                         _______ _______ _______ _____ _____    ______ ____
ROOT
ATOM      1  C   UNL     1       3.469   4.350  19.005  0.00  0.00    +0.000 A 
ATOM      2  N   UNL     1       3.051   3.608  20.053  0.00  0.00    +0.000 NA
ATOM      3  C   UNL     1       2.245   4.185  20.967  0.00  0.00    +0.000 A 
ATOM      4  N   UNL     1       1.802   5.452  20.998  0.00  0.00    +0.000 NA
ATOM      5  C   UNL     1       2.236   6.169  19.941  0.00  0.00    +0.000 A 
ATOM      6  C   UNL     1       3.029   5.676  18.920  0.00  0.00    +0.000 A 
ATOM      7  C   UNL     1       3.202   6.754  18.041  0.00  0.00    +0.000 A 
ATOM      8  N   UNL     1       2.568   7.856  18.441  0.00  0.00    +0.000 NA
ATOM      9  N   UNL     1       2.010   7.513  19.644  0.00  0.00    +0.000 N 
ENDROOT
BRANCH   9  10
ATOM     10  C   UNL     1       1.319   8.506  20.406  0.00  0.00    +0.000 A 
ATOM     11  C   UNL     1       0.672   9.559  19.736  0.00  0.00    +0.000 A 
ATOM     12  C   UNL     1      -0.018  10.541  20.453  0.00  0.00    +0.000 A 
ATOM     13  C   UNL     1      -0.056  10.484  21.843  0.00  0.00    +0.000 A 
ATOM     14 CL   UNL     1      -0.906  11.688  22.729  0.00  0.00    +0.000 Cl
ATOM     15  C   UNL     1       0.593   9.454  22.521  0.00  0.00    +0.000 A 
ATOM     16  C   UNL     1       1.279   8.466  21.806  0.00  0.00    +0.000 A 
ENDBRANCH   9  10
BRANCH   1  17
ATOM     17  N   UNL     1       4.337   3.834  18.047  0.00  0.00    +0.000 N 
ATOM     18  H   UNL     1       4.518   2.854  18.241  0.00  0.00    +0.000 HD
BRANCH  17  19
ATOM     19  C   UNL     1       5.584   4.568  17.866  0.00  0.00    +0.000 C 
BRANCH  19  24
ATOM     20  C   UNL     1       7.000   4.299  12.210  0.00  0.00    +0.000 C 
ATOM     21  C   UNL     1       6.638   4.356  13.664  0.00  0.00    +0.000 A 
ATOM     22  C   UNL     1       5.422   3.842  14.121  0.00  0.00    +0.000 A 
ATOM     23  C   UNL     1       5.095   3.908  15.477  0.00  0.00    +0.000 A 
ATOM     24  C   UNL     1       5.973   4.488  16.405  0.00  0.00    +0.000 A 
ATOM     25  C   UNL     1       7.188   5.006  15.944  0.00  0.00    +0.000 A 
ATOM     26  C   UNL     1       7.515   4.942  14.585  0.00  0.00    +0.000 A 
ENDBRANCH  19  24
ENDBRANCH  17  19
ENDBRANCH   1  17
TORSDOF 4
ENDMDL
