MODEL 1
REMARK VINA RESULT:      -7.2      0.000      0.000
REMARK  Name = 
REMARK  6 active torsions:
REMARK  status: ('A' for Active; 'I' for Inactive)
REMARK    1  A    between atoms: C_1  and  C_2
REMARK    2  A    between atoms: C_2  and  N_3
REMARK    3  A    between atoms: N_3  and  C_4
REMARK    4  A    between atoms: C_4  and  N_6
REMARK    5  A    between atoms: N_6  and  N_7
REMARK    6  A    between atoms: C_15  and  N_16
REMARK                            x       y       z     vdW  Elec       q    Type
REMARK                         _______ _______ _______ _____ _____    ______ ____
ROOT
ATOM      1  N   UNL     1       5.686   3.357  14.301  0.00  0.00    +0.000 NA
ATOM      2  C   UNL     1       6.143   4.247  15.121  0.00  0.00    +0.000 C 
ATOM      3  C   UNL     1       7.283   5.256  14.909  0.00  0.00    +0.000 C 
ATOM      4  O   UNL     1       7.802   5.502  13.844  0.00  0.00    +0.000 OA
ATOM      5  N   UNL     1       7.530   5.792  16.153  0.00  0.00    +0.000 N 
ATOM      6  C   UNL     1       6.610   5.327  17.085  0.00  0.00    +0.000 A 
ATOM      7  C   UNL     1       6.521   5.686  18.413  0.00  0.00    +0.000 A 
ATOM      8  C   UNL     1       5.461   5.149  19.156  0.00  0.00    +0.000 A 
ATOM      9  C   UNL     1       4.523   4.272  18.549  0.00  0.00    +0.000 A 
ATOM     10  C   UNL     1       4.646   3.891  17.204  0.00  0.00    +0.000 A 
ATOM     11  C   UNL     1       5.711   4.426  16.508  0.00  0.00    +0.000 A 
ATOM     12  H   UNL     1       8.237   6.497  16.310  0.00  0.00    +0.000 HD
ENDROOT
BRANCH   9  13
ATOM     13  N   UNL     1       3.391   3.776  19.348  0.00  0.00    +0.000 N 
ATOM     14  O   UNL     1       3.550   2.720  19.972  0.00  0.00    +0.000 OA
ATOM     15  O   UNL     1       2.352   4.449  19.339  0.00  0.00    +0.000 OA
ENDBRANCH   9  13
BRANCH   1  16
ATOM     16  N   UNL     1       6.235   3.370  13.043  0.00  0.00    +0.000 N 
ATOM     17  H   UNL     1       7.064   3.941  12.852  0.00  0.00    +0.000 HD
BRANCH  16  18
ATOM     18  C   UNL     1       5.572   2.828  11.963  0.00  0.00    +0.000 C 
ATOM     19  S   UNL     1       6.170   1.463  11.216  0.00  0.00    +0.000 S 
BRANCH  18  20
ATOM     20  N   UNL     1       4.433   3.519  11.625  0.00  0.00    +0.000 N 
ATOM     21  H   UNL     1       4.593   4.519  11.702  0.00  0.00    +0.000 HD
BRANCH  20  23
ATOM     22  C   UNL     1       3.018   4.146   9.712  0.00  0.00    +0.000 C 
ATOM     23  C   UNL     1       3.439   3.055  10.678  0.00  0.00    +0.000 C 
ENDBRANCH  20  23
ENDBRANCH  18  20
ENDBRANCH  16  18
ENDBRANCH   1  16
TORSDOF 5
ENDMDL
MODEL 2
REMARK VINA RESULT:      -7.1      3.369      6.272
REMARK  Name = 
REMARK  6 active torsions:
REMARK  status: ('A' for Active; 'I' for Inactive)
REMARK    1  A    between atoms: C_1  and  C_2
REMARK    2  A    between atoms: C_2  and  N_3
REMARK    3  A    between atoms: N_3  and  C_4
REMARK    4  A    between atoms: C_4  and  N_6
REMARK    5  A    between atoms: N_6  and  N_7
REMARK    6  A    between atoms: C_15  and  N_16
REMARK                            x       y       z     vdW  Elec       q    Type
REMARK                         _______ _______ _______ _____ _____    ______ ____
ROOT
ATOM      1  N   UNL     1       4.352   4.955  16.672  0.00  0.00    +0.000 NA
ATOM      2  C   UNL     1       5.501   5.080  16.091  0.00  0.00    +0.000 C 
ATOM      3  C   UNL     1       6.761   5.801  16.595  0.00  0.00    +0.000 C 
ATOM      4  O   UNL     1       6.927   6.200  17.725  0.00  0.00    +0.000 OA
ATOM      5  N   UNL     1       7.609   5.852  15.510  0.00  0.00    +0.000 N 
ATOM      6  C   UNL     1       7.079   5.151  14.433  0.00  0.00    +0.000 A 
ATOM      7  C   UNL     1       7.669   4.949  13.205  0.00  0.00    +0.000 A 
ATOM      8  C   UNL     1       6.984   4.141  12.286  0.00  0.00    +0.000 A 
ATOM      9  C   UNL     1       5.733   3.562  12.624  0.00  0.00    +0.000 A 
ATOM     10  C   UNL     1       5.130   3.804  13.867  0.00  0.00    +0.000 A 
ATOM     11  C   UNL     1       5.825   4.617  14.740  0.00  0.00    +0.000 A 
ATOM     12  H   UNL     1       8.526   6.273  15.557  0.00  0.00    +0.000 HD
ENDROOT
BRANCH   9  13
ATOM     13  N   UNL     1       5.074   2.673  11.654  0.00  0.00    +0.000 N 
ATOM     14  O   UNL     1       5.648   1.616  11.364  0.00  0.00    +0.000 OA
ATOM     15  O   UNL     1       3.988   3.044  11.190  0.00  0.00    +0.000 OA
ENDBRANCH   9  13
BRANCH   1  16
ATOM     16  N   UNL     1       4.272   5.462  17.946  0.00  0.00    +0.000 N 
ATOM     17  H   UNL     1       4.703   6.366  18.165  0.00  0.00    +0.000 HD
BRANCH  16  18
ATOM     18  C   UNL     1       3.839   4.689  19.002  0.00  0.00    +0.000 C 
ATOM     19  S   UNL     1       2.495   5.148  19.874  0.00  0.00    +0.000 S 
BRANCH  18  20
ATOM     20  N   UNL     1       4.612   3.572  19.207  0.00  0.00    +0.000 N 
ATOM     21  H   UNL     1       5.471   3.822  19.687  0.00  0.00    +0.000 HD
BRANCH  20  23
ATOM     22  C   UNL     1       3.385   1.718  18.151  0.00  0.00    +0.000 C 
ATOM     23  C   UNL     1       4.090   2.232  19.391  0.00  0.00    +0.000 C 
ENDBRANCH  20  23
ENDBRANCH  18  20
ENDBRANCH  16  18
ENDBRANCH   1  16
TORSDOF 5
ENDMDL
MODEL 3
REMARK VINA RESULT:      -7.0      1.321      1.927
REMARK  Name = 
REMARK  6 active torsions:
REMARK  status: ('A' for Active; 'I' for Inactive)
REMARK    1  A    between atoms: C_1  and  C_2
REMARK    2  A    between atoms: C_2  and  N_3
REMARK    3  A    between atoms: N_3  and  C_4
REMARK    4  A    between atoms: C_4  and  N_6
REMARK    5  A    between atoms: N_6  and  N_7
REMARK    6  A    between atoms: C_15  and  N_16
REMARK                            x       y       z     vdW  Elec       q    Type
REMARK                         _______ _______ _______ _____ _____    ______ ____
ROOT
ATOM      1  N   UNL     1       5.182   3.781  14.244  0.00  0.00    +0.000 NA
ATOM      2  C   UNL     1       5.791   4.384  15.214  0.00  0.00    +0.000 C 
ATOM      3  C   UNL     1       7.154   5.094  15.201  0.00  0.00    +0.000 C 
ATOM      4  O   UNL     1       7.784   5.369  14.205  0.00  0.00    +0.000 OA
ATOM      5  N   UNL     1       7.445   5.344  16.524  0.00  0.00    +0.000 N 
ATOM      6  C   UNL     1       6.382   4.984  17.343  0.00  0.00    +0.000 A 
ATOM      7  C   UNL     1       6.299   5.135  18.710  0.00  0.00    +0.000 A 
ATOM      8  C   UNL     1       5.095   4.771  19.327  0.00  0.00    +0.000 A 
ATOM      9  C   UNL     1       4.012   4.268  18.560  0.00  0.00    +0.000 A 
ATOM     10  C   UNL     1       4.123   4.088  17.173  0.00  0.00    +0.000 A 
ATOM     11  C   UNL     1       5.328   4.442  16.601  0.00  0.00    +0.000 A 
ATOM     12  H   UNL     1       8.291   5.814  16.814  0.00  0.00    +0.000 HD
ENDROOT
BRANCH   9  13
ATOM     13  N   UNL     1       2.744   3.952  19.237  0.00  0.00    +0.000 N 
ATOM     14  O   UNL     1       1.812   4.756  19.112  0.00  0.00    +0.000 OA
ATOM     15  O   UNL     1       2.696   2.902  19.892  0.00  0.00    +0.000 OA
ENDBRANCH   9  13
BRANCH   1  16
ATOM     16  N   UNL     1       5.796   3.857  13.019  0.00  0.00    +0.000 N 
ATOM     17  H   UNL     1       6.381   4.667  12.788  0.00  0.00    +0.000 HD
BRANCH  16  18
ATOM     18  C   UNL     1       5.465   2.997  11.993  0.00  0.00    +0.000 C 
ATOM     19  S   UNL     1       4.060   3.234  11.129  0.00  0.00    +0.000 S 
BRANCH  18  20
ATOM     20  N   UNL     1       6.393   2.003  11.799  0.00  0.00    +0.000 N 
ATOM     21  H   UNL     1       6.845   1.768  12.678  0.00  0.00    +0.000 HD
BRANCH  20  23
ATOM     22  C   UNL     1       6.157  -0.411  11.382  0.00  0.00    +0.000 C 
ATOM     23  C   UNL     1       6.299   0.975  10.782  0.00  0.00    +0.000 C 
ENDBRANCH  20  23
ENDBRANCH  18  20
ENDBRANCH  16  18
ENDBRANCH   1  16
TORSDOF 5
ENDMDL
MODEL 4
REMARK VINA RESULT:      -7.0      3.223      6.667
REMARK  Name = 
REMARK  6 active torsions:
REMARK  status: ('A' for Active; 'I' for Inactive)
REMARK    1  A    between atoms: C_1  and  C_2
REMARK    2  A    between atoms: C_2  and  N_3
REMARK    3  A    between atoms: N_3  and  C_4
REMARK    4  A    between atoms: C_4  and  N_6
REMARK    5  A    between atoms: N_6  and  N_7
REMARK    6  A    between atoms: C_15  and  N_16
REMARK                            x       y       z     vdW  Elec       q    Type
REMARK                         _______ _______ _______ _____ _____    ______ ____
ROOT
ATOM      1  N   UNL     1       4.726   3.944  16.910  0.00  0.00    +0.000 NA
ATOM      2  C   UNL     1       5.752   4.379  16.252  0.00  0.00    +0.000 C 
ATOM      3  C   UNL     1       6.904   5.269  16.743  0.00  0.00    +0.000 C 
ATOM      4  O   UNL     1       7.127   5.539  17.902  0.00  0.00    +0.000 OA
ATOM      5  N   UNL     1       7.589   5.637  15.607  0.00  0.00    +0.000 N 
ATOM      6  C   UNL     1       7.076   4.993  14.487  0.00  0.00    +0.000 A 
ATOM      7  C   UNL     1       7.540   5.081  13.193  0.00  0.00    +0.000 A 
ATOM      8  C   UNL     1       6.916   4.280  12.228  0.00  0.00    +0.000 A 
ATOM      9  C   UNL     1       5.847   3.417  12.586  0.00  0.00    +0.000 A 
ATOM     10  C   UNL     1       5.363   3.362  13.902  0.00  0.00    +0.000 A 
ATOM     11  C   UNL     1       5.992   4.176  14.822  0.00  0.00    +0.000 A 
ATOM     12  H   UNL     1       8.409   6.227  15.633  0.00  0.00    +0.000 HD
ENDROOT
BRANCH   9  13
ATOM     13  N   UNL     1       5.256   2.549  11.555  0.00  0.00    +0.000 N 
ATOM     14  O   UNL     1       4.148   2.866  11.105  0.00  0.00    +0.000 OA
ATOM     15  O   UNL     1       5.908   1.554  11.207  0.00  0.00    +0.000 OA
ENDBRANCH   9  13
BRANCH   1  16
ATOM     16  N   UNL     1       4.706   4.249  18.248  0.00  0.00    +0.000 N 
ATOM     17  H   UNL     1       5.497   3.986  18.845  0.00  0.00    +0.000 HD
BRANCH  16  18
ATOM     18  C   UNL     1       3.555   4.685  18.870  0.00  0.00    +0.000 C 
ATOM     19  S   UNL     1       2.655   5.913  18.191  0.00  0.00    +0.000 S 
BRANCH  18  20
ATOM     20  N   UNL     1       3.279   4.008  20.033  0.00  0.00    +0.000 N 
ATOM     21  H   UNL     1       4.139   3.796  20.529  0.00  0.00    +0.000 HD
BRANCH  20  23
ATOM     22  C   UNL     1       1.690   2.889  21.543  0.00  0.00    +0.000 C 
ATOM     23  C   UNL     1       2.063   4.161  20.806  0.00  0.00    +0.000 C 
ENDBRANCH  20  23
ENDBRANCH  18  20
ENDBRANCH  16  18
ENDBRANCH   1  16
TORSDOF 5
ENDMDL
MODEL 5
REMARK VINA RESULT:      -7.0      3.202      6.340
REMARK  Name = 
REMARK  6 active torsions:
REMARK  status: ('A' for Active; 'I' for Inactive)
REMARK    1  A    between atoms: C_1  and  C_2
REMARK    2  A    between atoms: C_2  and  N_3
REMARK    3  A    between atoms: N_3  and  C_4
REMARK    4  A    between atoms: C_4  and  N_6
REMARK    5  A    between atoms: N_6  and  N_7
REMARK    6  A    between atoms: C_15  and  N_16
REMARK                            x       y       z     vdW  Elec       q    Type
REMARK                         _______ _______ _______ _____ _____    ______ ____
ROOT
ATOM      1  N   UNL     1       4.277   4.499  16.724  0.00  0.00    +0.000 NA
ATOM      2  C   UNL     1       5.421   4.744  16.172  0.00  0.00    +0.000 C 
ATOM      3  C   UNL     1       6.619   5.519  16.743  0.00  0.00    +0.000 C 
ATOM      4  O   UNL     1       6.741   5.855  17.899  0.00  0.00    +0.000 OA
ATOM      5  N   UNL     1       7.474   5.702  15.679  0.00  0.00    +0.000 N 
ATOM      6  C   UNL     1       7.010   5.036  14.550  0.00  0.00    +0.000 A 
ATOM      7  C   UNL     1       7.629   4.956  13.321  0.00  0.00    +0.000 A 
ATOM      8  C   UNL     1       7.017   4.163  12.342  0.00  0.00    +0.000 A 
ATOM      9  C   UNL     1       5.807   3.475  12.620  0.00  0.00    +0.000 A 
ATOM     10  C   UNL     1       5.172   3.592  13.865  0.00  0.00    +0.000 A 
ATOM     11  C   UNL     1       5.794   4.394  14.801  0.00  0.00    +0.000 A 
ATOM     12  H   UNL     1       8.357   6.183  15.768  0.00  0.00    +0.000 HD
ENDROOT
BRANCH   9  13
ATOM     13  N   UNL     1       5.227   2.606  11.584  0.00  0.00    +0.000 N 
ATOM     14  O   UNL     1       4.141   2.942  11.096  0.00  0.00    +0.000 OA
ATOM     15  O   UNL     1       5.864   1.591  11.271  0.00  0.00    +0.000 OA
ENDBRANCH   9  13
BRANCH   1  16
ATOM     16  N   UNL     1       4.143   4.915  18.025  0.00  0.00    +0.000 N 
ATOM     17  H   UNL     1       4.647   5.746  18.351  0.00  0.00    +0.000 HD
BRANCH  16  18
ATOM     18  C   UNL     1       3.544   4.118  18.978  0.00  0.00    +0.000 C 
ATOM     19  S   UNL     1       4.391   2.857  19.663  0.00  0.00    +0.000 S 
BRANCH  18  20
ATOM     20  N   UNL     1       2.253   4.493  19.261  0.00  0.00    +0.000 N 
ATOM     21  H   UNL     1       1.957   5.237  18.637  0.00  0.00    +0.000 HD
BRANCH  20  23
ATOM     22  C   UNL     1       0.781   2.579  18.788  0.00  0.00    +0.000 C 
ATOM     23  C   UNL     1       1.238   3.610  19.801  0.00  0.00    +0.000 C 
ENDBRANCH  20  23
ENDBRANCH  18  20
ENDBRANCH  16  18
ENDBRANCH   1  16
TORSDOF 5
ENDMDL
MODEL 6
REMARK VINA RESULT:      -7.0      2.697      3.441
REMARK  Name = 
REMARK  6 active torsions:
REMARK  status: ('A' for Active; 'I' for Inactive)
REMARK    1  A    between atoms: C_1  and  C_2
REMARK    2  A    between atoms: C_2  and  N_3
REMARK    3  A    between atoms: N_3  and  C_4
REMARK    4  A    between atoms: C_4  and  N_6
REMARK    5  A    between atoms: N_6  and  N_7
REMARK    6  A    between atoms: C_15  and  N_16
REMARK                            x       y       z     vdW  Elec       q    Type
REMARK                         _______ _______ _______ _____ _____    ______ ____
ROOT
ATOM      1  N   UNL     1       6.288   6.053  15.467  0.00  0.00    +0.000 NA
ATOM      2  C   UNL     1       6.099   5.623  16.673  0.00  0.00    +0.000 C 
ATOM      3  C   UNL     1       6.889   4.558  17.450  0.00  0.00    +0.000 C 
ATOM      4  O   UNL     1       7.952   4.094  17.105  0.00  0.00    +0.000 OA
ATOM      5  N   UNL     1       6.141   4.301  18.577  0.00  0.00    +0.000 N 
ATOM      6  C   UNL     1       5.048   5.156  18.652  0.00  0.00    +0.000 A 
ATOM      7  C   UNL     1       4.112   5.220  19.662  0.00  0.00    +0.000 A 
ATOM      8  C   UNL     1       3.132   6.216  19.571  0.00  0.00    +0.000 A 
ATOM      9  C   UNL     1       3.116   7.118  18.474  0.00  0.00    +0.000 A 
ATOM     10  C   UNL     1       4.056   7.019  17.436  0.00  0.00    +0.000 A 
ATOM     11  C   UNL     1       4.997   6.016  17.552  0.00  0.00    +0.000 A 
ATOM     12  H   UNL     1       6.429   3.635  19.280  0.00  0.00    +0.000 HD
ENDROOT
BRANCH   9  13
ATOM     13  N   UNL     1       2.106   8.187  18.444  0.00  0.00    +0.000 N 
ATOM     14  O   UNL     1       1.519   8.450  19.502  0.00  0.00    +0.000 OA
ATOM     15  O   UNL     1       1.907   8.751  17.360  0.00  0.00    +0.000 OA
ENDBRANCH   9  13
BRANCH   1  16
ATOM     16  N   UNL     1       7.392   5.551  14.823  0.00  0.00    +0.000 N 
ATOM     17  H   UNL     1       8.328   5.723  15.203  0.00  0.00    +0.000 HD
BRANCH  16  18
ATOM     18  C   UNL     1       7.306   5.025  13.551  0.00  0.00    +0.000 C 
ATOM     19  S   UNL     1       8.199   5.692  12.313  0.00  0.00    +0.000 S 
BRANCH  18  20
ATOM     20  N   UNL     1       6.452   3.953  13.466  0.00  0.00    +0.000 N 
ATOM     21  H   UNL     1       5.703   4.044  14.146  0.00  0.00    +0.000 HD
BRANCH  20  23
ATOM     22  C   UNL     1       4.751   3.365  11.787  0.00  0.00    +0.000 C 
ATOM     23  C   UNL     1       6.185   3.206  12.252  0.00  0.00    +0.000 C 
ENDBRANCH  20  23
ENDBRANCH  18  20
ENDBRANCH  16  18
ENDBRANCH   1  16
TORSDOF 5
ENDMDL
MODEL 7
REMARK VINA RESULT:      -7.0      3.072      6.464
REMARK  Name = 
REMARK  6 active torsions:
REMARK  status: ('A' for Active; 'I' for Inactive)
REMARK    1  A    between atoms: C_1  and  C_2
REMARK    2  A    between atoms: C_2  and  N_3
REMARK    3  A    between atoms: N_3  and  C_4
REMARK    4  A    between atoms: C_4  and  N_6
REMARK    5  A    between atoms: N_6  and  N_7
REMARK    6  A    between atoms: C_15  and  N_16
REMARK                            x       y       z     vdW  Elec       q    Type
REMARK                         _______ _______ _______ _____ _____    ______ ____
ROOT
ATOM      1  N   UNL     1       4.407   4.494  16.688  0.00  0.00    +0.000 NA
ATOM      2  C   UNL     1       5.529   4.752  16.099  0.00  0.00    +0.000 C 
ATOM      3  C   UNL     1       6.729   5.557  16.623  0.00  0.00    +0.000 C 
ATOM      4  O   UNL     1       6.879   5.911  17.771  0.00  0.00    +0.000 OA
ATOM      5  N   UNL     1       7.548   5.741  15.532  0.00  0.00    +0.000 N 
ATOM      6  C   UNL     1       7.064   5.052  14.426  0.00  0.00    +0.000 A 
ATOM      7  C   UNL     1       7.647   4.967  13.181  0.00  0.00    +0.000 A 
ATOM      8  C   UNL     1       7.021   4.150  12.230  0.00  0.00    +0.000 A 
ATOM      9  C   UNL     1       5.833   3.443  12.553  0.00  0.00    +0.000 A 
ATOM     10  C   UNL     1       5.233   3.565  13.816  0.00  0.00    +0.000 A 
ATOM     11  C   UNL     1       5.868   4.391  14.721  0.00  0.00    +0.000 A 
ATOM     12  H   UNL     1       8.425   6.240  15.588  0.00  0.00    +0.000 HD
ENDROOT
BRANCH   9  13
ATOM     13  N   UNL     1       5.239   2.549  11.547  0.00  0.00    +0.000 N 
ATOM     14  O   UNL     1       5.853   1.511  11.269  0.00  0.00    +0.000 OA
ATOM     15  O   UNL     1       4.164   2.897  11.041  0.00  0.00    +0.000 OA
ENDBRANCH   9  13
BRANCH   1  16
ATOM     16  N   UNL     1       4.305   4.925  17.987  0.00  0.00    +0.000 N 
ATOM     17  H   UNL     1       4.748   5.804  18.271  0.00  0.00    +0.000 HD
BRANCH  16  18
ATOM     18  C   UNL     1       3.829   4.100  18.984  0.00  0.00    +0.000 C 
ATOM     19  S   UNL     1       3.794   2.450  18.754  0.00  0.00    +0.000 S 
BRANCH  18  20
ATOM     20  N   UNL     1       3.428   4.784  20.106  0.00  0.00    +0.000 N 
ATOM     21  H   UNL     1       4.216   5.270  20.522  0.00  0.00    +0.000 HD
BRANCH  20  23
ATOM     22  C   UNL     1       1.047   4.251  20.429  0.00  0.00    +0.000 C 
ATOM     23  C   UNL     1       2.101   5.333  20.306  0.00  0.00    +0.000 C 
ENDBRANCH  20  23
ENDBRANCH  18  20
ENDBRANCH  16  18
ENDBRANCH   1  16
TORSDOF 5
ENDMDL
MODEL 8
REMARK VINA RESULT:      -6.9      3.381      6.489
REMARK  Name = 
REMARK  6 active torsions:
REMARK  status: ('A' for Active; 'I' for Inactive)
REMARK    1  A    between atoms: C_1  and  C_2
REMARK    2  A    between atoms: C_2  and  N_3
REMARK    3  A    between atoms: N_3  and  C_4
REMARK    4  A    between atoms: C_4  and  N_6
REMARK    5  A    between atoms: N_6  and  N_7
REMARK    6  A    between atoms: C_15  and  N_16
REMARK                            x       y       z     vdW  Elec       q    Type
REMARK                         _______ _______ _______ _____ _____    ______ ____
ROOT
ATOM      1  N   UNL     1       4.354   4.413  16.732  0.00  0.00    +0.000 NA
ATOM      2  C   UNL     1       5.478   4.696  16.158  0.00  0.00    +0.000 C 
ATOM      3  C   UNL     1       6.661   5.510  16.706  0.00  0.00    +0.000 C 
ATOM      4  O   UNL     1       6.795   5.848  17.860  0.00  0.00    +0.000 OA
ATOM      5  N   UNL     1       7.488   5.722  15.626  0.00  0.00    +0.000 N 
ATOM      6  C   UNL     1       7.024   5.043  14.505  0.00  0.00    +0.000 A 
ATOM      7  C   UNL     1       7.620   4.985  13.264  0.00  0.00    +0.000 A 
ATOM      8  C   UNL     1       7.015   4.174  12.295  0.00  0.00    +0.000 A 
ATOM      9  C   UNL     1       5.834   3.445  12.596  0.00  0.00    +0.000 A 
ATOM     10  C   UNL     1       5.220   3.540  13.855  0.00  0.00    +0.000 A 
ATOM     11  C   UNL     1       5.835   4.361  14.779  0.00  0.00    +0.000 A 
ATOM     12  H   UNL     1       8.357   6.232  15.698  0.00  0.00    +0.000 HD
ENDROOT
BRANCH   9  13
ATOM     13  N   UNL     1       5.262   2.559  11.571  0.00  0.00    +0.000 N 
ATOM     14  O   UNL     1       5.908   1.550  11.261  0.00  0.00    +0.000 OA
ATOM     15  O   UNL     1       4.172   2.884  11.082  0.00  0.00    +0.000 OA
ENDBRANCH   9  13
BRANCH   1  16
ATOM     16  N   UNL     1       4.233   4.823  18.037  0.00  0.00    +0.000 N 
ATOM     17  H   UNL     1       5.031   4.743  18.674  0.00  0.00    +0.000 HD
BRANCH  16  18
ATOM     18  C   UNL     1       3.004   5.118  18.588  0.00  0.00    +0.000 C 
ATOM     19  S   UNL     1       2.691   6.656  19.149  0.00  0.00    +0.000 S 
BRANCH  18  20
ATOM     20  N   UNL     1       2.145   4.047  18.598  0.00  0.00    +0.000 N 
ATOM     21  H   UNL     1       1.887   3.794  17.649  0.00  0.00    +0.000 HD
BRANCH  20  23
ATOM     22  C   UNL     1       1.176   3.324  20.742  0.00  0.00    +0.000 C 
ATOM     23  C   UNL     1       2.134   3.009  19.610  0.00  0.00    +0.000 C 
ENDBRANCH  20  23
ENDBRANCH  18  20
ENDBRANCH  16  18
ENDBRANCH   1  16
TORSDOF 5
ENDMDL
MODEL 9
REMARK VINA RESULT:      -6.9      2.307      2.853
REMARK  Name = 
REMARK  6 active torsions:
REMARK  status: ('A' for Active; 'I' for Inactive)
REMARK    1  A    between atoms: C_1  and  C_2
REMARK    2  A    between atoms: C_2  and  N_3
REMARK    3  A    between atoms: N_3  and  C_4
REMARK    4  A    between atoms: C_4  and  N_6
REMARK    5  A    between atoms: N_6  and  N_7
REMARK    6  A    between atoms: C_15  and  N_16
REMARK                            x       y       z     vdW  Elec       q    Type
REMARK                         _______ _______ _______ _____ _____    ______ ____
ROOT
ATOM      1  N   UNL     1       5.792   3.908  15.978  0.00  0.00    +0.000 NA
ATOM      2  C   UNL     1       5.036   4.814  16.508  0.00  0.00    +0.000 C 
ATOM      3  C   UNL     1       5.186   6.343  16.457  0.00  0.00    +0.000 C 
ATOM      4  O   UNL     1       5.945   6.942  15.729  0.00  0.00    +0.000 OA
ATOM      5  N   UNL     1       4.278   6.828  17.372  0.00  0.00    +0.000 N 
ATOM      6  C   UNL     1       3.505   5.799  17.897  0.00  0.00    +0.000 A 
ATOM      7  C   UNL     1       2.470   5.916  18.799  0.00  0.00    +0.000 A 
ATOM      8  C   UNL     1       1.773   4.748  19.136  0.00  0.00    +0.000 A 
ATOM      9  C   UNL     1       2.132   3.500  18.562  0.00  0.00    +0.000 A 
ATOM     10  C   UNL     1       3.210   3.392  17.670  0.00  0.00    +0.000 A 
ATOM     11  C   UNL     1       3.883   4.560  17.374  0.00  0.00    +0.000 A 
ATOM     12  H   UNL     1       4.156   7.816  17.545  0.00  0.00    +0.000 HD
ENDROOT
BRANCH   9  13
ATOM     13  N   UNL     1       1.338   2.307  18.896  0.00  0.00    +0.000 N 
ATOM     14  O   UNL     1       1.826   1.501  19.699  0.00  0.00    +0.000 OA
ATOM     15  O   UNL     1       0.234   2.187  18.349  0.00  0.00    +0.000 OA
ENDBRANCH   9  13
BRANCH   1  16
ATOM     16  N   UNL     1       6.819   4.373  15.196  0.00  0.00    +0.000 N 
ATOM     17  H   UNL     1       7.546   4.968  15.607  0.00  0.00    +0.000 HD
BRANCH  16  18
ATOM     18  C   UNL     1       6.782   4.269  13.822  0.00  0.00    +0.000 C 
ATOM     19  S   UNL     1       7.761   5.238  12.885  0.00  0.00    +0.000 S 
BRANCH  18  20
ATOM     20  N   UNL     1       5.896   3.318  13.376  0.00  0.00    +0.000 N 
ATOM     21  H   UNL     1       5.074   3.297  13.971  0.00  0.00    +0.000 HD
BRANCH  20  23
ATOM     22  C   UNL     1       4.381   3.262  11.437  0.00  0.00    +0.000 C 
ATOM     23  C   UNL     1       5.749   2.914  11.992  0.00  0.00    +0.000 C 
ENDBRANCH  20  23
ENDBRANCH  18  20
ENDBRANCH  16  18
ENDBRANCH   1  16
TORSDOF 5
ENDMDL
