MODEL 1
REMARK VINA RESULT:      -8.6      0.000      0.000
REMARK  Name = 
REMARK  11 active torsions:
REMARK  status: ('A' for Active; 'I' for Inactive)
REMARK    1  A    between atoms: C_1  and  C_2
REMARK    2  A    between atoms: C_5  and  C_6
REMARK    3  A    between atoms: C_6  and  N_7
REMARK    4  A    between atoms: N_11  and  C_12
REMARK    5  A    between atoms: C_12  and  C_13
REMARK    6  A    between atoms: C_17  and  C_18
REMARK    7  A    between atoms: N_20  and  C_21
REMARK    8  A    between atoms: C_24  and  C_25
REMARK    9  A    between atoms: C_25  and  C_26
REMARK   10  A    between atoms: C_25  and  C_27
REMARK   11  A    between atoms: C_25  and  C_28
REMARK                            x       y       z     vdW  Elec       q    Type
REMARK                         _______ _______ _______ _____ _____    ______ ____
ROOT
ATOM      1  C   UNL     1       4.970   4.148  17.516  0.00  0.00    +0.000 A 
ATOM      2  C   UNL     1       5.102   3.999  16.123  0.00  0.00    +0.000 A 
ATOM      3  C   UNL     1       6.004   4.778  15.401  0.00  0.00    +0.000 A 
ATOM      4  C   UNL     1       6.793   5.710  16.066  0.00  0.00    +0.000 A 
ATOM      5  C   UNL     1       6.692   5.860  17.456  0.00  0.00    +0.000 A 
ATOM      6  C   UNL     1       5.782   5.081  18.181  0.00  0.00    +0.000 A 
ENDROOT
BRANCH   5   7
ATOM      7  C   UNL     1       7.526   6.909  18.096  0.00  0.00    +0.000 C 
ATOM      8  O   UNL     1       8.276   6.553  18.997  0.00  0.00    +0.000 OA
ATOM      9  N   UNL     1       7.337   8.207  17.646  0.00  0.00    +0.000 N 
ATOM     10  H   UNL     1       6.545   8.389  17.044  0.00  0.00    +0.000 HD
BRANCH   9  11
ATOM     11  C   UNL     1       8.095   9.328  18.053  0.00  0.00    +0.000 A 
ATOM     12  C   UNL     1       9.028   9.271  19.084  0.00  0.00    +0.000 A 
ATOM     13  C   UNL     1       9.790  10.389  19.433  0.00  0.00    +0.000 A 
ATOM     14  C   UNL     1       9.656  11.609  18.760  0.00  0.00    +0.000 A 
ATOM     15  C   UNL     1       8.689  11.667  17.737  0.00  0.00    +0.000 A 
ATOM     16  C   UNL     1       7.930  10.540  17.378  0.00  0.00    +0.000 A 
BRANCH  14  17
ATOM     17  C   UNL     1      10.558  12.813  19.078  0.00  0.00    +0.000 C 
ATOM     18  C   UNL     1      10.293  13.425  20.476  0.00  0.00    +0.000 C 
ATOM     19  C   UNL     1      12.034  12.361  19.054  0.00  0.00    +0.000 C 
ATOM     20  C   UNL     1      10.357  13.938  18.043  0.00  0.00    +0.000 C 
ENDBRANCH  14  17
ENDBRANCH   9  11
ENDBRANCH   5   7
BRANCH   1  21
ATOM     21  C   UNL     1       4.017   3.242  18.269  0.00  0.00    +0.000 C 
BRANCH  21  26
ATOM     22  N   UNL     1       1.792   5.822  19.820  0.00  0.00    +0.000 NA
ATOM     23  C   UNL     1       2.125   4.633  20.622  0.00  0.00    +0.000 C 
ATOM     24  C   UNL     1       1.521   3.282  20.226  0.00  0.00    +0.000 C 
ATOM     25  C   UNL     1       1.637   2.750  18.801  0.00  0.00    +0.000 C 
ATOM     26  N   UNL     1       2.606   3.324  17.876  0.00  0.00    +0.000 NA
ATOM     27  C   UNL     1       2.190   4.680  17.496  0.00  0.00    +0.000 C 
ATOM     28  C   UNL     1       2.450   5.832  18.489  0.00  0.00    +0.000 C 
BRANCH  22  29
ATOM     29  C   UNL     1       2.289   7.047  20.521  0.00  0.00    +0.000 C 
BRANCH  29  34
ATOM     30  C   UNL     1      -0.650  11.422  19.610  0.00  0.00    +0.000 C 
ATOM     31  C   UNL     1      -0.071  10.186  20.211  0.00  0.00    +0.000 A 
ATOM     32  C   UNL     1      -0.457   9.530  21.360  0.00  0.00    +0.000 A 
ATOM     33  C   UNL     1       0.330   8.368  21.612  0.00  0.00    +0.000 A 
ATOM     34  C   UNL     1       1.295   8.170  20.647  0.00  0.00    +0.000 A 
ATOM     35  S   UNL     1       1.239   9.397  19.447  0.00  0.00    +0.000 S 
ENDBRANCH  29  34
ENDBRANCH  22  29
ENDBRANCH  21  26
ENDBRANCH   1  21
TORSDOF 7
ENDMDL
MODEL 2
REMARK VINA RESULT:      -8.3      3.796      7.968
REMARK  Name = 
REMARK  11 active torsions:
REMARK  status: ('A' for Active; 'I' for Inactive)
REMARK    1  A    between atoms: C_1  and  C_2
REMARK    2  A    between atoms: C_5  and  C_6
REMARK    3  A    between atoms: C_6  and  N_7
REMARK    4  A    between atoms: N_11  and  C_12
REMARK    5  A    between atoms: C_12  and  C_13
REMARK    6  A    between atoms: C_17  and  C_18
REMARK    7  A    between atoms: N_20  and  C_21
REMARK    8  A    between atoms: C_24  and  C_25
REMARK    9  A    between atoms: C_25  and  C_26
REMARK   10  A    between atoms: C_25  and  C_27
REMARK   11  A    between atoms: C_25  and  C_28
REMARK                            x       y       z     vdW  Elec       q    Type
REMARK                         _______ _______ _______ _____ _____    ______ ____
ROOT
ATOM      1  C   UNL     1       1.747   7.554  20.141  0.00  0.00    +0.000 A 
ATOM      2  C   UNL     1       0.968   7.274  21.280  0.00  0.00    +0.000 A 
ATOM      3  C   UNL     1       0.061   8.208  21.775  0.00  0.00    +0.000 A 
ATOM      4  C   UNL     1      -0.087   9.431  21.131  0.00  0.00    +0.000 A 
ATOM      5  C   UNL     1       0.665   9.722  19.983  0.00  0.00    +0.000 A 
ATOM      6  C   UNL     1       1.580   8.786  19.489  0.00  0.00    +0.000 A 
ENDROOT
BRANCH   5   7
ATOM      7  C   UNL     1       0.496  11.066  19.375  0.00  0.00    +0.000 C 
ATOM      8  O   UNL     1      -0.138  11.130  18.329  0.00  0.00    +0.000 OA
ATOM      9  N   UNL     1       1.121  12.120  20.025  0.00  0.00    +0.000 N 
ATOM     10  H   UNL     1       1.779  11.899  20.761  0.00  0.00    +0.000 HD
BRANCH   9  11
ATOM     11  C   UNL     1       1.005  13.482  19.666  0.00  0.00    +0.000 A 
ATOM     12  C   UNL     1       1.959  14.140  18.895  0.00  0.00    +0.000 A 
ATOM     13  C   UNL     1       1.792  15.477  18.523  0.00  0.00    +0.000 A 
ATOM     14  C   UNL     1       0.659  16.209  18.901  0.00  0.00    +0.000 A 
ATOM     15  C   UNL     1      -0.287  15.544  19.706  0.00  0.00    +0.000 A 
ATOM     16  C   UNL     1      -0.125  14.196  20.071  0.00  0.00    +0.000 A 
BRANCH  14  17
ATOM     17  C   UNL     1       0.428  17.649  18.417  0.00  0.00    +0.000 C 
ATOM     18  C   UNL     1      -1.042  17.933  18.018  0.00  0.00    +0.000 C 
ATOM     19  C   UNL     1       0.785  18.630  19.554  0.00  0.00    +0.000 C 
ATOM     20  C   UNL     1       1.302  17.962  17.187  0.00  0.00    +0.000 C 
ENDBRANCH  14  17
ENDBRANCH   9  11
ENDBRANCH   5   7
BRANCH   1  21
ATOM     21  C   UNL     1       2.681   6.488  19.605  0.00  0.00    +0.000 C 
BRANCH  21  26
ATOM     22  N   UNL     1       4.434   3.662  17.886  0.00  0.00    +0.000 NA
ATOM     23  C   UNL     1       3.395   4.383  17.133  0.00  0.00    +0.000 C 
ATOM     24  C   UNL     1       1.929   4.201  17.539  0.00  0.00    +0.000 C 
ATOM     25  C   UNL     1       1.476   4.402  18.981  0.00  0.00    +0.000 C 
ATOM     26  N   UNL     1       2.331   5.101  19.932  0.00  0.00    +0.000 NA
ATOM     27  C   UNL     1       3.500   4.271  20.256  0.00  0.00    +0.000 C 
ATOM     28  C   UNL     1       4.662   4.217  19.244  0.00  0.00    +0.000 C 
BRANCH  22  29
ATOM     29  C   UNL     1       5.744   3.796  17.174  0.00  0.00    +0.000 C 
BRANCH  29  34
ATOM     30  C   UNL     1       7.858   8.682  17.674  0.00  0.00    +0.000 C 
ATOM     31  C   UNL     1       7.557   7.231  17.830  0.00  0.00    +0.000 A 
ATOM     32  C   UNL     1       8.117   6.329  18.710  0.00  0.00    +0.000 A 
ATOM     33  C   UNL     1       7.563   5.022  18.574  0.00  0.00    +0.000 A 
ATOM     34  C   UNL     1       6.594   4.964  17.594  0.00  0.00    +0.000 A 
ATOM     35  S   UNL     1       6.369   6.493  16.847  0.00  0.00    +0.000 S 
ENDBRANCH  29  34
ENDBRANCH  22  29
ENDBRANCH  21  26
ENDBRANCH   1  21
TORSDOF 7
ENDMDL
MODEL 3
REMARK VINA RESULT:      -8.0      4.239     10.792
REMARK  Name = 
REMARK  11 active torsions:
REMARK  status: ('A' for Active; 'I' for Inactive)
REMARK    1  A    between atoms: C_1  and  C_2
REMARK    2  A    between atoms: C_5  and  C_6
REMARK    3  A    between atoms: C_6  and  N_7
REMARK    4  A    between atoms: N_11  and  C_12
REMARK    5  A    between atoms: C_12  and  C_13
REMARK    6  A    between atoms: C_17  and  C_18
REMARK    7  A    between atoms: N_20  and  C_21
REMARK    8  A    between atoms: C_24  and  C_25
REMARK    9  A    between atoms: C_25  and  C_26
REMARK   10  A    between atoms: C_25  and  C_27
REMARK   11  A    between atoms: C_25  and  C_28
REMARK                            x       y       z     vdW  Elec       q    Type
REMARK                         _______ _______ _______ _____ _____    ______ ____
ROOT
ATOM      1  C   UNL     1       1.882  14.092  19.322  0.00  0.00    +0.000 A 
ATOM      2  C   UNL     1       0.746  14.789  18.871  0.00  0.00    +0.000 A 
ATOM      3  C   UNL     1      -0.402  14.107  18.472  0.00  0.00    +0.000 A 
ATOM      4  C   UNL     1      -0.431  12.718  18.530  0.00  0.00    +0.000 A 
ATOM      5  C   UNL     1       0.683  12.006  18.995  0.00  0.00    +0.000 A 
ATOM      6  C   UNL     1       1.838  12.691  19.391  0.00  0.00    +0.000 A 
ENDROOT
BRANCH   5   7
ATOM      7  C   UNL     1       0.604  10.523  18.982  0.00  0.00    +0.000 C 
ATOM      8  O   UNL     1      -0.418  10.022  18.528  0.00  0.00    +0.000 OA
ATOM      9  N   UNL     1       1.677   9.843  19.539  0.00  0.00    +0.000 N 
ATOM     10  H   UNL     1       2.358  10.379  20.061  0.00  0.00    +0.000 HD
BRANCH   9  11
ATOM     11  C   UNL     1       1.840   8.439  19.539  0.00  0.00    +0.000 A 
ATOM     12  C   UNL     1       1.567   7.651  20.653  0.00  0.00    +0.000 A 
ATOM     13  C   UNL     1       1.699   6.260  20.606  0.00  0.00    +0.000 A 
ATOM     14  C   UNL     1       2.103   5.600  19.439  0.00  0.00    +0.000 A 
ATOM     15  C   UNL     1       2.406   6.408  18.325  0.00  0.00    +0.000 A 
ATOM     16  C   UNL     1       2.262   7.805  18.369  0.00  0.00    +0.000 A 
BRANCH  14  17
ATOM     17  C   UNL     1       2.160   4.066  19.355  0.00  0.00    +0.000 C 
ATOM     18  C   UNL     1       1.745   3.512  17.970  0.00  0.00    +0.000 C 
ATOM     19  C   UNL     1       3.608   3.597  19.614  0.00  0.00    +0.000 C 
ATOM     20  C   UNL     1       1.227   3.424  20.401  0.00  0.00    +0.000 C 
ENDBRANCH  14  17
ENDBRANCH   9  11
ENDBRANCH   5   7
BRANCH   1  21
ATOM     21  C   UNL     1       3.088  14.876  19.798  0.00  0.00    +0.000 C 
BRANCH  21  26
ATOM     22  N   UNL     1       6.791  15.193  19.347  0.00  0.00    +0.000 NA
ATOM     23  C   UNL     1       6.195  15.784  20.556  0.00  0.00    +0.000 C 
ATOM     24  C   UNL     1       5.327  17.038  20.415  0.00  0.00    +0.000 C 
ATOM     25  C   UNL     1       4.165  17.089  19.428  0.00  0.00    +0.000 C 
ATOM     26  N   UNL     1       3.630  15.860  18.855  0.00  0.00    +0.000 NA
ATOM     27  C   UNL     1       4.600  15.285  17.913  0.00  0.00    +0.000 C 
ATOM     28  C   UNL     1       5.799  14.501  18.485  0.00  0.00    +0.000 C 
BRANCH  22  29
ATOM     29  C   UNL     1       7.778  14.140  19.744  0.00  0.00    +0.000 C 
BRANCH  29  34
ATOM     30  C   UNL     1      12.333  14.894  17.045  0.00  0.00    +0.000 C 
ATOM     31  C   UNL     1      11.068  14.319  17.585  0.00  0.00    +0.000 A 
ATOM     32  C   UNL     1      10.514  13.081  17.336  0.00  0.00    +0.000 A 
ATOM     33  C   UNL     1       9.295  12.880  18.046  0.00  0.00    +0.000 A 
ATOM     34  C   UNL     1       8.952  13.970  18.819  0.00  0.00    +0.000 A 
ATOM     35  S   UNL     1      10.112  15.227  18.672  0.00  0.00    +0.000 S 
ENDBRANCH  29  34
ENDBRANCH  22  29
ENDBRANCH  21  26
ENDBRANCH   1  21
TORSDOF 7
ENDMDL
MODEL 4
REMARK VINA RESULT:      -8.0      4.318     10.735
REMARK  Name = 
REMARK  11 active torsions:
REMARK  status: ('A' for Active; 'I' for Inactive)
REMARK    1  A    between atoms: C_1  and  C_2
REMARK    2  A    between atoms: C_5  and  C_6
REMARK    3  A    between atoms: C_6  and  N_7
REMARK    4  A    between atoms: N_11  and  C_12
REMARK    5  A    between atoms: C_12  and  C_13
REMARK    6  A    between atoms: C_17  and  C_18
REMARK    7  A    between atoms: N_20  and  C_21
REMARK    8  A    between atoms: C_24  and  C_25
REMARK    9  A    between atoms: C_25  and  C_26
REMARK   10  A    between atoms: C_25  and  C_27
REMARK   11  A    between atoms: C_25  and  C_28
REMARK                            x       y       z     vdW  Elec       q    Type
REMARK                         _______ _______ _______ _____ _____    ______ ____
ROOT
ATOM      1  C   UNL     1       1.427  13.396  19.257  0.00  0.00    +0.000 A 
ATOM      2  C   UNL     1       0.269  13.810  18.573  0.00  0.00    +0.000 A 
ATOM      3  C   UNL     1      -0.748  12.907  18.273  0.00  0.00    +0.000 A 
ATOM      4  C   UNL     1      -0.625  11.578  18.663  0.00  0.00    +0.000 A 
ATOM      5  C   UNL     1       0.512  11.149  19.363  0.00  0.00    +0.000 A 
ATOM      6  C   UNL     1       1.536  12.055  19.659  0.00  0.00    +0.000 A 
ENDROOT
BRANCH   5   7
ATOM      7  C   UNL     1       0.603   9.707  19.704  0.00  0.00    +0.000 C 
ATOM      8  O   UNL     1      -0.254   9.255  20.454  0.00  0.00    +0.000 OA
ATOM      9  N   UNL     1       1.687   9.017  19.181  0.00  0.00    +0.000 N 
ATOM     10  H   UNL     1       2.427   9.555  18.749  0.00  0.00    +0.000 HD
BRANCH   9  11
ATOM     11  C   UNL     1       1.904   7.626  19.306  0.00  0.00    +0.000 A 
ATOM     12  C   UNL     1       1.737   6.944  20.508  0.00  0.00    +0.000 A 
ATOM     13  C   UNL     1       1.920   5.560  20.586  0.00  0.00    +0.000 A 
ATOM     14  C   UNL     1       2.271   4.801  19.463  0.00  0.00    +0.000 A 
ATOM     15  C   UNL     1       2.467   5.503  18.258  0.00  0.00    +0.000 A 
ATOM     16  C   UNL     1       2.272   6.893  18.176  0.00  0.00    +0.000 A 
BRANCH  14  17
ATOM     17  C   UNL     1       2.381   3.269  19.525  0.00  0.00    +0.000 C 
ATOM     18  C   UNL     1       2.023   2.574  18.188  0.00  0.00    +0.000 C 
ATOM     19  C   UNL     1       3.836   2.878  19.861  0.00  0.00    +0.000 C 
ATOM     20  C   UNL     1       1.442   2.694  20.603  0.00  0.00    +0.000 C 
ENDBRANCH  14  17
ENDBRANCH   9  11
ENDBRANCH   5   7
BRANCH   1  21
ATOM     21  C   UNL     1       2.483  14.423  19.610  0.00  0.00    +0.000 C 
BRANCH  21  26
ATOM     22  N   UNL     1       5.817  16.122  19.513  0.00  0.00    +0.000 NA
ATOM     23  C   UNL     1       4.861  16.548  20.548  0.00  0.00    +0.000 C 
ATOM     24  C   UNL     1       3.619  17.339  20.126  0.00  0.00    +0.000 C 
ATOM     25  C   UNL     1       2.694  16.832  19.025  0.00  0.00    +0.000 C 
ATOM     26  N   UNL     1       2.756  15.442  18.591  0.00  0.00    +0.000 NA
ATOM     27  C   UNL     1       4.007  15.205  17.857  0.00  0.00    +0.000 C 
ATOM     28  C   UNL     1       5.306  15.015  18.666  0.00  0.00    +0.000 C 
BRANCH  22  29
ATOM     29  C   UNL     1       7.052  15.587  20.169  0.00  0.00    +0.000 C 
BRANCH  29  34
ATOM     30  C   UNL     1      11.092  16.134  16.708  0.00  0.00    +0.000 C 
ATOM     31  C   UNL     1      10.086  15.578  17.658  0.00  0.00    +0.000 A 
ATOM     32  C   UNL     1       9.962  14.282  18.112  0.00  0.00    +0.000 A 
ATOM     33  C   UNL     1       8.880  14.129  19.028  0.00  0.00    +0.000 A 
ATOM     34  C   UNL     1       8.209  15.314  19.248  0.00  0.00    +0.000 A 
ATOM     35  S   UNL     1       8.896  16.598  18.338  0.00  0.00    +0.000 S 
ENDBRANCH  29  34
ENDBRANCH  22  29
ENDBRANCH  21  26
ENDBRANCH   1  21
TORSDOF 7
ENDMDL
MODEL 5
REMARK VINA RESULT:      -8.0      3.821      9.280
REMARK  Name = 
REMARK  11 active torsions:
REMARK  status: ('A' for Active; 'I' for Inactive)
REMARK    1  A    between atoms: C_1  and  C_2
REMARK    2  A    between atoms: C_5  and  C_6
REMARK    3  A    between atoms: C_6  and  N_7
REMARK    4  A    between atoms: N_11  and  C_12
REMARK    5  A    between atoms: C_12  and  C_13
REMARK    6  A    between atoms: C_17  and  C_18
REMARK    7  A    between atoms: N_20  and  C_21
REMARK    8  A    between atoms: C_24  and  C_25
REMARK    9  A    between atoms: C_25  and  C_26
REMARK   10  A    between atoms: C_25  and  C_27
REMARK   11  A    between atoms: C_25  and  C_28
REMARK                            x       y       z     vdW  Elec       q    Type
REMARK                         _______ _______ _______ _____ _____    ______ ____
ROOT
ATOM      1  C   UNL     1       2.127   7.464  19.778  0.00  0.00    +0.000 A 
ATOM      2  C   UNL     1       2.191   7.924  18.450  0.00  0.00    +0.000 A 
ATOM      3  C   UNL     1       1.477   9.051  18.047  0.00  0.00    +0.000 A 
ATOM      4  C   UNL     1       0.698   9.738  18.971  0.00  0.00    +0.000 A 
ATOM      5  C   UNL     1       0.636   9.308  20.304  0.00  0.00    +0.000 A 
ATOM      6  C   UNL     1       1.349   8.173  20.707  0.00  0.00    +0.000 A 
ENDROOT
BRANCH   5   7
ATOM      7  C   UNL     1      -0.255  10.057  21.226  0.00  0.00    +0.000 C 
ATOM      8  O   UNL     1      -0.636   9.471  22.232  0.00  0.00    +0.000 OA
ATOM      9  N   UNL     1      -0.616  11.336  20.831  0.00  0.00    +0.000 N 
ATOM     10  H   UNL     1      -0.398  11.619  19.884  0.00  0.00    +0.000 HD
BRANCH   9  11
ATOM     11  C   UNL     1      -1.373  12.244  21.605  0.00  0.00    +0.000 A 
ATOM     12  C   UNL     1      -0.836  12.942  22.684  0.00  0.00    +0.000 A 
ATOM     13  C   UNL     1      -1.602  13.864  23.402  0.00  0.00    +0.000 A 
ATOM     14  C   UNL     1      -2.934  14.133  23.066  0.00  0.00    +0.000 A 
ATOM     15  C   UNL     1      -3.478  13.401  21.992  0.00  0.00    +0.000 A 
ATOM     16  C   UNL     1      -2.706  12.482  21.262  0.00  0.00    +0.000 A 
BRANCH  14  17
ATOM     17  C   UNL     1      -3.750  15.214  23.794  0.00  0.00    +0.000 C 
ATOM     18  C   UNL     1      -3.638  16.612  23.138  0.00  0.00    +0.000 C 
ATOM     19  C   UNL     1      -5.243  14.823  23.772  0.00  0.00    +0.000 C 
ATOM     20  C   UNL     1      -3.287  15.359  25.257  0.00  0.00    +0.000 C 
ENDBRANCH  14  17
ENDBRANCH   9  11
ENDBRANCH   5   7
BRANCH   1  21
ATOM     21  C   UNL     1       2.963   6.267  20.186  0.00  0.00    +0.000 C 
BRANCH  21  26
ATOM     22  N   UNL     1       4.192   3.610  17.853  0.00  0.00    +0.000 NA
ATOM     23  C   UNL     1       3.406   4.715  17.280  0.00  0.00    +0.000 C 
ATOM     24  C   UNL     1       1.906   4.791  17.585  0.00  0.00    +0.000 C 
ATOM     25  C   UNL     1       1.386   4.738  19.018  0.00  0.00    +0.000 C 
ATOM     26  N   UNL     1       2.289   4.966  20.139  0.00  0.00    +0.000 NA
ATOM     27  C   UNL     1       3.213   3.831  20.273  0.00  0.00    +0.000 C 
ATOM     28  C   UNL     1       4.418   3.751  19.313  0.00  0.00    +0.000 C 
BRANCH  22  29
ATOM     29  C   UNL     1       5.555   3.599  17.236  0.00  0.00    +0.000 C 
BRANCH  29  34
ATOM     30  C   UNL     1       7.838   8.422  17.592  0.00  0.00    +0.000 C 
ATOM     31  C   UNL     1       7.490   6.986  17.788  0.00  0.00    +0.000 A 
ATOM     32  C   UNL     1       8.029   6.088  18.684  0.00  0.00    +0.000 A 
ATOM     33  C   UNL     1       7.429   4.798  18.585  0.00  0.00    +0.000 A 
ATOM     34  C   UNL     1       6.448   4.749  17.617  0.00  0.00    +0.000 A 
ATOM     35  S   UNL     1       6.267   6.266  16.835  0.00  0.00    +0.000 S 
ENDBRANCH  29  34
ENDBRANCH  22  29
ENDBRANCH  21  26
ENDBRANCH   1  21
TORSDOF 7
ENDMDL
MODEL 6
REMARK VINA RESULT:      -8.0      4.261     10.253
REMARK  Name = 
REMARK  11 active torsions:
REMARK  status: ('A' for Active; 'I' for Inactive)
REMARK    1  A    between atoms: C_1  and  C_2
REMARK    2  A    between atoms: C_5  and  C_6
REMARK    3  A    between atoms: C_6  and  N_7
REMARK    4  A    between atoms: N_11  and  C_12
REMARK    5  A    between atoms: C_12  and  C_13
REMARK    6  A    between atoms: C_17  and  C_18
REMARK    7  A    between atoms: N_20  and  C_21
REMARK    8  A    between atoms: C_24  and  C_25
REMARK    9  A    between atoms: C_25  and  C_26
REMARK   10  A    between atoms: C_25  and  C_27
REMARK   11  A    between atoms: C_25  and  C_28
REMARK                            x       y       z     vdW  Elec       q    Type
REMARK                         _______ _______ _______ _____ _____    ______ ____
ROOT
ATOM      1  C   UNL     1      -0.600  12.852  20.999  0.00  0.00    +0.000 A 
ATOM      2  C   UNL     1      -1.292  13.026  22.212  0.00  0.00    +0.000 A 
ATOM      3  C   UNL     1      -1.509  11.953  23.074  0.00  0.00    +0.000 A 
ATOM      4  C   UNL     1      -1.028  10.693  22.738  0.00  0.00    +0.000 A 
ATOM      5  C   UNL     1      -0.320  10.502  21.543  0.00  0.00    +0.000 A 
ATOM      6  C   UNL     1      -0.106  11.578  20.675  0.00  0.00    +0.000 A 
ENDROOT
BRANCH   5   7
ATOM      7  C   UNL     1       0.121   9.121  21.221  0.00  0.00    +0.000 C 
ATOM      8  O   UNL     1      -0.538   8.201  21.689  0.00  0.00    +0.000 OA
ATOM      9  N   UNL     1       1.275   9.003  20.461  0.00  0.00    +0.000 N 
ATOM     10  H   UNL     1       1.832   9.835  20.314  0.00  0.00    +0.000 HD
BRANCH   9  11
ATOM     11  C   UNL     1       1.805   7.790  19.967  0.00  0.00    +0.000 A 
ATOM     12  C   UNL     1       1.812   6.614  20.712  0.00  0.00    +0.000 A 
ATOM     13  C   UNL     1       2.306   5.421  20.178  0.00  0.00    +0.000 A 
ATOM     14  C   UNL     1       2.808   5.353  18.872  0.00  0.00    +0.000 A 
ATOM     15  C   UNL     1       2.825   6.554  18.136  0.00  0.00    +0.000 A 
ATOM     16  C   UNL     1       2.317   7.751  18.669  0.00  0.00    +0.000 A 
BRANCH  14  17
ATOM     17  C   UNL     1       3.266   4.025  18.249  0.00  0.00    +0.000 C 
ATOM     18  C   UNL     1       2.094   3.147  17.746  0.00  0.00    +0.000 C 
ATOM     19  C   UNL     1       4.166   4.320  17.030  0.00  0.00    +0.000 C 
ATOM     20  C   UNL     1       4.059   3.184  19.270  0.00  0.00    +0.000 C 
ENDBRANCH  14  17
ENDBRANCH   9  11
ENDBRANCH   5   7
BRANCH   1  21
ATOM     21  C   UNL     1      -0.339  14.057  20.118  0.00  0.00    +0.000 C 
BRANCH  21  26
ATOM     22  N   UNL     1       3.058  15.400  19.300  0.00  0.00    +0.000 NA
ATOM     23  C   UNL     1       2.981  14.208  20.161  0.00  0.00    +0.000 C 
ATOM     24  C   UNL     1       2.454  14.362  21.591  0.00  0.00    +0.000 C 
ATOM     25  C   UNL     1       1.120  15.047  21.873  0.00  0.00    +0.000 C 
ATOM     26  N   UNL     1       0.158  15.257  20.799  0.00  0.00    +0.000 NA
ATOM     27  C   UNL     1       0.659  16.282  19.873  0.00  0.00    +0.000 C 
ATOM     28  C   UNL     1       1.729  15.874  18.839  0.00  0.00    +0.000 C 
BRANCH  22  29
ATOM     29  C   UNL     1       3.817  15.063  18.054  0.00  0.00    +0.000 C 
BRANCH  29  34
ATOM     30  C   UNL     1       8.616  17.207  19.042  0.00  0.00    +0.000 C 
ATOM     31  C   UNL     1       7.515  16.313  18.581  0.00  0.00    +0.000 A 
ATOM     32  C   UNL     1       7.611  15.099  17.935  0.00  0.00    +0.000 A 
ATOM     33  C   UNL     1       6.333  14.528  17.661  0.00  0.00    +0.000 A 
ATOM     34  C   UNL     1       5.298  15.324  18.107  0.00  0.00    +0.000 A 
ATOM     35  S   UNL     1       5.886  16.755  18.849  0.00  0.00    +0.000 S 
ENDBRANCH  29  34
ENDBRANCH  22  29
ENDBRANCH  21  26
ENDBRANCH   1  21
TORSDOF 7
ENDMDL
MODEL 7
REMARK VINA RESULT:      -8.0      4.259     10.826
REMARK  Name = 
REMARK  11 active torsions:
REMARK  status: ('A' for Active; 'I' for Inactive)
REMARK    1  A    between atoms: C_1  and  C_2
REMARK    2  A    between atoms: C_5  and  C_6
REMARK    3  A    between atoms: C_6  and  N_7
REMARK    4  A    between atoms: N_11  and  C_12
REMARK    5  A    between atoms: C_12  and  C_13
REMARK    6  A    between atoms: C_17  and  C_18
REMARK    7  A    between atoms: N_20  and  C_21
REMARK    8  A    between atoms: C_24  and  C_25
REMARK    9  A    between atoms: C_25  and  C_26
REMARK   10  A    between atoms: C_25  and  C_27
REMARK   11  A    between atoms: C_25  and  C_28
REMARK                            x       y       z     vdW  Elec       q    Type
REMARK                         _______ _______ _______ _____ _____    ______ ____
ROOT
ATOM      1  C   UNL     1       1.920  13.873  19.281  0.00  0.00    +0.000 A 
ATOM      2  C   UNL     1       0.786  14.572  18.828  0.00  0.00    +0.000 A 
ATOM      3  C   UNL     1      -0.356  13.891  18.410  0.00  0.00    +0.000 A 
ATOM      4  C   UNL     1      -0.381  12.502  18.449  0.00  0.00    +0.000 A 
ATOM      5  C   UNL     1       0.731  11.787  18.915  0.00  0.00    +0.000 A 
ATOM      6  C   UNL     1       1.880  12.470  19.330  0.00  0.00    +0.000 A 
ENDROOT
BRANCH   5   7
ATOM      7  C   UNL     1       0.657  10.304  18.882  0.00  0.00    +0.000 C 
ATOM      8  O   UNL     1      -0.341   9.806  18.376  0.00  0.00    +0.000 OA
ATOM      9  N   UNL     1       1.705   9.621  19.480  0.00  0.00    +0.000 N 
ATOM     10  H   UNL     1       2.360  10.153  20.038  0.00  0.00    +0.000 HD
BRANCH   9  11
ATOM     11  C   UNL     1       1.873   8.217  19.471  0.00  0.00    +0.000 A 
ATOM     12  C   UNL     1       1.576   7.418  20.572  0.00  0.00    +0.000 A 
ATOM     13  C   UNL     1       1.713   6.029  20.516  0.00  0.00    +0.000 A 
ATOM     14  C   UNL     1       2.147   5.380  19.353  0.00  0.00    +0.000 A 
ATOM     15  C   UNL     1       2.474   6.198  18.254  0.00  0.00    +0.000 A 
ATOM     16  C   UNL     1       2.324   7.595  18.306  0.00  0.00    +0.000 A 
BRANCH  14  17
ATOM     17  C   UNL     1       2.210   3.847  19.258  0.00  0.00    +0.000 C 
ATOM     18  C   UNL     1       1.124   3.135  20.102  0.00  0.00    +0.000 C 
ATOM     19  C   UNL     1       1.992   3.421  17.790  0.00  0.00    +0.000 C 
ATOM     20  C   UNL     1       3.577   3.323  19.738  0.00  0.00    +0.000 C 
ENDBRANCH  14  17
ENDBRANCH   9  11
ENDBRANCH   5   7
BRANCH   1  21
ATOM     21  C   UNL     1       3.120  14.655  19.777  0.00  0.00    +0.000 C 
BRANCH  21  26
ATOM     22  N   UNL     1       6.604  16.017  19.890  0.00  0.00    +0.000 NA
ATOM     23  C   UNL     1       5.736  16.258  21.054  0.00  0.00    +0.000 C 
ATOM     24  C   UNL     1       4.567  17.238  20.914  0.00  0.00    +0.000 C 
ATOM     25  C   UNL     1       3.554  17.104  19.782  0.00  0.00    +0.000 C 
ATOM     26  N   UNL     1       3.457  15.865  19.021  0.00  0.00    +0.000 NA
ATOM     27  C   UNL     1       4.648  15.704  18.175  0.00  0.00    +0.000 C 
ATOM     28  C   UNL     1       5.951  15.204  18.833  0.00  0.00    +0.000 C 
BRANCH  22  29
ATOM     29  C   UNL     1       7.801  15.228  20.320  0.00  0.00    +0.000 C 
BRANCH  29  34
ATOM     30  C   UNL     1      11.213  13.084  16.804  0.00  0.00    +0.000 C 
ATOM     31  C   UNL     1      10.429  14.040  17.636  0.00  0.00    +0.000 A 
ATOM     32  C   UNL     1      10.446  15.419  17.604  0.00  0.00    +0.000 A 
ATOM     33  C   UNL     1       9.545  15.994  18.547  0.00  0.00    +0.000 A 
ATOM     34  C   UNL     1       8.864  15.038  19.271  0.00  0.00    +0.000 A 
ATOM     35  S   UNL     1       9.327  13.453  18.803  0.00  0.00    +0.000 S 
ENDBRANCH  29  34
ENDBRANCH  22  29
ENDBRANCH  21  26
ENDBRANCH   1  21
TORSDOF 7
ENDMDL
MODEL 8
REMARK VINA RESULT:      -8.0      4.079     10.193
REMARK  Name = 
REMARK  11 active torsions:
REMARK  status: ('A' for Active; 'I' for Inactive)
REMARK    1  A    between atoms: C_1  and  C_2
REMARK    2  A    between atoms: C_5  and  C_6
REMARK    3  A    between atoms: C_6  and  N_7
REMARK    4  A    between atoms: N_11  and  C_12
REMARK    5  A    between atoms: C_12  and  C_13
REMARK    6  A    between atoms: C_17  and  C_18
REMARK    7  A    between atoms: N_20  and  C_21
REMARK    8  A    between atoms: C_24  and  C_25
REMARK    9  A    between atoms: C_25  and  C_26
REMARK   10  A    between atoms: C_25  and  C_27
REMARK   11  A    between atoms: C_25  and  C_28
REMARK                            x       y       z     vdW  Elec       q    Type
REMARK                         _______ _______ _______ _____ _____    ______ ____
ROOT
ATOM      1  C   UNL     1       0.163  12.792  21.520  0.00  0.00    +0.000 A 
ATOM      2  C   UNL     1      -0.762  12.919  22.573  0.00  0.00    +0.000 A 
ATOM      3  C   UNL     1      -1.334  11.795  23.164  0.00  0.00    +0.000 A 
ATOM      4  C   UNL     1      -0.980  10.527  22.715  0.00  0.00    +0.000 A 
ATOM      5  C   UNL     1      -0.046  10.378  21.681  0.00  0.00    +0.000 A 
ATOM      6  C   UNL     1       0.525  11.508  21.084  0.00  0.00    +0.000 A 
ENDROOT
BRANCH   5   7
ATOM      7  C   UNL     1       0.248   8.999  21.216  0.00  0.00    +0.000 C 
ATOM      8  O   UNL     1      -0.563   8.127  21.505  0.00  0.00    +0.000 OA
ATOM      9  N   UNL     1       1.446   8.818  20.541  0.00  0.00    +0.000 N 
ATOM     10  H   UNL     1       2.115   9.577  20.550  0.00  0.00    +0.000 HD
BRANCH   9  11
ATOM     11  C   UNL     1       1.866   7.611  19.936  0.00  0.00    +0.000 A 
ATOM     12  C   UNL     1       2.393   7.560  18.649  0.00  0.00    +0.000 A 
ATOM     13  C   UNL     1       2.837   6.355  18.097  0.00  0.00    +0.000 A 
ATOM     14  C   UNL     1       2.781   5.153  18.813  0.00  0.00    +0.000 A 
ATOM     15  C   UNL     1       2.220   5.210  20.104  0.00  0.00    +0.000 A 
ATOM     16  C   UNL     1       1.783   6.422  20.664  0.00  0.00    +0.000 A 
BRANCH  14  17
ATOM     17  C   UNL     1       3.355   3.845  18.245  0.00  0.00    +0.000 C 
ATOM     18  C   UNL     1       2.264   2.847  17.784  0.00  0.00    +0.000 C 
ATOM     19  C   UNL     1       4.224   4.166  17.010  0.00  0.00    +0.000 C 
ATOM     20  C   UNL     1       4.219   3.123  19.296  0.00  0.00    +0.000 C 
ENDBRANCH  14  17
ENDBRANCH   9  11
ENDBRANCH   5   7
BRANCH   1  21
ATOM     21  C   UNL     1       0.802  14.039  20.943  0.00  0.00    +0.000 C 
BRANCH  21  26
ATOM     22  N   UNL     1       3.848  15.747  19.594  0.00  0.00    +0.000 NA
ATOM     23  C   UNL     1       2.701  16.589  19.973  0.00  0.00    +0.000 C 
ATOM     24  C   UNL     1       1.437  16.548  19.109  0.00  0.00    +0.000 C 
ATOM     25  C   UNL     1       0.761  15.226  18.757  0.00  0.00    +0.000 C 
ATOM     26  N   UNL     1       1.078  14.015  19.503  0.00  0.00    +0.000 NA
ATOM     27  C   UNL     1       2.443  13.575  19.183  0.00  0.00    +0.000 C 
ATOM     28  C   UNL     1       3.624  14.304  19.857  0.00  0.00    +0.000 C 
BRANCH  22  29
ATOM     29  C   UNL     1       5.035  16.126  20.424  0.00  0.00    +0.000 C 
BRANCH  29  34
ATOM     30  C   UNL     1       9.303  13.987  18.014  0.00  0.00    +0.000 C 
ATOM     31  C   UNL     1       8.277  14.384  19.020  0.00  0.00    +0.000 A 
ATOM     32  C   UNL     1       8.247  14.104  20.370  0.00  0.00    +0.000 A 
ATOM     33  C   UNL     1       7.106  14.665  21.014  0.00  0.00    +0.000 A 
ATOM     34  C   UNL     1       6.297  15.357  20.138  0.00  0.00    +0.000 A 
ATOM     35  S   UNL     1       6.928  15.317  18.542  0.00  0.00    +0.000 S 
ENDBRANCH  29  34
ENDBRANCH  22  29
ENDBRANCH  21  26
ENDBRANCH   1  21
TORSDOF 7
ENDMDL
MODEL 9
REMARK VINA RESULT:      -8.0      3.909      9.038
REMARK  Name = 
REMARK  11 active torsions:
REMARK  status: ('A' for Active; 'I' for Inactive)
REMARK    1  A    between atoms: C_1  and  C_2
REMARK    2  A    between atoms: C_5  and  C_6
REMARK    3  A    between atoms: C_6  and  N_7
REMARK    4  A    between atoms: N_11  and  C_12
REMARK    5  A    between atoms: C_12  and  C_13
REMARK    6  A    between atoms: C_17  and  C_18
REMARK    7  A    between atoms: N_20  and  C_21
REMARK    8  A    between atoms: C_24  and  C_25
REMARK    9  A    between atoms: C_25  and  C_26
REMARK   10  A    between atoms: C_25  and  C_27
REMARK   11  A    between atoms: C_25  and  C_28
REMARK                            x       y       z     vdW  Elec       q    Type
REMARK                         _______ _______ _______ _____ _____    ______ ____
ROOT
ATOM      1  C   UNL     1       2.254   7.253  19.687  0.00  0.00    +0.000 A 
ATOM      2  C   UNL     1       2.138   7.707  18.360  0.00  0.00    +0.000 A 
ATOM      3  C   UNL     1       1.510   8.916  18.068  0.00  0.00    +0.000 A 
ATOM      4  C   UNL     1       0.999   9.692  19.102  0.00  0.00    +0.000 A 
ATOM      5  C   UNL     1       1.122   9.268  20.433  0.00  0.00    +0.000 A 
ATOM      6  C   UNL     1       1.748   8.051  20.726  0.00  0.00    +0.000 A 
ENDROOT
BRANCH   5   7
ATOM      7  C   UNL     1       0.509  10.120  21.484  0.00  0.00    +0.000 C 
ATOM      8  O   UNL     1       0.652   9.762  22.646  0.00  0.00    +0.000 OA
ATOM      9  N   UNL     1      -0.217  11.216  21.043  0.00  0.00    +0.000 N 
ATOM     10  H   UNL     1      -0.426  11.280  20.055  0.00  0.00    +0.000 HD
BRANCH   9  11
ATOM     11  C   UNL     1      -0.794  12.200  21.878  0.00  0.00    +0.000 A 
ATOM     12  C   UNL     1      -0.206  13.443  22.093  0.00  0.00    +0.000 A 
ATOM     13  C   UNL     1      -0.825  14.408  22.891  0.00  0.00    +0.000 A 
ATOM     14  C   UNL     1      -2.063  14.173  23.502  0.00  0.00    +0.000 A 
ATOM     15  C   UNL     1      -2.637  12.902  23.303  0.00  0.00    +0.000 A 
ATOM     16  C   UNL     1      -2.020  11.935  22.491  0.00  0.00    +0.000 A 
BRANCH  14  17
ATOM     17  C   UNL     1      -2.791  15.264  24.303  0.00  0.00    +0.000 C 
ATOM     18  C   UNL     1      -2.510  16.696  23.784  0.00  0.00    +0.000 C 
ATOM     19  C   UNL     1      -4.314  15.037  24.202  0.00  0.00    +0.000 C 
ATOM     20  C   UNL     1      -2.373  15.227  25.786  0.00  0.00    +0.000 C 
ENDBRANCH  14  17
ENDBRANCH   9  11
ENDBRANCH   5   7
BRANCH   1  21
ATOM     21  C   UNL     1       2.993   5.960  19.963  0.00  0.00    +0.000 C 
BRANCH  21  26
ATOM     22  N   UNL     1       3.507   2.831  17.972  0.00  0.00    +0.000 NA
ATOM     23  C   UNL     1       2.795   3.946  17.326  0.00  0.00    +0.000 C 
ATOM     24  C   UNL     1       1.380   4.292  17.800  0.00  0.00    +0.000 C 
ATOM     25  C   UNL     1       1.076   4.531  19.275  0.00  0.00    +0.000 C 
ATOM     26  N   UNL     1       2.157   4.782  20.220  0.00  0.00    +0.000 NA
ATOM     27  C   UNL     1       2.936   3.553  20.425  0.00  0.00    +0.000 C 
ATOM     28  C   UNL     1       3.964   3.151  19.348  0.00  0.00    +0.000 C 
BRANCH  22  29
ATOM     29  C   UNL     1       4.751   2.523  17.199  0.00  0.00    +0.000 C 
BRANCH  29  34
ATOM     30  C   UNL     1       7.627   7.032  17.171  0.00  0.00    +0.000 C 
ATOM     31  C   UNL     1       6.901   5.795  16.764  0.00  0.00    +0.000 A 
ATOM     32  C   UNL     1       6.803   5.233  15.509  0.00  0.00    +0.000 A 
ATOM     33  C   UNL     1       6.029   4.035  15.510  0.00  0.00    +0.000 A 
ATOM     34  C   UNL     1       5.558   3.717  16.767  0.00  0.00    +0.000 A 
ATOM     35  S   UNL     1       6.057   4.876  17.931  0.00  0.00    +0.000 S 
ENDBRANCH  29  34
ENDBRANCH  22  29
ENDBRANCH  21  26
ENDBRANCH   1  21
TORSDOF 7
ENDMDL
