MODEL 1
REMARK VINA RESULT:      -7.1      0.000      0.000
REMARK  Name = 
REMARK  12 active torsions:
REMARK  status: ('A' for Active; 'I' for Inactive)
REMARK    1  A    between atoms: C_1  and  O_2
REMARK    2  A    between atoms: O_2  and  C_3
REMARK    3  A    between atoms: C_5  and  C_6
REMARK    4  A    between atoms: C_6  and  C_9
REMARK    5  A    between atoms: N_7  and  O_8
REMARK    6  A    between atoms: C_12  and  N_13
REMARK    7  A    between atoms: N_13  and  C_14
REMARK    8  A    between atoms: N_13  and  C_15
REMARK    9  A    between atoms: C_19  and  O_20
REMARK   10  A    between atoms: O_20  and  C_21
REMARK   11  A    between atoms: C_22  and  O_23
REMARK   12  A    between atoms: O_23  and  C_24
REMARK                            x       y       z     vdW  Elec       q    Type
REMARK                         _______ _______ _______ _____ _____    ______ ____
ROOT
ATOM      1  C   UNL     1       3.391   4.433  17.402  0.00  0.00    +0.000 C 
ATOM      2  N   UNL     1       2.754   3.314  17.184  0.00  0.00    +0.000 NA
ENDROOT
BRANCH   1   5
ATOM      3  C   UNL     1       6.029   4.113  14.707  0.00  0.00    +0.000 A 
ATOM      4  C   UNL     1       4.954   3.824  15.563  0.00  0.00    +0.000 A 
ATOM      5  C   UNL     1       4.719   4.587  16.712  0.00  0.00    +0.000 A 
ATOM      6  C   UNL     1       5.665   5.535  17.085  0.00  0.00    +0.000 A 
ATOM      7  C   UNL     1       6.778   5.815  16.270  0.00  0.00    +0.000 A 
ATOM      8  C   UNL     1       6.967   5.110  15.059  0.00  0.00    +0.000 A 
BRANCH   3  10
ATOM      9  C   UNL     1       5.106   3.511  12.598  0.00  0.00    +0.000 C 
ATOM     10  O   UNL     1       6.181   3.417  13.535  0.00  0.00    +0.000 OA
ENDBRANCH   3  10
BRANCH   7  11
ATOM     11  O   UNL     1       7.526   6.836  16.801  0.00  0.00    +0.000 OA
ATOM     12  C   UNL     1       7.795   6.864  18.193  0.00  0.00    +0.000 C 
ENDBRANCH   7  11
BRANCH   8  13
ATOM     13  O   UNL     1       8.072   5.461  14.331  0.00  0.00    +0.000 OA
ATOM     14  C   UNL     1       8.000   5.607  12.921  0.00  0.00    +0.000 C 
ENDBRANCH   8  13
ENDBRANCH   1   5
BRANCH   1  15
ATOM     15  C   UNL     1       2.857   5.599  18.202  0.00  0.00    +0.000 A 
ATOM     16  C   UNL     1       2.559   5.457  19.558  0.00  0.00    +0.000 A 
ATOM     17  C   UNL     1       2.023   6.529  20.289  0.00  0.00    +0.000 A 
ATOM     18  C   UNL     1       1.828   7.804  19.734  0.00  0.00    +0.000 A 
ATOM     19  C   UNL     1       2.171   7.926  18.377  0.00  0.00    +0.000 A 
ATOM     20  C   UNL     1       2.645   6.845  17.613  0.00  0.00    +0.000 A 
BRANCH  18  21
ATOM     21  N   UNL     1       1.266   8.841  20.468  0.00  0.00    +0.000 N 
ATOM     22  C   UNL     1       1.446   8.919  21.919  0.00  0.00    +0.000 C 
ATOM     23  C   UNL     1       0.919  10.120  19.851  0.00  0.00    +0.000 C 
ENDBRANCH  18  21
ENDBRANCH   1  15
BRANCH   2  24
ATOM     24  O   UNL     1       1.448   3.298  17.689  0.00  0.00    +0.000 OA
ATOM     25  H   UNL     1       1.033   2.585  17.167  0.00  0.00    +0.000 HD
ENDBRANCH   2  24
TORSDOF 7
ENDMDL
MODEL 2
REMARK VINA RESULT:      -6.9      5.228      9.872
REMARK  Name = 
REMARK  12 active torsions:
REMARK  status: ('A' for Active; 'I' for Inactive)
REMARK    1  A    between atoms: C_1  and  O_2
REMARK    2  A    between atoms: O_2  and  C_3
REMARK    3  A    between atoms: C_5  and  C_6
REMARK    4  A    between atoms: C_6  and  C_9
REMARK    5  A    between atoms: N_7  and  O_8
REMARK    6  A    between atoms: C_12  and  N_13
REMARK    7  A    between atoms: N_13  and  C_14
REMARK    8  A    between atoms: N_13  and  C_15
REMARK    9  A    between atoms: C_19  and  O_20
REMARK   10  A    between atoms: O_20  and  C_21
REMARK   11  A    between atoms: C_22  and  O_23
REMARK   12  A    between atoms: O_23  and  C_24
REMARK                            x       y       z     vdW  Elec       q    Type
REMARK                         _______ _______ _______ _____ _____    ______ ____
ROOT
ATOM      1  C   UNL     1       0.248  11.067  18.802  0.00  0.00    +0.000 C 
ATOM      2  N   UNL     1       0.831  12.232  18.708  0.00  0.00    +0.000 NA
ENDROOT
BRANCH   1   5
ATOM      3  C   UNL     1      -3.373  12.127  19.107  0.00  0.00    +0.000 A 
ATOM      4  C   UNL     1      -2.029  11.863  19.417  0.00  0.00    +0.000 A 
ATOM      5  C   UNL     1      -1.242  11.050  18.594  0.00  0.00    +0.000 A 
ATOM      6  C   UNL     1      -1.857  10.371  17.548  0.00  0.00    +0.000 A 
ATOM      7  C   UNL     1      -3.215  10.580  17.241  0.00  0.00    +0.000 A 
ATOM      8  C   UNL     1      -3.989  11.473  18.015  0.00  0.00    +0.000 A 
BRANCH   3  10
ATOM      9  C   UNL     1      -4.446  12.563  21.186  0.00  0.00    +0.000 C 
ATOM     10  O   UNL     1      -4.095  13.005  19.873  0.00  0.00    +0.000 OA
ENDBRANCH   3  10
BRANCH   7  11
ATOM     11  O   UNL     1      -3.578   9.864  16.127  0.00  0.00    +0.000 OA
ATOM     12  C   UNL     1      -3.306  10.380  14.835  0.00  0.00    +0.000 C 
ENDBRANCH   7  11
BRANCH   8  13
ATOM     13  O   UNL     1      -5.296  11.617  17.632  0.00  0.00    +0.000 OA
ATOM     14  C   UNL     1      -6.331  10.903  18.290  0.00  0.00    +0.000 C 
ENDBRANCH   8  13
ENDBRANCH   1   5
BRANCH   1  15
ATOM     15  C   UNL     1       0.960   9.749  19.004  0.00  0.00    +0.000 A 
ATOM     16  C   UNL     1       1.002   9.146  20.262  0.00  0.00    +0.000 A 
ATOM     17  C   UNL     1       1.701   7.944  20.456  0.00  0.00    +0.000 A 
ATOM     18  C   UNL     1       2.323   7.249  19.406  0.00  0.00    +0.000 A 
ATOM     19  C   UNL     1       2.233   7.862  18.146  0.00  0.00    +0.000 A 
ATOM     20  C   UNL     1       1.595   9.100  17.946  0.00  0.00    +0.000 A 
BRANCH  18  21
ATOM     21  N   UNL     1       3.036   6.077  19.629  0.00  0.00    +0.000 N 
ATOM     22  C   UNL     1       2.434   4.958  20.355  0.00  0.00    +0.000 C 
ATOM     23  C   UNL     1       4.161   5.689  18.779  0.00  0.00    +0.000 C 
ENDBRANCH  18  21
ENDBRANCH   1  15
BRANCH   2  24
ATOM     24  O   UNL     1       2.229  12.168  18.718  0.00  0.00    +0.000 OA
ATOM     25  H   UNL     1       2.398  11.414  19.314  0.00  0.00    +0.000 HD
ENDBRANCH   2  24
TORSDOF 7
ENDMDL
MODEL 3
REMARK VINA RESULT:      -6.9      3.063      6.355
REMARK  Name = 
REMARK  12 active torsions:
REMARK  status: ('A' for Active; 'I' for Inactive)
REMARK    1  A    between atoms: C_1  and  O_2
REMARK    2  A    between atoms: O_2  and  C_3
REMARK    3  A    between atoms: C_5  and  C_6
REMARK    4  A    between atoms: C_6  and  C_9
REMARK    5  A    between atoms: N_7  and  O_8
REMARK    6  A    between atoms: C_12  and  N_13
REMARK    7  A    between atoms: N_13  and  C_14
REMARK    8  A    between atoms: N_13  and  C_15
REMARK    9  A    between atoms: C_19  and  O_20
REMARK   10  A    between atoms: O_20  and  C_21
REMARK   11  A    between atoms: C_22  and  O_23
REMARK   12  A    between atoms: O_23  and  C_24
REMARK                            x       y       z     vdW  Elec       q    Type
REMARK                         _______ _______ _______ _____ _____    ______ ____
ROOT
ATOM      1  C   UNL     1       6.206   5.893  16.976  0.00  0.00    +0.000 C 
ATOM      2  N   UNL     1       6.484   5.217  15.894  0.00  0.00    +0.000 NA
ENDROOT
BRANCH   1   5
ATOM      3  C   UNL     1       4.073   3.630  19.134  0.00  0.00    +0.000 A 
ATOM      4  C   UNL     1       4.983   4.078  18.163  0.00  0.00    +0.000 A 
ATOM      5  C   UNL     1       5.017   5.420  17.768  0.00  0.00    +0.000 A 
ATOM      6  C   UNL     1       4.022   6.274  18.231  0.00  0.00    +0.000 A 
ATOM      7  C   UNL     1       3.068   5.840  19.171  0.00  0.00    +0.000 A 
ATOM      8  C   UNL     1       3.089   4.508  19.643  0.00  0.00    +0.000 A 
BRANCH   3  10
ATOM      9  C   UNL     1       3.605   1.338  18.693  0.00  0.00    +0.000 C 
ATOM     10  O   UNL     1       4.125   2.333  19.578  0.00  0.00    +0.000 OA
ENDBRANCH   3  10
BRANCH   7  11
ATOM     11  O   UNL     1       2.240   6.873  19.536  0.00  0.00    +0.000 OA
ATOM     12  C   UNL     1       2.196   8.054  18.751  0.00  0.00    +0.000 C 
ENDBRANCH   7  11
BRANCH   8  13
ATOM     13  O   UNL     1       2.127   4.186  20.562  0.00  0.00    +0.000 OA
ATOM     14  C   UNL     1       0.894   3.610  20.155  0.00  0.00    +0.000 C 
ENDBRANCH   8  13
ENDBRANCH   1   5
BRANCH   1  15
ATOM     15  C   UNL     1       7.031   7.031  17.530  0.00  0.00    +0.000 A 
ATOM     16  C   UNL     1       6.874   8.329  17.043  0.00  0.00    +0.000 A 
ATOM     17  C   UNL     1       7.672   9.378  17.529  0.00  0.00    +0.000 A 
ATOM     18  C   UNL     1       8.604   9.205  18.564  0.00  0.00    +0.000 A 
ATOM     19  C   UNL     1       8.714   7.895  19.059  0.00  0.00    +0.000 A 
ATOM     20  C   UNL     1       7.971   6.820  18.538  0.00  0.00    +0.000 A 
BRANCH  18  21
ATOM     21  N   UNL     1       9.406  10.250  19.006  0.00  0.00    +0.000 N 
ATOM     22  C   UNL     1       9.914  11.256  18.070  0.00  0.00    +0.000 C 
ATOM     23  C   UNL     1       9.385  10.701  20.397  0.00  0.00    +0.000 C 
ENDBRANCH  18  21
ENDBRANCH   1  15
BRANCH   2  24
ATOM     24  O   UNL     1       7.701   5.573  15.301  0.00  0.00    +0.000 OA
ATOM     25  H   UNL     1       8.109   6.135  15.987  0.00  0.00    +0.000 HD
ENDBRANCH   2  24
TORSDOF 7
ENDMDL
MODEL 4
REMARK VINA RESULT:      -6.8      0.862      1.105
REMARK  Name = 
REMARK  12 active torsions:
REMARK  status: ('A' for Active; 'I' for Inactive)
REMARK    1  A    between atoms: C_1  and  O_2
REMARK    2  A    between atoms: O_2  and  C_3
REMARK    3  A    between atoms: C_5  and  C_6
REMARK    4  A    between atoms: C_6  and  C_9
REMARK    5  A    between atoms: N_7  and  O_8
REMARK    6  A    between atoms: C_12  and  N_13
REMARK    7  A    between atoms: N_13  and  C_14
REMARK    8  A    between atoms: N_13  and  C_15
REMARK    9  A    between atoms: C_19  and  O_20
REMARK   10  A    between atoms: O_20  and  C_21
REMARK   11  A    between atoms: C_22  and  O_23
REMARK   12  A    between atoms: O_23  and  C_24
REMARK                            x       y       z     vdW  Elec       q    Type
REMARK                         _______ _______ _______ _____ _____    ______ ____
ROOT
ATOM      1  C   UNL     1       3.227   5.081  17.755  0.00  0.00    +0.000 C 
ATOM      2  N   UNL     1       2.595   3.939  17.774  0.00  0.00    +0.000 NA
ENDROOT
BRANCH   1   5
ATOM      3  C   UNL     1       5.903   4.267  15.204  0.00  0.00    +0.000 A 
ATOM      4  C   UNL     1       4.803   4.147  16.070  0.00  0.00    +0.000 A 
ATOM      5  C   UNL     1       4.573   5.085  17.081  0.00  0.00    +0.000 A 
ATOM      6  C   UNL     1       5.543   6.051  17.325  0.00  0.00    +0.000 A 
ATOM      7  C   UNL     1       6.679   6.167  16.502  0.00  0.00    +0.000 A 
ATOM      8  C   UNL     1       6.868   5.277  15.420  0.00  0.00    +0.000 A 
BRANCH   3  10
ATOM      9  C   UNL     1       5.172   3.575  13.048  0.00  0.00    +0.000 C 
ATOM     10  O   UNL     1       6.053   3.392  14.158  0.00  0.00    +0.000 OA
ENDBRANCH   3  10
BRANCH   7  11
ATOM     11  O   UNL     1       7.452   7.234  16.887  0.00  0.00    +0.000 OA
ATOM     12  C   UNL     1       7.953   7.303  18.213  0.00  0.00    +0.000 C 
ENDBRANCH   7  11
BRANCH   8  13
ATOM     13  O   UNL     1       7.997   5.477  14.673  0.00  0.00    +0.000 OA
ATOM     14  C   UNL     1       7.919   5.651  13.266  0.00  0.00    +0.000 C 
ENDBRANCH   8  13
ENDBRANCH   1   5
BRANCH   1  15
ATOM     15  C   UNL     1       2.675   6.392  18.265  0.00  0.00    +0.000 A 
ATOM     16  C   UNL     1       2.477   6.600  19.630  0.00  0.00    +0.000 A 
ATOM     17  C   UNL     1       1.923   7.803  20.098  0.00  0.00    +0.000 A 
ATOM     18  C   UNL     1       1.611   8.876  19.248  0.00  0.00    +0.000 A 
ATOM     19  C   UNL     1       1.855   8.650  17.883  0.00  0.00    +0.000 A 
ATOM     20  C   UNL     1       2.346   7.428  17.391  0.00  0.00    +0.000 A 
BRANCH  18  21
ATOM     21  N   UNL     1       1.034  10.044  19.730  0.00  0.00    +0.000 N 
ATOM     22  C   UNL     1       1.295  11.333  19.087  0.00  0.00    +0.000 C 
ATOM     23  C   UNL     1      -0.192  10.025  20.527  0.00  0.00    +0.000 C 
ENDBRANCH  18  21
ENDBRANCH   1  15
BRANCH   2  24
ATOM     24  O   UNL     1       1.277   4.028  18.236  0.00  0.00    +0.000 OA
ATOM     25  H   UNL     1       1.362   4.648  18.986  0.00  0.00    +0.000 HD
ENDBRANCH   2  24
TORSDOF 7
ENDMDL
MODEL 5
REMARK VINA RESULT:      -6.8      0.404      1.267
REMARK  Name = 
REMARK  12 active torsions:
REMARK  status: ('A' for Active; 'I' for Inactive)
REMARK    1  A    between atoms: C_1  and  O_2
REMARK    2  A    between atoms: O_2  and  C_3
REMARK    3  A    between atoms: C_5  and  C_6
REMARK    4  A    between atoms: C_6  and  C_9
REMARK    5  A    between atoms: N_7  and  O_8
REMARK    6  A    between atoms: C_12  and  N_13
REMARK    7  A    between atoms: N_13  and  C_14
REMARK    8  A    between atoms: N_13  and  C_15
REMARK    9  A    between atoms: C_19  and  O_20
REMARK   10  A    between atoms: O_20  and  C_21
REMARK   11  A    between atoms: C_22  and  O_23
REMARK   12  A    between atoms: O_23  and  C_24
REMARK                            x       y       z     vdW  Elec       q    Type
REMARK                         _______ _______ _______ _____ _____    ______ ____
ROOT
ATOM      1  C   UNL     1       3.849   4.217  17.689  0.00  0.00    +0.000 C 
ATOM      2  N   UNL     1       3.364   3.005  17.649  0.00  0.00    +0.000 NA
ENDROOT
BRANCH   1   5
ATOM      3  C   UNL     1       6.210   4.132  14.732  0.00  0.00    +0.000 A 
ATOM      4  C   UNL     1       5.243   3.757  15.679  0.00  0.00    +0.000 A 
ATOM      5  C   UNL     1       5.092   4.464  16.877  0.00  0.00    +0.000 A 
ATOM      6  C   UNL     1       6.026   5.444  17.193  0.00  0.00    +0.000 A 
ATOM      7  C   UNL     1       7.035   5.810  16.282  0.00  0.00    +0.000 A 
ATOM      8  C   UNL     1       7.132   5.161  15.030  0.00  0.00    +0.000 A 
BRANCH   3  10
ATOM      9  C   UNL     1       5.099   3.549  12.710  0.00  0.00    +0.000 C 
ATOM     10  O   UNL     1       6.273   3.488  13.523  0.00  0.00    +0.000 OA
ENDBRANCH   3  10
BRANCH   7  11
ATOM     11  O   UNL     1       7.786   6.846  16.779  0.00  0.00    +0.000 OA
ATOM     12  C   UNL     1       7.740   7.152  18.163  0.00  0.00    +0.000 C 
ENDBRANCH   7  11
BRANCH   8  13
ATOM     13  O   UNL     1       8.140   5.594  14.211  0.00  0.00    +0.000 OA
ATOM     14  C   UNL     1       8.032   5.480  12.800  0.00  0.00    +0.000 C 
ENDBRANCH   8  13
ENDBRANCH   1   5
BRANCH   1  15
ATOM     15  C   UNL     1       3.212   5.389  18.401  0.00  0.00    +0.000 A 
ATOM     16  C   UNL     1       2.958   6.582  17.724  0.00  0.00    +0.000 A 
ATOM     17  C   UNL     1       2.405   7.683  18.398  0.00  0.00    +0.000 A 
ATOM     18  C   UNL     1       2.012   7.629  19.745  0.00  0.00    +0.000 A 
ATOM     19  C   UNL     1       2.247   6.404  20.389  0.00  0.00    +0.000 A 
ATOM     20  C   UNL     1       2.862   5.313  19.748  0.00  0.00    +0.000 A 
BRANCH  18  21
ATOM     21  N   UNL     1       1.497   8.742  20.399  0.00  0.00    +0.000 N 
ATOM     22  C   UNL     1       0.779   9.782  19.661  0.00  0.00    +0.000 C 
ATOM     23  C   UNL     1       1.192   8.721  21.829  0.00  0.00    +0.000 C 
ENDBRANCH  18  21
ENDBRANCH   1  15
BRANCH   2  24
ATOM     24  O   UNL     1       2.112   2.876  18.260  0.00  0.00    +0.000 OA
ATOM     25  H   UNL     1       2.116   3.614  18.900  0.00  0.00    +0.000 HD
ENDBRANCH   2  24
TORSDOF 7
ENDMDL
MODEL 6
REMARK VINA RESULT:      -6.7      2.903      6.575
REMARK  Name = 
REMARK  12 active torsions:
REMARK  status: ('A' for Active; 'I' for Inactive)
REMARK    1  A    between atoms: C_1  and  O_2
REMARK    2  A    between atoms: O_2  and  C_3
REMARK    3  A    between atoms: C_5  and  C_6
REMARK    4  A    between atoms: C_6  and  C_9
REMARK    5  A    between atoms: N_7  and  O_8
REMARK    6  A    between atoms: C_12  and  N_13
REMARK    7  A    between atoms: N_13  and  C_14
REMARK    8  A    between atoms: N_13  and  C_15
REMARK    9  A    between atoms: C_19  and  O_20
REMARK   10  A    between atoms: O_20  and  C_21
REMARK   11  A    between atoms: C_22  and  O_23
REMARK   12  A    between atoms: O_23  and  C_24
REMARK                            x       y       z     vdW  Elec       q    Type
REMARK                         _______ _______ _______ _____ _____    ______ ____
ROOT
ATOM      1  C   UNL     1       6.196   5.860  16.862  0.00  0.00    +0.000 C 
ATOM      2  N   UNL     1       6.496   5.210  15.770  0.00  0.00    +0.000 NA
ENDROOT
BRANCH   1   5
ATOM      3  C   UNL     1       2.993   5.979  18.877  0.00  0.00    +0.000 A 
ATOM      4  C   UNL     1       4.271   6.288  18.381  0.00  0.00    +0.000 A 
ATOM      5  C   UNL     1       4.995   5.363  17.622  0.00  0.00    +0.000 A 
ATOM      6  C   UNL     1       4.501   4.069  17.503  0.00  0.00    +0.000 A 
ATOM      7  C   UNL     1       3.244   3.717  18.029  0.00  0.00    +0.000 A 
ATOM      8  C   UNL     1       2.467   4.677  18.718  0.00  0.00    +0.000 A 
BRANCH   3  10
ATOM      9  C   UNL     1       2.042   8.160  18.829  0.00  0.00    +0.000 C 
ATOM     10  O   UNL     1       2.261   6.935  19.533  0.00  0.00    +0.000 OA
ENDBRANCH   3  10
BRANCH   7  11
ATOM     11  O   UNL     1       2.936   2.414  17.724  0.00  0.00    +0.000 OA
ATOM     12  C   UNL     1       3.432   1.362  18.537  0.00  0.00    +0.000 C 
ENDBRANCH   7  11
BRANCH   8  13
ATOM     13  O   UNL     1       1.256   4.241  19.183  0.00  0.00    +0.000 OA
ATOM     14  C   UNL     1       1.118   3.748  20.507  0.00  0.00    +0.000 C 
ENDBRANCH   8  13
ENDBRANCH   1   5
BRANCH   1  15
ATOM     15  C   UNL     1       7.006   6.988  17.457  0.00  0.00    +0.000 A 
ATOM     16  C   UNL     1       6.834   8.300  17.013  0.00  0.00    +0.000 A 
ATOM     17  C   UNL     1       7.619   9.341  17.537  0.00  0.00    +0.000 A 
ATOM     18  C   UNL     1       8.550   9.143  18.568  0.00  0.00    +0.000 A 
ATOM     19  C   UNL     1       8.675   7.819  19.019  0.00  0.00    +0.000 A 
ATOM     20  C   UNL     1       7.946   6.754  18.459  0.00  0.00    +0.000 A 
BRANCH  18  21
ATOM     21  N   UNL     1       9.339  10.183  19.048  0.00  0.00    +0.000 N 
ATOM     22  C   UNL     1       9.887  11.191  18.139  0.00  0.00    +0.000 C 
ATOM     23  C   UNL     1       9.264  10.626  20.439  0.00  0.00    +0.000 C 
ENDBRANCH  18  21
ENDBRANCH   1  15
BRANCH   2  24
ATOM     24  O   UNL     1       7.722   5.585  15.207  0.00  0.00    +0.000 OA
ATOM     25  H   UNL     1       7.825   4.936  14.485  0.00  0.00    +0.000 HD
ENDBRANCH   2  24
TORSDOF 7
ENDMDL
MODEL 7
REMARK VINA RESULT:      -6.7      0.340      2.691
REMARK  Name = 
REMARK  12 active torsions:
REMARK  status: ('A' for Active; 'I' for Inactive)
REMARK    1  A    between atoms: C_1  and  O_2
REMARK    2  A    between atoms: O_2  and  C_3
REMARK    3  A    between atoms: C_5  and  C_6
REMARK    4  A    between atoms: C_6  and  C_9
REMARK    5  A    between atoms: N_7  and  O_8
REMARK    6  A    between atoms: C_12  and  N_13
REMARK    7  A    between atoms: N_13  and  C_14
REMARK    8  A    between atoms: N_13  and  C_15
REMARK    9  A    between atoms: C_19  and  O_20
REMARK   10  A    between atoms: O_20  and  C_21
REMARK   11  A    between atoms: C_22  and  O_23
REMARK   12  A    between atoms: O_23  and  C_24
REMARK                            x       y       z     vdW  Elec       q    Type
REMARK                         _______ _______ _______ _____ _____    ______ ____
ROOT
ATOM      1  C   UNL     1       3.636   4.468  17.617  0.00  0.00    +0.000 C 
ATOM      2  N   UNL     1       3.261   3.219  17.684  0.00  0.00    +0.000 NA
ENDROOT
BRANCH   1   5
ATOM      3  C   UNL     1       6.818   5.952  16.201  0.00  0.00    +0.000 A 
ATOM      4  C   UNL     1       5.631   5.793  16.934  0.00  0.00    +0.000 A 
ATOM      5  C   UNL     1       4.713   4.786  16.614  0.00  0.00    +0.000 A 
ATOM      6  C   UNL     1       4.914   4.048  15.453  0.00  0.00    +0.000 A 
ATOM      7  C   UNL     1       6.073   4.217  14.673  0.00  0.00    +0.000 A 
ATOM      8  C   UNL     1       7.049   5.169  15.046  0.00  0.00    +0.000 A 
BRANCH   3  10
ATOM      9  C   UNL     1       7.747   7.232  17.979  0.00  0.00    +0.000 C 
ATOM     10  O   UNL     1       7.749   6.879  16.594  0.00  0.00    +0.000 OA
ENDBRANCH   3  10
BRANCH   7  11
ATOM     11  O   UNL     1       6.088   3.330  13.626  0.00  0.00    +0.000 OA
ATOM     12  C   UNL     1       5.217   3.523  12.523  0.00  0.00    +0.000 C 
ENDBRANCH   7  11
BRANCH   8  13
ATOM     13  O   UNL     1       8.144   5.252  14.230  0.00  0.00    +0.000 OA
ATOM     14  C   UNL     1       8.021   5.698  12.887  0.00  0.00    +0.000 C 
ENDBRANCH   8  13
ENDBRANCH   1   5
BRANCH   1  15
ATOM     15  C   UNL     1       3.013   5.609  18.388  0.00  0.00    +0.000 A 
ATOM     16  C   UNL     1       2.709   5.471  19.743  0.00  0.00    +0.000 A 
ATOM     17  C   UNL     1       2.091   6.517  20.448  0.00  0.00    +0.000 A 
ATOM     18  C   UNL     1       1.815   7.764  19.866  0.00  0.00    +0.000 A 
ATOM     19  C   UNL     1       2.165   7.885  18.511  0.00  0.00    +0.000 A 
ATOM     20  C   UNL     1       2.723   6.826  17.773  0.00  0.00    +0.000 A 
BRANCH  18  21
ATOM     21  N   UNL     1       1.173   8.773  20.574  0.00  0.00    +0.000 N 
ATOM     22  C   UNL     1       1.368   8.920  22.018  0.00  0.00    +0.000 C 
ATOM     23  C   UNL     1       0.702   9.993  19.919  0.00  0.00    +0.000 C 
ENDBRANCH  18  21
ENDBRANCH   1  15
BRANCH   2  24
ATOM     24  O   UNL     1       2.134   3.009  18.486  0.00  0.00    +0.000 OA
ATOM     25  H   UNL     1       2.532   2.760  19.342  0.00  0.00    +0.000 HD
ENDBRANCH   2  24
TORSDOF 7
ENDMDL
MODEL 8
REMARK VINA RESULT:      -6.7      5.211      9.869
REMARK  Name = 
REMARK  12 active torsions:
REMARK  status: ('A' for Active; 'I' for Inactive)
REMARK    1  A    between atoms: C_1  and  O_2
REMARK    2  A    between atoms: O_2  and  C_3
REMARK    3  A    between atoms: C_5  and  C_6
REMARK    4  A    between atoms: C_6  and  C_9
REMARK    5  A    between atoms: N_7  and  O_8
REMARK    6  A    between atoms: C_12  and  N_13
REMARK    7  A    between atoms: N_13  and  C_14
REMARK    8  A    between atoms: N_13  and  C_15
REMARK    9  A    between atoms: C_19  and  O_20
REMARK   10  A    between atoms: O_20  and  C_21
REMARK   11  A    between atoms: C_22  and  O_23
REMARK   12  A    between atoms: O_23  and  C_24
REMARK                            x       y       z     vdW  Elec       q    Type
REMARK                         _______ _______ _______ _____ _____    ______ ____
ROOT
ATOM      1  C   UNL     1       0.155  11.040  19.130  0.00  0.00    +0.000 C 
ATOM      2  N   UNL     1       0.614  12.223  19.440  0.00  0.00    +0.000 NA
ENDROOT
BRANCH   1   5
ATOM      3  C   UNL     1      -3.522  11.939  19.125  0.00  0.00    +0.000 A 
ATOM      4  C   UNL     1      -2.199  11.729  19.550  0.00  0.00    +0.000 A 
ATOM      5  C   UNL     1      -1.309  10.962  18.792  0.00  0.00    +0.000 A 
ATOM      6  C   UNL     1      -1.800  10.269  17.691  0.00  0.00    +0.000 A 
ATOM      7  C   UNL     1      -3.134  10.423  17.268  0.00  0.00    +0.000 A 
ATOM      8  C   UNL     1      -4.011  11.273  17.979  0.00  0.00    +0.000 A 
BRANCH   3  10
ATOM      9  C   UNL     1      -4.148  12.815  21.248  0.00  0.00    +0.000 C 
ATOM     10  O   UNL     1      -4.345  12.777  19.832  0.00  0.00    +0.000 OA
ENDBRANCH   3  10
BRANCH   7  11
ATOM     11  O   UNL     1      -3.367   9.704  16.122  0.00  0.00    +0.000 OA
ATOM     12  C   UNL     1      -3.100  10.287  14.856  0.00  0.00    +0.000 C 
ENDBRANCH   7  11
BRANCH   8  13
ATOM     13  O   UNL     1      -5.284  11.364  17.484  0.00  0.00    +0.000 OA
ATOM     14  C   UNL     1      -5.786  12.596  16.986  0.00  0.00    +0.000 C 
ENDBRANCH   8  13
ENDBRANCH   1   5
BRANCH   1  15
ATOM     15  C   UNL     1       0.992   9.788  18.994  0.00  0.00    +0.000 A 
ATOM     16  C   UNL     1       1.107   8.889  20.054  0.00  0.00    +0.000 A 
ATOM     17  C   UNL     1       1.920   7.749  19.941  0.00  0.00    +0.000 A 
ATOM     18  C   UNL     1       2.591   7.411  18.755  0.00  0.00    +0.000 A 
ATOM     19  C   UNL     1       2.427   8.316  17.694  0.00  0.00    +0.000 A 
ATOM     20  C   UNL     1       1.672   9.497  17.812  0.00  0.00    +0.000 A 
BRANCH  18  21
ATOM     21  N   UNL     1       3.415   6.295  18.677  0.00  0.00    +0.000 N 
ATOM     22  C   UNL     1       4.594   6.290  17.809  0.00  0.00    +0.000 C 
ATOM     23  C   UNL     1       3.475   5.305  19.752  0.00  0.00    +0.000 C 
ENDBRANCH  18  21
ENDBRANCH   1  15
BRANCH   2  24
ATOM     24  O   UNL     1       2.007  12.277  19.558  0.00  0.00    +0.000 OA
ATOM     25  H   UNL     1       2.297  11.624  18.893  0.00  0.00    +0.000 HD
ENDBRANCH   2  24
TORSDOF 7
ENDMDL
MODEL 9
REMARK VINA RESULT:      -6.7      5.214      9.941
REMARK  Name = 
REMARK  12 active torsions:
REMARK  status: ('A' for Active; 'I' for Inactive)
REMARK    1  A    between atoms: C_1  and  O_2
REMARK    2  A    between atoms: O_2  and  C_3
REMARK    3  A    between atoms: C_5  and  C_6
REMARK    4  A    between atoms: C_6  and  C_9
REMARK    5  A    between atoms: N_7  and  O_8
REMARK    6  A    between atoms: C_12  and  N_13
REMARK    7  A    between atoms: N_13  and  C_14
REMARK    8  A    between atoms: N_13  and  C_15
REMARK    9  A    between atoms: C_19  and  O_20
REMARK   10  A    between atoms: O_20  and  C_21
REMARK   11  A    between atoms: C_22  and  O_23
REMARK   12  A    between atoms: O_23  and  C_24
REMARK                            x       y       z     vdW  Elec       q    Type
REMARK                         _______ _______ _______ _____ _____    ______ ____
ROOT
ATOM      1  C   UNL     1       0.315  11.130  18.887  0.00  0.00    +0.000 C 
ATOM      2  N   UNL     1       0.863  12.316  18.881  0.00  0.00    +0.000 NA
ENDROOT
BRANCH   1   5
ATOM      3  C   UNL     1      -3.307  12.146  19.308  0.00  0.00    +0.000 A 
ATOM      4  C   UNL     1      -1.949  11.907  19.573  0.00  0.00    +0.000 A 
ATOM      5  C   UNL     1      -1.182  11.090  18.736  0.00  0.00    +0.000 A 
ATOM      6  C   UNL     1      -1.825  10.381  17.727  0.00  0.00    +0.000 A 
ATOM      7  C   UNL     1      -3.196  10.566  17.467  0.00  0.00    +0.000 A 
ATOM      8  C   UNL     1      -3.954  11.463  18.253  0.00  0.00    +0.000 A 
BRANCH   3  10
ATOM      9  C   UNL     1      -4.527  12.521  21.317  0.00  0.00    +0.000 C 
ATOM     10  O   UNL     1      -4.013  13.029  20.084  0.00  0.00    +0.000 OA
ENDBRANCH   3  10
BRANCH   7  11
ATOM     11  O   UNL     1      -3.590   9.823  16.381  0.00  0.00    +0.000 OA
ATOM     12  C   UNL     1      -3.303  10.281  15.070  0.00  0.00    +0.000 C 
ENDBRANCH   7  11
BRANCH   8  13
ATOM     13  O   UNL     1      -5.276  11.581  17.915  0.00  0.00    +0.000 OA
ATOM     14  C   UNL     1      -5.709  12.581  17.004  0.00  0.00    +0.000 C 
ENDBRANCH   8  13
ENDBRANCH   1   5
BRANCH   1  15
ATOM     15  C   UNL     1       1.069   9.821  18.938  0.00  0.00    +0.000 A 
ATOM     16  C   UNL     1       1.762   9.354  17.821  0.00  0.00    +0.000 A 
ATOM     17  C   UNL     1       2.425   8.117  17.856  0.00  0.00    +0.000 A 
ATOM     18  C   UNL     1       2.495   7.326  19.015  0.00  0.00    +0.000 A 
ATOM     19  C   UNL     1       1.819   7.840  20.133  0.00  0.00    +0.000 A 
ATOM     20  C   UNL     1       1.093   9.044  20.095  0.00  0.00    +0.000 A 
BRANCH  18  21
ATOM     21  N   UNL     1       3.130   6.090  19.017  0.00  0.00    +0.000 N 
ATOM     22  C   UNL     1       4.347   5.869  18.233  0.00  0.00    +0.000 C 
ATOM     23  C   UNL     1       2.959   5.139  20.114  0.00  0.00    +0.000 C 
ENDBRANCH  18  21
ENDBRANCH   1  15
BRANCH   2  24
ATOM     24  O   UNL     1       2.262  12.292  18.832  0.00  0.00    +0.000 OA
ATOM     25  H   UNL     1       2.475  13.204  18.555  0.00  0.00    +0.000 HD
ENDBRANCH   2  24
TORSDOF 7
ENDMDL
