MODEL 1
REMARK VINA RESULT:      -7.1      0.000      0.000
REMARK  Name = 
REMARK  7 active torsions:
REMARK  status: ('A' for Active; 'I' for Inactive)
REMARK    1  A    between atoms: C_1  and  C_2
REMARK    2  A    between atoms: C_2  and  C_3
REMARK    3  A    between atoms: N_5  and  C_6
REMARK    4  A    between atoms: C_9  and  C_10
REMARK    5  A    between atoms: C_15  and  C_16
REMARK    6  A    between atoms: C_21  and  S_22
REMARK    7  A    between atoms: S_22  and  N_25
REMARK                            x       y       z     vdW  Elec       q    Type
REMARK                         _______ _______ _______ _____ _____    ______ ____
ROOT
ATOM      1  C   UNL     1       0.894  13.053  19.447  0.00  0.00    +0.000 C 
ATOM      2  C   UNL     1       1.162  11.689  20.094  0.00  0.00    +0.000 C 
ATOM      3  N   UNL     1       0.583  10.580  19.314  0.00  0.00    +0.000 N 
ATOM      4  C   UNL     1      -0.755  10.872  18.917  0.00  0.00    +0.000 A 
ATOM      5  C   UNL     1      -1.666   9.851  18.582  0.00  0.00    +0.000 A 
ATOM      6  C   UNL     1      -2.982  10.133  18.194  0.00  0.00    +0.000 A 
ATOM      7  C   UNL     1      -3.416  11.454  18.153  0.00  0.00    +0.000 A 
ATOM      8  C   UNL     1      -2.554  12.488  18.515  0.00  0.00    +0.000 A 
ATOM      9  C   UNL     1      -1.235  12.197  18.881  0.00  0.00    +0.000 A 
ATOM     10  O   UNL     1      -0.492  13.301  19.209  0.00  0.00    +0.000 OA
ENDROOT
BRANCH   3  11
ATOM     11  C   UNL     1       1.342   9.406  19.077  0.00  0.00    +0.000 A 
ATOM     12  C   UNL     1       1.988   9.263  17.828  0.00  0.00    +0.000 A 
ATOM     13  C   UNL     1       2.769   8.149  17.497  0.00  0.00    +0.000 A 
ATOM     14  C   UNL     1       2.978   7.134  18.428  0.00  0.00    +0.000 A 
ATOM     15  C   UNL     1       2.354   7.246  19.677  0.00  0.00    +0.000 A 
ATOM     16  C   UNL     1       1.529   8.348  19.998  0.00  0.00    +0.000 A 
BRANCH  14  17
ATOM     17  C   UNL     1       3.859   5.948  18.120  0.00  0.00    +0.000 C 
ATOM     18  F   UNL     1       5.031   6.283  17.513  0.00  0.00    +0.000 F 
ATOM     19  F   UNL     1       4.203   5.259  19.243  0.00  0.00    +0.000 F 
ATOM     20  F   UNL     1       3.253   5.049  17.298  0.00  0.00    +0.000 F 
ENDBRANCH  14  17
BRANCH  16  21
ATOM     21  C   UNL     1       0.878   8.287  21.273  0.00  0.00    +0.000 C 
ATOM     22  N   UNL     1       0.380   8.255  22.325  0.00  0.00    +0.000 NA
ENDBRANCH  16  21
ENDBRANCH   3  11
BRANCH   7  23
ATOM     23  S   UNL     1      -5.110  11.823  17.799  0.00  0.00    +0.000 S 
ATOM     24  O   UNL     1      -5.192  12.184  16.398  0.00  0.00    +0.000 OA
ATOM     25  O   UNL     1      -5.943  10.758  18.319  0.00  0.00    +0.000 OA
BRANCH  23  26
ATOM     26  N   UNL     1      -5.391  13.261  18.633  0.00  0.00    +0.000 N 
ATOM     27  C   UNL     1      -6.012  13.046  19.880  0.00  0.00    +0.000 A 
ATOM     28  N   UNL     1      -5.297  12.774  20.942  0.00  0.00    +0.000 NA
ATOM     29  C   UNL     1      -6.128  12.738  22.048  0.00  0.00    +0.000 A 
ATOM     30  C   UNL     1      -7.468  12.950  21.793  0.00  0.00    +0.000 A 
ATOM     31  S   UNL     1      -7.684  13.297  20.126  0.00  0.00    +0.000 S 
ATOM     32  H   UNL     1      -5.932  13.856  18.010  0.00  0.00    +0.000 HD
ENDBRANCH  23  26
ENDBRANCH   7  23
BRANCH   1  34
ATOM     33  C   UNL     1       3.015  14.057  18.462  0.00  0.00    +0.000 C 
ATOM     34  C   UNL     1       1.735  13.282  18.181  0.00  0.00    +0.000 C 
ENDBRANCH   1  34
TORSDOF 6
ENDMDL
MODEL 2
REMARK VINA RESULT:      -7.0      5.529      8.912
REMARK  Name = 
REMARK  7 active torsions:
REMARK  status: ('A' for Active; 'I' for Inactive)
REMARK    1  A    between atoms: C_1  and  C_2
REMARK    2  A    between atoms: C_2  and  C_3
REMARK    3  A    between atoms: N_5  and  C_6
REMARK    4  A    between atoms: C_9  and  C_10
REMARK    5  A    between atoms: C_15  and  C_16
REMARK    6  A    between atoms: C_21  and  S_22
REMARK    7  A    between atoms: S_22  and  N_25
REMARK                            x       y       z     vdW  Elec       q    Type
REMARK                         _______ _______ _______ _____ _____    ______ ____
ROOT
ATOM      1  C   UNL     1       0.800  10.648  19.690  0.00  0.00    +0.000 C 
ATOM      2  C   UNL     1      -0.527  11.058  20.340  0.00  0.00    +0.000 C 
ATOM      3  N   UNL     1      -1.174  12.173  19.624  0.00  0.00    +0.000 N 
ATOM      4  C   UNL     1      -0.238  13.206  19.322  0.00  0.00    +0.000 A 
ATOM      5  C   UNL     1      -0.652  14.529  19.073  0.00  0.00    +0.000 A 
ATOM      6  C   UNL     1       0.264  15.546  18.778  0.00  0.00    +0.000 A 
ATOM      7  C   UNL     1       1.624  15.256  18.746  0.00  0.00    +0.000 A 
ATOM      8  C   UNL     1       2.073  13.966  19.025  0.00  0.00    +0.000 A 
ATOM      9  C   UNL     1       1.149  12.952  19.298  0.00  0.00    +0.000 A 
ATOM     10  O   UNL     1       1.719  11.732  19.551  0.00  0.00    +0.000 OA
ENDROOT
BRANCH   3  11
ATOM     11  C   UNL     1      -2.565  12.130  19.352  0.00  0.00    +0.000 A 
ATOM     12  C   UNL     1      -2.997  11.526  18.150  0.00  0.00    +0.000 A 
ATOM     13  C   UNL     1      -4.347  11.422  17.791  0.00  0.00    +0.000 A 
ATOM     14  C   UNL     1      -5.341  11.885  18.650  0.00  0.00    +0.000 A 
ATOM     15  C   UNL     1      -4.947  12.487  19.852  0.00  0.00    +0.000 A 
ATOM     16  C   UNL     1      -3.584  12.633  20.195  0.00  0.00    +0.000 A 
BRANCH  14  17
ATOM     17  C   UNL     1      -6.806  11.737  18.316  0.00  0.00    +0.000 C 
ATOM     18  F   UNL     1      -7.152  12.295  17.124  0.00  0.00    +0.000 F 
ATOM     19  F   UNL     1      -7.186  10.432  18.244  0.00  0.00    +0.000 F 
ATOM     20  F   UNL     1      -7.612  12.313  19.249  0.00  0.00    +0.000 F 
ENDBRANCH  14  17
BRANCH  16  21
ATOM     21  C   UNL     1      -3.322  13.352  21.407  0.00  0.00    +0.000 C 
ATOM     22  N   UNL     1      -3.086  13.909  22.402  0.00  0.00    +0.000 NA
ENDBRANCH  16  21
ENDBRANCH   3  11
BRANCH   7  23
ATOM     23  S   UNL     1       2.804  16.553  18.512  0.00  0.00    +0.000 S 
ATOM     24  O   UNL     1       3.448  16.328  17.233  0.00  0.00    +0.000 OA
ATOM     25  O   UNL     1       2.169  17.825  18.785  0.00  0.00    +0.000 OA
BRANCH  23  26
ATOM     26  N   UNL     1       3.996  16.223  19.659  0.00  0.00    +0.000 N 
ATOM     27  C   UNL     1       5.298  16.367  19.137  0.00  0.00    +0.000 A 
ATOM     28  N   UNL     1       5.883  17.538  19.122  0.00  0.00    +0.000 NA
ATOM     29  C   UNL     1       7.186  17.385  18.686  0.00  0.00    +0.000 A 
ATOM     30  C   UNL     1       7.553  16.099  18.343  0.00  0.00    +0.000 A 
ATOM     31  S   UNL     1       6.250  15.029  18.666  0.00  0.00    +0.000 S 
ATOM     32  H   UNL     1       3.806  15.288  20.013  0.00  0.00    +0.000 HD
ENDBRANCH  23  26
ENDBRANCH   7  23
BRANCH   1  34
ATOM     33  C   UNL     1       1.899   9.317  17.820  0.00  0.00    +0.000 C 
ATOM     34  C   UNL     1       0.602   9.900  18.362  0.00  0.00    +0.000 C 
ENDBRANCH   1  34
TORSDOF 6
ENDMDL
MODEL 3
REMARK VINA RESULT:      -7.0      4.088      7.109
REMARK  Name = 
REMARK  7 active torsions:
REMARK  status: ('A' for Active; 'I' for Inactive)
REMARK    1  A    between atoms: C_1  and  C_2
REMARK    2  A    between atoms: C_2  and  C_3
REMARK    3  A    between atoms: N_5  and  C_6
REMARK    4  A    between atoms: C_9  and  C_10
REMARK    5  A    between atoms: C_15  and  C_16
REMARK    6  A    between atoms: C_21  and  S_22
REMARK    7  A    between atoms: S_22  and  N_25
REMARK                            x       y       z     vdW  Elec       q    Type
REMARK                         _______ _______ _______ _____ _____    ______ ____
ROOT
ATOM      1  C   UNL     1      -1.709  12.627  19.727  0.00  0.00    +0.000 C 
ATOM      2  C   UNL     1      -1.124  11.536  18.822  0.00  0.00    +0.000 C 
ATOM      3  N   UNL     1       0.332  11.390  19.000  0.00  0.00    +0.000 N 
ATOM      4  C   UNL     1       0.982  12.659  19.011  0.00  0.00    +0.000 A 
ATOM      5  C   UNL     1       2.351  12.791  18.709  0.00  0.00    +0.000 A 
ATOM      6  C   UNL     1       2.993  14.036  18.717  0.00  0.00    +0.000 A 
ATOM      7  C   UNL     1       2.261  15.182  19.012  0.00  0.00    +0.000 A 
ATOM      8  C   UNL     1       0.896  15.094  19.278  0.00  0.00    +0.000 A 
ATOM      9  C   UNL     1       0.269  13.844  19.288  0.00  0.00    +0.000 A 
ATOM     10  O   UNL     1      -1.072  13.894  19.568  0.00  0.00    +0.000 OA
ENDROOT
BRANCH   3  11
ATOM     11  C   UNL     1       0.908  10.098  19.104  0.00  0.00    +0.000 A 
ATOM     12  C   UNL     1       1.309   9.441  17.919  0.00  0.00    +0.000 A 
ATOM     13  C   UNL     1       1.896   8.170  17.913  0.00  0.00    +0.000 A 
ATOM     14  C   UNL     1       2.152   7.507  19.111  0.00  0.00    +0.000 A 
ATOM     15  C   UNL     1       1.770   8.131  20.305  0.00  0.00    +0.000 A 
ATOM     16  C   UNL     1       1.137   9.395  20.311  0.00  0.00    +0.000 A 
BRANCH  14  17
ATOM     17  C   UNL     1       2.835   6.161  19.139  0.00  0.00    +0.000 C 
ATOM     18  F   UNL     1       2.756   5.536  20.346  0.00  0.00    +0.000 F 
ATOM     19  F   UNL     1       2.301   5.296  18.233  0.00  0.00    +0.000 F 
ATOM     20  F   UNL     1       4.161   6.244  18.843  0.00  0.00    +0.000 F 
ENDBRANCH  14  17
BRANCH  16  21
ATOM     21  C   UNL     1       0.714   9.872  21.595  0.00  0.00    +0.000 C 
ATOM     22  N   UNL     1       0.353  10.225  22.644  0.00  0.00    +0.000 NA
ENDBRANCH  16  21
ENDBRANCH   3  11
BRANCH   7  23
ATOM     23  S   UNL     1       3.019  16.776  18.892  0.00  0.00    +0.000 S 
ATOM     24  O   UNL     1       3.777  16.805  17.657  0.00  0.00    +0.000 OA
ATOM     25  O   UNL     1       2.022  17.794  19.149  0.00  0.00    +0.000 OA
BRANCH  23  26
ATOM     26  N   UNL     1       4.183  16.760  20.112  0.00  0.00    +0.000 N 
ATOM     27  C   UNL     1       5.496  16.698  19.600  0.00  0.00    +0.000 A 
ATOM     28  N   UNL     1       6.127  17.792  19.254  0.00  0.00    +0.000 NA
ATOM     29  C   UNL     1       7.428  17.471  18.912  0.00  0.00    +0.000 A 
ATOM     30  C   UNL     1       7.747  16.130  18.973  0.00  0.00    +0.000 A 
ATOM     31  S   UNL     1       6.400  15.249  19.567  0.00  0.00    +0.000 S 
ATOM     32  H   UNL     1       3.952  15.979  20.722  0.00  0.00    +0.000 HD
ENDBRANCH  23  26
ENDBRANCH   7  23
BRANCH   1  34
ATOM     33  C   UNL     1      -3.061  12.617  21.883  0.00  0.00    +0.000 C 
ATOM     34  C   UNL     1      -1.764  12.204  21.204  0.00  0.00    +0.000 C 
ENDBRANCH   1  34
TORSDOF 6
ENDMDL
MODEL 4
REMARK VINA RESULT:      -7.0      4.668      7.770
REMARK  Name = 
REMARK  7 active torsions:
REMARK  status: ('A' for Active; 'I' for Inactive)
REMARK    1  A    between atoms: C_1  and  C_2
REMARK    2  A    between atoms: C_2  and  C_3
REMARK    3  A    between atoms: N_5  and  C_6
REMARK    4  A    between atoms: C_9  and  C_10
REMARK    5  A    between atoms: C_15  and  C_16
REMARK    6  A    between atoms: C_21  and  S_22
REMARK    7  A    between atoms: S_22  and  N_25
REMARK                            x       y       z     vdW  Elec       q    Type
REMARK                         _______ _______ _______ _____ _____    ______ ____
ROOT
ATOM      1  C   UNL     1       3.284   2.658  19.082  0.00  0.00    +0.000 C 
ATOM      2  C   UNL     1       3.386   2.966  17.583  0.00  0.00    +0.000 C 
ATOM      3  N   UNL     1       3.947   4.305  17.327  0.00  0.00    +0.000 N 
ATOM      4  C   UNL     1       3.342   5.287  18.165  0.00  0.00    +0.000 A 
ATOM      5  C   UNL     1       3.349   6.654  17.824  0.00  0.00    +0.000 A 
ATOM      6  C   UNL     1       2.753   7.623  18.643  0.00  0.00    +0.000 A 
ATOM      7  C   UNL     1       2.118   7.230  19.817  0.00  0.00    +0.000 A 
ATOM      8  C   UNL     1       2.058   5.882  20.166  0.00  0.00    +0.000 A 
ATOM      9  C   UNL     1       2.674   4.926  19.353  0.00  0.00    +0.000 A 
ATOM     10  O   UNL     1       2.546   3.640  19.810  0.00  0.00    +0.000 OA
ENDROOT
BRANCH   3  11
ATOM     11  C   UNL     1       4.939   4.480  16.329  0.00  0.00    +0.000 A 
ATOM     12  C   UNL     1       4.565   4.331  14.974  0.00  0.00    +0.000 A 
ATOM     13  C   UNL     1       5.464   4.493  13.913  0.00  0.00    +0.000 A 
ATOM     14  C   UNL     1       6.785   4.858  14.159  0.00  0.00    +0.000 A 
ATOM     15  C   UNL     1       7.189   5.017  15.491  0.00  0.00    +0.000 A 
ATOM     16  C   UNL     1       6.295   4.811  16.566  0.00  0.00    +0.000 A 
BRANCH  14  17
ATOM     17  C   UNL     1       7.763   5.094  13.034  0.00  0.00    +0.000 C 
ATOM     18  F   UNL     1       7.511   6.226  12.321  0.00  0.00    +0.000 F 
ATOM     19  F   UNL     1       9.044   5.210  13.482  0.00  0.00    +0.000 F 
ATOM     20  F   UNL     1       7.773   4.075  12.131  0.00  0.00    +0.000 F 
ENDBRANCH  14  17
BRANCH  16  21
ATOM     21  C   UNL     1       6.865   4.913  17.877  0.00  0.00    +0.000 C 
ATOM     22  N   UNL     1       7.358   5.016  18.927  0.00  0.00    +0.000 NA
ENDBRANCH  16  21
ENDBRANCH   3  11
BRANCH   7  23
ATOM     23  S   UNL     1       1.242   8.418  20.792  0.00  0.00    +0.000 S 
ATOM     24  O   UNL     1      -0.137   7.981  20.872  0.00  0.00    +0.000 OA
ATOM     25  O   UNL     1       1.988   8.674  22.006  0.00  0.00    +0.000 OA
BRANCH  23  26
ATOM     26  N   UNL     1       1.204   9.791  19.814  0.00  0.00    +0.000 N 
ATOM     27  C   UNL     1       0.431  10.828  20.375  0.00  0.00    +0.000 A 
ATOM     28  N   UNL     1       0.961  11.666  21.230  0.00  0.00    +0.000 NA
ATOM     29  C   UNL     1       0.039  12.654  21.524  0.00  0.00    +0.000 A 
ATOM     30  C   UNL     1      -1.190  12.523  20.911  0.00  0.00    +0.000 A 
ATOM     31  S   UNL     1      -1.160  11.169  19.856  0.00  0.00    +0.000 S 
ATOM     32  H   UNL     1       0.870   9.488  18.902  0.00  0.00    +0.000 HD
ENDBRANCH  23  26
ENDBRANCH   7  23
BRANCH   1  34
ATOM     33  C   UNL     1       4.539   1.752  21.101  0.00  0.00    +0.000 C 
ATOM     34  C   UNL     1       4.654   2.389  19.724  0.00  0.00    +0.000 C 
ENDBRANCH   1  34
TORSDOF 6
ENDMDL
MODEL 5
REMARK VINA RESULT:      -7.0      4.222      7.241
REMARK  Name = 
REMARK  7 active torsions:
REMARK  status: ('A' for Active; 'I' for Inactive)
REMARK    1  A    between atoms: C_1  and  C_2
REMARK    2  A    between atoms: C_2  and  C_3
REMARK    3  A    between atoms: N_5  and  C_6
REMARK    4  A    between atoms: C_9  and  C_10
REMARK    5  A    between atoms: C_15  and  C_16
REMARK    6  A    between atoms: C_21  and  S_22
REMARK    7  A    between atoms: S_22  and  N_25
REMARK                            x       y       z     vdW  Elec       q    Type
REMARK                         _______ _______ _______ _____ _____    ______ ____
ROOT
ATOM      1  C   UNL     1       2.487   3.022  20.140  0.00  0.00    +0.000 C 
ATOM      2  C   UNL     1       2.606   3.208  18.623  0.00  0.00    +0.000 C 
ATOM      3  N   UNL     1       3.258   4.482  18.269  0.00  0.00    +0.000 N 
ATOM      4  C   UNL     1       2.724   5.564  19.028  0.00  0.00    +0.000 A 
ATOM      5  C   UNL     1       2.825   6.898  18.586  0.00  0.00    +0.000 A 
ATOM      6  C   UNL     1       2.300   7.964  19.327  0.00  0.00    +0.000 A 
ATOM      7  C   UNL     1       1.642   7.706  20.526  0.00  0.00    +0.000 A 
ATOM      8  C   UNL     1       1.490   6.396  20.976  0.00  0.00    +0.000 A 
ATOM      9  C   UNL     1       2.036   5.340  20.238  0.00  0.00    +0.000 A 
ATOM     10  O   UNL     1       1.821   4.104  20.790  0.00  0.00    +0.000 OA
ENDROOT
BRANCH   3  11
ATOM     11  C   UNL     1       4.257   4.512  17.263  0.00  0.00    +0.000 A 
ATOM     12  C   UNL     1       3.882   4.217  15.932  0.00  0.00    +0.000 A 
ATOM     13  C   UNL     1       4.789   4.229  14.865  0.00  0.00    +0.000 A 
ATOM     14  C   UNL     1       6.119   4.584  15.074  0.00  0.00    +0.000 A 
ATOM     15  C   UNL     1       6.523   4.886  16.381  0.00  0.00    +0.000 A 
ATOM     16  C   UNL     1       5.621   4.831  17.467  0.00  0.00    +0.000 A 
BRANCH  14  17
ATOM     17  C   UNL     1       7.106   4.660  13.935  0.00  0.00    +0.000 C 
ATOM     18  F   UNL     1       7.102   3.558  13.136  0.00  0.00    +0.000 F 
ATOM     19  F   UNL     1       6.861   5.719  13.114  0.00  0.00    +0.000 F 
ATOM     20  F   UNL     1       8.388   4.809  14.366  0.00  0.00    +0.000 F 
ENDBRANCH  14  17
BRANCH  16  21
ATOM     21  C   UNL     1       6.190   5.070  18.761  0.00  0.00    +0.000 C 
ATOM     22  N   UNL     1       6.618   5.275  19.824  0.00  0.00    +0.000 NA
ENDBRANCH  16  21
ENDBRANCH   3  11
BRANCH   7  23
ATOM     23  S   UNL     1       0.853   9.022  21.407  0.00  0.00    +0.000 S 
ATOM     24  O   UNL     1      -0.548   8.675  21.541  0.00  0.00    +0.000 OA
ATOM     25  O   UNL     1       1.633   9.336  22.585  0.00  0.00    +0.000 OA
BRANCH  23  26
ATOM     26  N   UNL     1       0.877  10.307  20.315  0.00  0.00    +0.000 N 
ATOM     27  C   UNL     1       0.103  11.400  20.757  0.00  0.00    +0.000 A 
ATOM     28  N   UNL     1       0.618  12.299  21.557  0.00  0.00    +0.000 NA
ATOM     29  C   UNL     1      -0.296  13.323  21.731  0.00  0.00    +0.000 A 
ATOM     30  C   UNL     1      -1.504  13.160  21.084  0.00  0.00    +0.000 A 
ATOM     31  S   UNL     1      -1.461  11.720  20.150  0.00  0.00    +0.000 S 
ATOM     32  H   UNL     1       0.570   9.932  19.420  0.00  0.00    +0.000 HD
ENDBRANCH  23  26
ENDBRANCH   7  23
BRANCH   1  34
ATOM     33  C   UNL     1       4.666   1.714  20.005  0.00  0.00    +0.000 C 
ATOM     34  C   UNL     1       3.837   2.708  20.805  0.00  0.00    +0.000 C 
ENDBRANCH   1  34
TORSDOF 6
ENDMDL
MODEL 6
REMARK VINA RESULT:      -7.0      4.071      6.849
REMARK  Name = 
REMARK  7 active torsions:
REMARK  status: ('A' for Active; 'I' for Inactive)
REMARK    1  A    between atoms: C_1  and  C_2
REMARK    2  A    between atoms: C_2  and  C_3
REMARK    3  A    between atoms: N_5  and  C_6
REMARK    4  A    between atoms: C_9  and  C_10
REMARK    5  A    between atoms: C_15  and  C_16
REMARK    6  A    between atoms: C_21  and  S_22
REMARK    7  A    between atoms: S_22  and  N_25
REMARK                            x       y       z     vdW  Elec       q    Type
REMARK                         _______ _______ _______ _____ _____    ______ ____
ROOT
ATOM      1  C   UNL     1      -1.583  12.654  19.403  0.00  0.00    +0.000 C 
ATOM      2  C   UNL     1      -1.004  11.511  18.561  0.00  0.00    +0.000 C 
ATOM      3  N   UNL     1       0.444  11.338  18.781  0.00  0.00    +0.000 N 
ATOM      4  C   UNL     1       1.124  12.591  18.752  0.00  0.00    +0.000 A 
ATOM      5  C   UNL     1       2.503  12.678  18.478  0.00  0.00    +0.000 A 
ATOM      6  C   UNL     1       3.174  13.907  18.447  0.00  0.00    +0.000 A 
ATOM      7  C   UNL     1       2.463  15.082  18.673  0.00  0.00    +0.000 A 
ATOM      8  C   UNL     1       1.090  15.037  18.909  0.00  0.00    +0.000 A 
ATOM      9  C   UNL     1       0.433  13.804  18.959  0.00  0.00    +0.000 A 
ATOM     10  O   UNL     1      -0.912  13.898  19.203  0.00  0.00    +0.000 OA
ENDROOT
BRANCH   3  11
ATOM     11  C   UNL     1       0.986  10.040  18.956  0.00  0.00    +0.000 A 
ATOM     12  C   UNL     1       1.378   9.313  17.809  0.00  0.00    +0.000 A 
ATOM     13  C   UNL     1       1.933   8.029  17.873  0.00  0.00    +0.000 A 
ATOM     14  C   UNL     1       2.163   7.422  19.106  0.00  0.00    +0.000 A 
ATOM     15  C   UNL     1       1.789   8.116  20.263  0.00  0.00    +0.000 A 
ATOM     16  C   UNL     1       1.188   9.394  20.199  0.00  0.00    +0.000 A 
BRANCH  14  17
ATOM     17  C   UNL     1       2.811   6.062  19.209  0.00  0.00    +0.000 C 
ATOM     18  F   UNL     1       2.165   5.214  20.055  0.00  0.00    +0.000 F 
ATOM     19  F   UNL     1       2.862   5.426  18.006  0.00  0.00    +0.000 F 
ATOM     20  F   UNL     1       4.096   6.131  19.652  0.00  0.00    +0.000 F 
ENDBRANCH  14  17
BRANCH  16  21
ATOM     21  C   UNL     1       0.768   9.947  21.453  0.00  0.00    +0.000 C 
ATOM     22  N   UNL     1       0.420  10.359  22.485  0.00  0.00    +0.000 NA
ENDBRANCH  16  21
ENDBRANCH   3  11
BRANCH   7  23
ATOM     23  S   UNL     1       3.263  16.651  18.502  0.00  0.00    +0.000 S 
ATOM     24  O   UNL     1       3.072  17.088  17.133  0.00  0.00    +0.000 OA
ATOM     25  O   UNL     1       2.857  17.509  19.595  0.00  0.00    +0.000 OA
BRANCH  23  26
ATOM     26  N   UNL     1       4.904  16.280  18.612  0.00  0.00    +0.000 N 
ATOM     27  C   UNL     1       5.415  16.485  19.910  0.00  0.00    +0.000 A 
ATOM     28  N   UNL     1       5.320  15.548  20.818  0.00  0.00    +0.000 NA
ATOM     29  C   UNL     1       6.008  15.947  21.950  0.00  0.00    +0.000 A 
ATOM     30  C   UNL     1       6.580  17.201  21.888  0.00  0.00    +0.000 A 
ATOM     31  S   UNL     1       6.330  17.866  20.326  0.00  0.00    +0.000 S 
ATOM     32  H   UNL     1       5.375  16.835  17.901  0.00  0.00    +0.000 HD
ENDBRANCH  23  26
ENDBRANCH   7  23
BRANCH   1  34
ATOM     33  C   UNL     1      -1.787  13.529  21.784  0.00  0.00    +0.000 C 
ATOM     34  C   UNL     1      -1.683  12.298  20.895  0.00  0.00    +0.000 C 
ENDBRANCH   1  34
TORSDOF 6
ENDMDL
MODEL 7
REMARK VINA RESULT:      -6.9      5.586      9.046
REMARK  Name = 
REMARK  7 active torsions:
REMARK  status: ('A' for Active; 'I' for Inactive)
REMARK    1  A    between atoms: C_1  and  C_2
REMARK    2  A    between atoms: C_2  and  C_3
REMARK    3  A    between atoms: N_5  and  C_6
REMARK    4  A    between atoms: C_9  and  C_10
REMARK    5  A    between atoms: C_15  and  C_16
REMARK    6  A    between atoms: C_21  and  S_22
REMARK    7  A    between atoms: S_22  and  N_25
REMARK                            x       y       z     vdW  Elec       q    Type
REMARK                         _______ _______ _______ _____ _____    ______ ____
ROOT
ATOM      1  C   UNL     1       0.455  11.172  21.614  0.00  0.00    +0.000 C 
ATOM      2  C   UNL     1      -0.946  11.796  21.662  0.00  0.00    +0.000 C 
ATOM      3  N   UNL     1      -1.301  12.461  20.396  0.00  0.00    +0.000 N 
ATOM      4  C   UNL     1      -0.231  13.275  19.921  0.00  0.00    +0.000 A 
ATOM      5  C   UNL     1      -0.452  14.340  19.026  0.00  0.00    +0.000 A 
ATOM      6  C   UNL     1       0.596  15.142  18.559  0.00  0.00    +0.000 A 
ATOM      7  C   UNL     1       1.893  14.901  19.001  0.00  0.00    +0.000 A 
ATOM      8  C   UNL     1       2.144  13.881  19.916  0.00  0.00    +0.000 A 
ATOM      9  C   UNL     1       1.094  13.071  20.360  0.00  0.00    +0.000 A 
ATOM     10  O   UNL     1       1.474  12.104  21.253  0.00  0.00    +0.000 OA
ENDROOT
BRANCH   3  11
ATOM     11  C   UNL     1      -2.586  12.268  19.829  0.00  0.00    +0.000 A 
ATOM     12  C   UNL     1      -3.686  12.940  20.408  0.00  0.00    +0.000 A 
ATOM     13  C   UNL     1      -4.994  12.825  19.918  0.00  0.00    +0.000 A 
ATOM     14  C   UNL     1      -5.257  12.056  18.787  0.00  0.00    +0.000 A 
ATOM     15  C   UNL     1      -4.188  11.378  18.187  0.00  0.00    +0.000 A 
ATOM     16  C   UNL     1      -2.876  11.458  18.705  0.00  0.00    +0.000 A 
BRANCH  14  17
ATOM     17  C   UNL     1      -6.646  11.958  18.204  0.00  0.00    +0.000 C 
ATOM     18  F   UNL     1      -7.122  10.685  18.142  0.00  0.00    +0.000 F 
ATOM     19  F   UNL     1      -7.557  12.665  18.928  0.00  0.00    +0.000 F 
ATOM     20  F   UNL     1      -6.712  12.448  16.936  0.00  0.00    +0.000 F 
ENDBRANCH  14  17
BRANCH  16  21
ATOM     21  C   UNL     1      -1.899  10.637  18.050  0.00  0.00    +0.000 C 
ATOM     22  N   UNL     1      -1.078   9.993  17.535  0.00  0.00    +0.000 NA
ENDBRANCH  16  21
ENDBRANCH   3  11
BRANCH   7  23
ATOM     23  S   UNL     1       3.208  15.988  18.532  0.00  0.00    +0.000 S 
ATOM     24  O   UNL     1       3.581  15.656  17.171  0.00  0.00    +0.000 OA
ATOM     25  O   UNL     1       2.838  17.348  18.865  0.00  0.00    +0.000 OA
BRANCH  23  26
ATOM     26  N   UNL     1       4.508  15.475  19.474  0.00  0.00    +0.000 N 
ATOM     27  C   UNL     1       5.751  15.837  18.916  0.00  0.00    +0.000 A 
ATOM     28  N   UNL     1       6.270  17.015  19.154  0.00  0.00    +0.000 NA
ATOM     29  C   UNL     1       7.538  17.068  18.604  0.00  0.00    +0.000 A 
ATOM     30  C   UNL     1       7.942  15.936  17.927  0.00  0.00    +0.000 A 
ATOM     31  S   UNL     1       6.730  14.728  18.061  0.00  0.00    +0.000 S 
ATOM     32  H   UNL     1       4.399  14.471  19.597  0.00  0.00    +0.000 HD
ENDBRANCH  23  26
ENDBRANCH   7  23
BRANCH   1  34
ATOM     33  C   UNL     1      -0.225   8.732  21.370  0.00  0.00    +0.000 C 
ATOM     34  C   UNL     1       0.509   9.908  20.742  0.00  0.00    +0.000 C 
ENDBRANCH   1  34
TORSDOF 6
ENDMDL
MODEL 8
REMARK VINA RESULT:      -6.8      4.453      7.536
REMARK  Name = 
REMARK  7 active torsions:
REMARK  status: ('A' for Active; 'I' for Inactive)
REMARK    1  A    between atoms: C_1  and  C_2
REMARK    2  A    between atoms: C_2  and  C_3
REMARK    3  A    between atoms: N_5  and  C_6
REMARK    4  A    between atoms: C_9  and  C_10
REMARK    5  A    between atoms: C_15  and  C_16
REMARK    6  A    between atoms: C_21  and  S_22
REMARK    7  A    between atoms: S_22  and  N_25
REMARK                            x       y       z     vdW  Elec       q    Type
REMARK                         _______ _______ _______ _____ _____    ______ ____
ROOT
ATOM      1  C   UNL     1       3.142   2.871  19.454  0.00  0.00    +0.000 C 
ATOM      2  C   UNL     1       3.244   3.099  17.941  0.00  0.00    +0.000 C 
ATOM      3  N   UNL     1       3.793   4.427  17.614  0.00  0.00    +0.000 N 
ATOM      4  C   UNL     1       3.177   5.448  18.397  0.00  0.00    +0.000 A 
ATOM      5  C   UNL     1       3.172   6.794  17.984  0.00  0.00    +0.000 A 
ATOM      6  C   UNL     1       2.566   7.800  18.748  0.00  0.00    +0.000 A 
ATOM      7  C   UNL     1       1.933   7.465  19.940  0.00  0.00    +0.000 A 
ATOM      8  C   UNL     1       1.884   6.137  20.362  0.00  0.00    +0.000 A 
ATOM      9  C   UNL     1       2.511   5.144  19.602  0.00  0.00    +0.000 A 
ATOM     10  O   UNL     1       2.394   3.884  20.127  0.00  0.00    +0.000 OA
ENDROOT
BRANCH   3  11
ATOM     11  C   UNL     1       4.785   4.558  16.609  0.00  0.00    +0.000 A 
ATOM     12  C   UNL     1       4.422   4.304  15.267  0.00  0.00    +0.000 A 
ATOM     13  C   UNL     1       5.322   4.414  14.200  0.00  0.00    +0.000 A 
ATOM     14  C   UNL     1       6.632   4.831  14.424  0.00  0.00    +0.000 A 
ATOM     15  C   UNL     1       7.025   5.094  15.742  0.00  0.00    +0.000 A 
ATOM     16  C   UNL     1       6.130   4.941  16.827  0.00  0.00    +0.000 A 
BRANCH  14  17
ATOM     17  C   UNL     1       7.609   5.012  13.288  0.00  0.00    +0.000 C 
ATOM     18  F   UNL     1       7.538   4.032  12.347  0.00  0.00    +0.000 F 
ATOM     19  F   UNL     1       7.411   6.184  12.623  0.00  0.00    +0.000 F 
ATOM     20  F   UNL     1       8.902   5.035  13.712  0.00  0.00    +0.000 F 
ENDBRANCH  14  17
BRANCH  16  21
ATOM     21  C   UNL     1       6.691   5.150  18.129  0.00  0.00    +0.000 C 
ATOM     22  N   UNL     1       7.111   5.325  19.201  0.00  0.00    +0.000 NA
ENDBRANCH  16  21
ENDBRANCH   3  11
BRANCH   7  23
ATOM     23  S   UNL     1       1.044   8.695  20.849  0.00  0.00    +0.000 S 
ATOM     24  O   UNL     1      -0.350   8.300  20.866  0.00  0.00    +0.000 OA
ATOM     25  O   UNL     1       1.734   8.952  22.096  0.00  0.00    +0.000 OA
BRANCH  23  26
ATOM     26  N   UNL     1       1.096  10.051  19.848  0.00  0.00    +0.000 N 
ATOM     27  C   UNL     1      -0.168  10.657  19.699  0.00  0.00    +0.000 A 
ATOM     28  N   UNL     1      -0.593  11.535  20.572  0.00  0.00    +0.000 NA
ATOM     29  C   UNL     1      -1.790  12.069  20.129  0.00  0.00    +0.000 A 
ATOM     30  C   UNL     1      -2.268  11.554  18.941  0.00  0.00    +0.000 A 
ATOM     31  S   UNL     1      -1.135  10.431  18.308  0.00  0.00    +0.000 S 
ATOM     32  H   UNL     1       1.502   9.744  18.967  0.00  0.00    +0.000 HD
ENDBRANCH  23  26
ENDBRANCH   7  23
BRANCH   1  34
ATOM     33  C   UNL     1       4.888   1.177  20.202  0.00  0.00    +0.000 C 
ATOM     34  C   UNL     1       4.513   2.650  20.111  0.00  0.00    +0.000 C 
ENDBRANCH   1  34
TORSDOF 6
ENDMDL
MODEL 9
REMARK VINA RESULT:      -6.8      4.454      7.380
REMARK  Name = 
REMARK  7 active torsions:
REMARK  status: ('A' for Active; 'I' for Inactive)
REMARK    1  A    between atoms: C_1  and  C_2
REMARK    2  A    between atoms: C_2  and  C_3
REMARK    3  A    between atoms: N_5  and  C_6
REMARK    4  A    between atoms: C_9  and  C_10
REMARK    5  A    between atoms: C_15  and  C_16
REMARK    6  A    between atoms: C_21  and  S_22
REMARK    7  A    between atoms: S_22  and  N_25
REMARK                            x       y       z     vdW  Elec       q    Type
REMARK                         _______ _______ _______ _____ _____    ______ ____
ROOT
ATOM      1  C   UNL     1       2.485   2.918  20.207  0.00  0.00    +0.000 C 
ATOM      2  C   UNL     1       2.609   3.097  18.689  0.00  0.00    +0.000 C 
ATOM      3  N   UNL     1       3.204   4.397  18.330  0.00  0.00    +0.000 N 
ATOM      4  C   UNL     1       2.613   5.459  19.076  0.00  0.00    +0.000 A 
ATOM      5  C   UNL     1       2.656   6.793  18.623  0.00  0.00    +0.000 A 
ATOM      6  C   UNL     1       2.075   7.839  19.351  0.00  0.00    +0.000 A 
ATOM      7  C   UNL     1       1.419   7.560  20.546  0.00  0.00    +0.000 A 
ATOM      8  C   UNL     1       1.324   6.248  21.006  0.00  0.00    +0.000 A 
ATOM      9  C   UNL     1       1.926   5.213  20.282  0.00  0.00    +0.000 A 
ATOM     10  O   UNL     1       1.763   3.973  20.842  0.00  0.00    +0.000 OA
ENDROOT
BRANCH   3  11
ATOM     11  C   UNL     1       4.209   4.466  17.333  0.00  0.00    +0.000 A 
ATOM     12  C   UNL     1       3.854   4.171  15.997  0.00  0.00    +0.000 A 
ATOM     13  C   UNL     1       4.768   4.220  14.937  0.00  0.00    +0.000 A 
ATOM     14  C   UNL     1       6.085   4.613  15.160  0.00  0.00    +0.000 A 
ATOM     15  C   UNL     1       6.470   4.915  16.472  0.00  0.00    +0.000 A 
ATOM     16  C   UNL     1       5.561   4.824  17.551  0.00  0.00    +0.000 A 
BRANCH  14  17
ATOM     17  C   UNL     1       7.078   4.729  14.029  0.00  0.00    +0.000 C 
ATOM     18  F   UNL     1       6.846   5.788  13.207  0.00  0.00    +0.000 F 
ATOM     19  F   UNL     1       8.355   4.876  14.480  0.00  0.00    +0.000 F 
ATOM     20  F   UNL     1       7.087   3.626  13.230  0.00  0.00    +0.000 F 
ENDBRANCH  14  17
BRANCH  16  21
ATOM     21  C   UNL     1       6.113   5.067  18.851  0.00  0.00    +0.000 C 
ATOM     22  N   UNL     1       6.582   5.232  19.904  0.00  0.00    +0.000 NA
ENDBRANCH  16  21
ENDBRANCH   3  11
BRANCH   7  23
ATOM     23  S   UNL     1       0.561   8.844  21.409  0.00  0.00    +0.000 S 
ATOM     24  O   UNL     1      -0.578   8.238  22.069  0.00  0.00    +0.000 OA
ATOM     25  O   UNL     1       1.515   9.613  22.181  0.00  0.00    +0.000 OA
BRANCH  23  26
ATOM     26  N   UNL     1      -0.103   9.783  20.176  0.00  0.00    +0.000 N 
ATOM     27  C   UNL     1       0.342  11.120  20.220  0.00  0.00    +0.000 A 
ATOM     28  N   UNL     1       1.464  11.468  19.643  0.00  0.00    +0.000 NA
ATOM     29  C   UNL     1       1.602  12.842  19.719  0.00  0.00    +0.000 A 
ATOM     30  C   UNL     1       0.594  13.506  20.388  0.00  0.00    +0.000 A 
ATOM     31  S   UNL     1      -0.616  12.383  20.857  0.00  0.00    +0.000 S 
ATOM     32  H   UNL     1      -1.113   9.691  20.254  0.00  0.00    +0.000 HD
ENDBRANCH  23  26
ENDBRANCH   7  23
BRANCH   1  34
ATOM     33  C   UNL     1       4.714   1.694  20.113  0.00  0.00    +0.000 C 
ATOM     34  C   UNL     1       3.842   2.672  20.886  0.00  0.00    +0.000 C 
ENDBRANCH   1  34
TORSDOF 6
ENDMDL
