MODEL 1
REMARK VINA RESULT:      -7.2      0.000      0.000
REMARK  Name = 
REMARK  5 active torsions:
REMARK  status: ('A' for Active; 'I' for Inactive)
REMARK    1  A    between atoms: C_1  and  C_2
REMARK    2  A    between atoms: C_7  and  C_8
REMARK    3  A    between atoms: C_12  and  S_13
REMARK    4  A    between atoms: S_13  and  N_16
REMARK    5  A    between atoms: N_19  and  C_20
REMARK                            x       y       z     vdW  Elec       q    Type
REMARK                         _______ _______ _______ _____ _____    ______ ____
ROOT
ATOM      1  S   UNL     1      -0.247  11.990  20.086  0.00  0.00    +0.000 S 
ATOM      2  O   UNL     1       0.144  12.763  18.927  0.00  0.00    +0.000 OA
ATOM      3  O   UNL     1       0.627  12.054  21.246  0.00  0.00    +0.000 OA
ENDROOT
BRANCH   1  15
ATOM      4  C   UNL     1      -1.310  12.824  23.059  0.00  0.00    +0.000 C 
ATOM      5  C   UNL     1      -2.225  12.648  21.866  0.00  0.00    +0.000 A 
ATOM      6  N   UNL     1      -3.536  12.866  22.262  0.00  0.00    +0.000 NA
ATOM      7  C   UNL     1      -4.444  12.797  21.356  0.00  0.00    +0.000 A 
ATOM      8  S   UNL     1      -6.150  13.048  21.668  0.00  0.00    +0.000 S 
ATOM      9  C   UNL     1      -6.518  12.763  19.996  0.00  0.00    +0.000 A 
ATOM     10  C   UNL     1      -5.418  12.496  19.274  0.00  0.00    +0.000 A 
ATOM     11  C   UNL     1      -5.430  12.230  17.804  0.00  0.00    +0.000 C 
ATOM     12  N   UNL     1      -4.245  12.508  20.030  0.00  0.00    +0.000 N 
ATOM     13  C   UNL     1      -2.976  12.186  19.588  0.00  0.00    +0.000 A 
ATOM     14  O   UNL     1      -2.759  11.742  18.464  0.00  0.00    +0.000 OA
ATOM     15  C   UNL     1      -1.884  12.332  20.592  0.00  0.00    +0.000 A 
ENDBRANCH   1  15
BRANCH   1  16
ATOM     16  N   UNL     1      -0.274  10.372  19.572  0.00  0.00    +0.000 NA
ATOM     17  C   UNL     1       0.165  10.073  18.174  0.00  0.00    +0.000 C 
ATOM     18  C   UNL     1       1.549   9.402  18.048  0.00  0.00    +0.000 C 
ATOM     19  N   UNL     1       1.732   8.316  19.027  0.00  0.00    +0.000 N 
ATOM     20  C   UNL     1       1.456   8.717  20.419  0.00  0.00    +0.000 C 
ATOM     21  C   UNL     1       0.035   9.293  20.548  0.00  0.00    +0.000 C 
BRANCH  19  22
ATOM     22  C   UNL     1       2.629   7.280  18.762  0.00  0.00    +0.000 A 
ATOM     23  C   UNL     1       2.791   6.169  19.609  0.00  0.00    +0.000 A 
ATOM     24  C   UNL     1       3.827   5.239  19.432  0.00  0.00    +0.000 A 
ATOM     25  C   UNL     1       4.727   5.387  18.385  0.00  0.00    +0.000 A 
ATOM     26  C   UNL     1       4.557   6.436  17.491  0.00  0.00    +0.000 A 
ATOM     27  C   UNL     1       3.518   7.359  17.676  0.00  0.00    +0.000 A 
ENDBRANCH  19  22
ENDBRANCH   1  16
TORSDOF 3
ENDMDL
MODEL 2
REMARK VINA RESULT:      -7.1      1.202      2.556
REMARK  Name = 
REMARK  5 active torsions:
REMARK  status: ('A' for Active; 'I' for Inactive)
REMARK    1  A    between atoms: C_1  and  C_2
REMARK    2  A    between atoms: C_7  and  C_8
REMARK    3  A    between atoms: C_12  and  S_13
REMARK    4  A    between atoms: S_13  and  N_16
REMARK    5  A    between atoms: N_19  and  C_20
REMARK                            x       y       z     vdW  Elec       q    Type
REMARK                         _______ _______ _______ _____ _____    ______ ____
ROOT
ATOM      1  S   UNL     1      -0.166  11.610  20.583  0.00  0.00    +0.000 S 
ATOM      2  O   UNL     1       0.538  12.462  19.649  0.00  0.00    +0.000 OA
ATOM      3  O   UNL     1       0.404  11.481  21.915  0.00  0.00    +0.000 OA
ENDROOT
BRANCH   1  15
ATOM      4  C   UNL     1      -2.380  11.941  18.206  0.00  0.00    +0.000 C 
ATOM      5  C   UNL     1      -2.689  12.172  19.670  0.00  0.00    +0.000 A 
ATOM      6  N   UNL     1      -4.013  12.561  19.800  0.00  0.00    +0.000 NA
ATOM      7  C   UNL     1      -4.455  12.760  20.989  0.00  0.00    +0.000 A 
ATOM      8  S   UNL     1      -6.098  13.250  21.347  0.00  0.00    +0.000 S 
ATOM      9  C   UNL     1      -5.745  13.263  23.046  0.00  0.00    +0.000 A 
ATOM     10  C   UNL     1      -4.472  12.923  23.302  0.00  0.00    +0.000 A 
ATOM     11  C   UNL     1      -3.893  12.830  24.676  0.00  0.00    +0.000 C 
ATOM     12  N   UNL     1      -3.734  12.642  22.150  0.00  0.00    +0.000 N 
ATOM     13  C   UNL     1      -2.385  12.351  22.087  0.00  0.00    +0.000 A 
ATOM     14  O   UNL     1      -1.648  12.411  23.067  0.00  0.00    +0.000 OA
ATOM     15  C   UNL     1      -1.854  12.036  20.730  0.00  0.00    +0.000 A 
ENDBRANCH   1  15
BRANCH   1  16
ATOM     16  N   UNL     1      -0.161  10.062  19.888  0.00  0.00    +0.000 NA
ATOM     17  C   UNL     1       0.345   9.923  18.488  0.00  0.00    +0.000 C 
ATOM     18  C   UNL     1       1.736   9.269  18.352  0.00  0.00    +0.000 C 
ATOM     19  N   UNL     1       1.878   8.079  19.208  0.00  0.00    +0.000 N 
ATOM     20  C   UNL     1       1.535   8.319  20.623  0.00  0.00    +0.000 C 
ATOM     21  C   UNL     1       0.107   8.879  20.749  0.00  0.00    +0.000 C 
BRANCH  19  22
ATOM     22  C   UNL     1       2.791   7.080  18.870  0.00  0.00    +0.000 A 
ATOM     23  C   UNL     1       3.598   7.134  17.718  0.00  0.00    +0.000 A 
ATOM     24  C   UNL     1       4.365   6.040  17.290  0.00  0.00    +0.000 A 
ATOM     25  C   UNL     1       4.360   4.856  18.017  0.00  0.00    +0.000 A 
ATOM     26  C   UNL     1       3.626   4.791  19.195  0.00  0.00    +0.000 A 
ATOM     27  C   UNL     1       2.864   5.890  19.615  0.00  0.00    +0.000 A 
ENDBRANCH  19  22
ENDBRANCH   1  16
TORSDOF 3
ENDMDL
MODEL 3
REMARK VINA RESULT:      -7.0      3.791      6.625
REMARK  Name = 
REMARK  5 active torsions:
REMARK  status: ('A' for Active; 'I' for Inactive)
REMARK    1  A    between atoms: C_1  and  C_2
REMARK    2  A    between atoms: C_7  and  C_8
REMARK    3  A    between atoms: C_12  and  S_13
REMARK    4  A    between atoms: S_13  and  N_16
REMARK    5  A    between atoms: N_19  and  C_20
REMARK                            x       y       z     vdW  Elec       q    Type
REMARK                         _______ _______ _______ _____ _____    ______ ____
ROOT
ATOM      1  S   UNL     1       0.454  11.139  21.217  0.00  0.00    +0.000 S 
ATOM      2  O   UNL     1      -0.304  11.380  22.426  0.00  0.00    +0.000 OA
ATOM      3  O   UNL     1       1.429  10.061  21.256  0.00  0.00    +0.000 OA
ENDROOT
BRANCH   1  15
ATOM      4  C   UNL     1       1.101   9.492  18.472  0.00  0.00    +0.000 C 
ATOM      5  C   UNL     1      -0.197  10.235  18.713  0.00  0.00    +0.000 A 
ATOM      6  N   UNL     1      -1.004  10.116  17.592  0.00  0.00    +0.000 NA
ATOM      7  C   UNL     1      -2.168  10.657  17.644  0.00  0.00    +0.000 A 
ATOM      8  S   UNL     1      -3.325  10.605  16.328  0.00  0.00    +0.000 S 
ATOM      9  C   UNL     1      -4.460  11.525  17.264  0.00  0.00    +0.000 A 
ATOM     10  C   UNL     1      -3.978  11.842  18.477  0.00  0.00    +0.000 A 
ATOM     11  C   UNL     1      -4.743  12.612  19.503  0.00  0.00    +0.000 C 
ATOM     12  N   UNL     1      -2.686  11.362  18.700  0.00  0.00    +0.000 N 
ATOM     13  C   UNL     1      -1.900  11.600  19.811  0.00  0.00    +0.000 A 
ATOM     14  O   UNL     1      -2.233  12.371  20.705  0.00  0.00    +0.000 OA
ATOM     15  C   UNL     1      -0.572  10.922  19.820  0.00  0.00    +0.000 A 
ENDBRANCH   1  15
BRANCH   1  16
ATOM     16  N   UNL     1       1.311  12.573  20.917  0.00  0.00    +0.000 NA
ATOM     17  C   UNL     1       1.913  12.761  19.561  0.00  0.00    +0.000 C 
ATOM     18  C   UNL     1       1.190  13.780  18.656  0.00  0.00    +0.000 C 
ATOM     19  N   UNL     1       0.834  15.013  19.378  0.00  0.00    +0.000 N 
ATOM     20  C   UNL     1       0.081  14.777  20.624  0.00  0.00    +0.000 C 
ATOM     21  C   UNL     1       0.861  13.837  21.561  0.00  0.00    +0.000 C 
BRANCH  19  22
ATOM     22  C   UNL     1       0.671  16.210  18.679  0.00  0.00    +0.000 A 
ATOM     23  C   UNL     1      -0.587  16.783  18.420  0.00  0.00    +0.000 A 
ATOM     24  C   UNL     1      -0.747  17.877  17.554  0.00  0.00    +0.000 A 
ATOM     25  C   UNL     1       0.359  18.443  16.933  0.00  0.00    +0.000 A 
ATOM     26  C   UNL     1       1.623  17.943  17.218  0.00  0.00    +0.000 A 
ATOM     27  C   UNL     1       1.772  16.851  18.085  0.00  0.00    +0.000 A 
ENDBRANCH  19  22
ENDBRANCH   1  16
TORSDOF 3
ENDMDL
MODEL 4
REMARK VINA RESULT:      -6.9      0.786      1.230
REMARK  Name = 
REMARK  5 active torsions:
REMARK  status: ('A' for Active; 'I' for Inactive)
REMARK    1  A    between atoms: C_1  and  C_2
REMARK    2  A    between atoms: C_7  and  C_8
REMARK    3  A    between atoms: C_12  and  S_13
REMARK    4  A    between atoms: S_13  and  N_16
REMARK    5  A    between atoms: N_19  and  C_20
REMARK                            x       y       z     vdW  Elec       q    Type
REMARK                         _______ _______ _______ _____ _____    ______ ____
ROOT
ATOM      1  S   UNL     1      -0.974  12.275  19.511  0.00  0.00    +0.000 S 
ATOM      2  O   UNL     1      -1.075  12.817  18.172  0.00  0.00    +0.000 OA
ATOM      3  O   UNL     1       0.163  12.703  20.310  0.00  0.00    +0.000 OA
ENDROOT
BRANCH   1  15
ATOM      4  C   UNL     1      -1.262  13.035  22.673  0.00  0.00    +0.000 C 
ATOM      5  C   UNL     1      -2.448  12.804  21.760  0.00  0.00    +0.000 A 
ATOM      6  N   UNL     1      -3.618  12.938  22.491  0.00  0.00    +0.000 NA
ATOM      7  C   UNL     1      -4.727  12.814  21.855  0.00  0.00    +0.000 A 
ATOM      8  S   UNL     1      -6.302  12.956  22.610  0.00  0.00    +0.000 S 
ATOM      9  C   UNL     1      -7.080  12.651  21.089  0.00  0.00    +0.000 A 
ATOM     10  C   UNL     1      -6.196  12.455  20.098  0.00  0.00    +0.000 A 
ATOM     11  C   UNL     1      -6.580  12.192  18.678  0.00  0.00    +0.000 C 
ATOM     12  N   UNL     1      -4.868  12.540  20.519  0.00  0.00    +0.000 N 
ATOM     13  C   UNL     1      -3.744  12.299  19.752  0.00  0.00    +0.000 A 
ATOM     14  O   UNL     1      -3.805  11.872  18.603  0.00  0.00    +0.000 OA
ATOM     15  C   UNL     1      -2.436  12.513  20.436  0.00  0.00    +0.000 A 
ENDBRANCH   1  15
BRANCH   1  16
ATOM     16  N   UNL     1      -0.842  10.594  19.317  0.00  0.00    +0.000 NA
ATOM     17  C   UNL     1      -0.462  10.071  17.968  0.00  0.00    +0.000 C 
ATOM     18  C   UNL     1       0.981   9.534  17.854  0.00  0.00    +0.000 C 
ATOM     19  N   UNL     1       1.353   8.689  19.001  0.00  0.00    +0.000 N 
ATOM     20  C   UNL     1       1.123   9.327  20.310  0.00  0.00    +0.000 C 
ATOM     21  C   UNL     1      -0.346   9.768  20.450  0.00  0.00    +0.000 C 
BRANCH  19  22
ATOM     22  C   UNL     1       2.347   7.720  18.860  0.00  0.00    +0.000 A 
ATOM     23  C   UNL     1       3.240   7.687  17.774  0.00  0.00    +0.000 A 
ATOM     24  C   UNL     1       4.102   6.603  17.546  0.00  0.00    +0.000 A 
ATOM     25  C   UNL     1       4.106   5.520  18.416  0.00  0.00    +0.000 A 
ATOM     26  C   UNL     1       3.284   5.549  19.535  0.00  0.00    +0.000 A 
ATOM     27  C   UNL     1       2.428   6.638  19.754  0.00  0.00    +0.000 A 
ENDBRANCH  19  22
ENDBRANCH   1  16
TORSDOF 3
ENDMDL
MODEL 5
REMARK VINA RESULT:      -6.9      1.737      3.113
REMARK  Name = 
REMARK  5 active torsions:
REMARK  status: ('A' for Active; 'I' for Inactive)
REMARK    1  A    between atoms: C_1  and  C_2
REMARK    2  A    between atoms: C_7  and  C_8
REMARK    3  A    between atoms: C_12  and  S_13
REMARK    4  A    between atoms: S_13  and  N_16
REMARK    5  A    between atoms: N_19  and  C_20
REMARK                            x       y       z     vdW  Elec       q    Type
REMARK                         _______ _______ _______ _____ _____    ______ ____
ROOT
ATOM      1  S   UNL     1       0.574  11.889  20.111  0.00  0.00    +0.000 S 
ATOM      2  O   UNL     1       1.011  12.496  18.871  0.00  0.00    +0.000 OA
ATOM      3  O   UNL     1       1.526  11.877  21.209  0.00  0.00    +0.000 OA
ENDROOT
BRANCH   1  15
ATOM      4  C   UNL     1      -2.373  11.693  18.718  0.00  0.00    +0.000 C 
ATOM      5  C   UNL     1      -2.110  12.437  20.011  0.00  0.00    +0.000 A 
ATOM      6  N   UNL     1      -3.290  13.016  20.451  0.00  0.00    +0.000 NA
ATOM      7  C   UNL     1      -3.253  13.655  21.564  0.00  0.00    +0.000 A 
ATOM      8  S   UNL     1      -4.644  14.446  22.279  0.00  0.00    +0.000 S 
ATOM      9  C   UNL     1      -3.678  14.978  23.618  0.00  0.00    +0.000 A 
ATOM     10  C   UNL     1      -2.400  14.580  23.511  0.00  0.00    +0.000 A 
ATOM     11  C   UNL     1      -1.346  14.877  24.528  0.00  0.00    +0.000 C 
ATOM     12  N   UNL     1      -2.149  13.838  22.356  0.00  0.00    +0.000 N 
ATOM     13  C   UNL     1      -0.920  13.370  21.929  0.00  0.00    +0.000 A 
ATOM     14  O   UNL     1       0.131  13.657  22.495  0.00  0.00    +0.000 OA
ATOM     15  C   UNL     1      -0.937  12.555  20.681  0.00  0.00    +0.000 A 
ENDBRANCH   1  15
BRANCH   1  16
ATOM     16  N   UNL     1       0.228  10.271  19.734  0.00  0.00    +0.000 NA
ATOM     17  C   UNL     1       0.811   9.702  18.480  0.00  0.00    +0.000 C 
ATOM     18  C   UNL     1       1.981   8.716  18.685  0.00  0.00    +0.000 C 
ATOM     19  N   UNL     1       1.712   7.751  19.765  0.00  0.00    +0.000 N 
ATOM     20  C   UNL     1       1.311   8.379  21.038  0.00  0.00    +0.000 C 
ATOM     21  C   UNL     1       0.081   9.282  20.836  0.00  0.00    +0.000 C 
BRANCH  19  22
ATOM     22  C   UNL     1       2.350   6.510  19.767  0.00  0.00    +0.000 A 
ATOM     23  C   UNL     1       3.350   6.159  18.842  0.00  0.00    +0.000 A 
ATOM     24  C   UNL     1       3.841   4.848  18.734  0.00  0.00    +0.000 A 
ATOM     25  C   UNL     1       3.354   3.849  19.566  0.00  0.00    +0.000 A 
ATOM     26  C   UNL     1       2.413   4.175  20.534  0.00  0.00    +0.000 A 
ATOM     27  C   UNL     1       1.930   5.488  20.635  0.00  0.00    +0.000 A 
ENDBRANCH  19  22
ENDBRANCH   1  16
TORSDOF 3
ENDMDL
MODEL 6
REMARK VINA RESULT:      -6.9      4.238      6.428
REMARK  Name = 
REMARK  5 active torsions:
REMARK  status: ('A' for Active; 'I' for Inactive)
REMARK    1  A    between atoms: C_1  and  C_2
REMARK    2  A    between atoms: C_7  and  C_8
REMARK    3  A    between atoms: C_12  and  S_13
REMARK    4  A    between atoms: S_13  and  N_16
REMARK    5  A    between atoms: N_19  and  C_20
REMARK                            x       y       z     vdW  Elec       q    Type
REMARK                         _______ _______ _______ _____ _____    ______ ____
ROOT
ATOM      1  S   UNL     1      -0.272  11.741  21.629  0.00  0.00    +0.000 S 
ATOM      2  O   UNL     1      -0.464  11.620  23.059  0.00  0.00    +0.000 OA
ATOM      3  O   UNL     1       0.484  10.685  20.976  0.00  0.00    +0.000 OA
ENDROOT
BRANCH   1  15
ATOM      4  C   UNL     1      -3.070  12.987  22.762  0.00  0.00    +0.000 C 
ATOM      5  C   UNL     1      -2.897  12.479  21.346  0.00  0.00    +0.000 A 
ATOM      6  N   UNL     1      -4.098  12.607  20.666  0.00  0.00    +0.000 NA
ATOM      7  C   UNL     1      -4.116  12.259  19.430  0.00  0.00    +0.000 A 
ATOM      8  S   UNL     1      -5.539  12.355  18.413  0.00  0.00    +0.000 S 
ATOM      9  C   UNL     1      -4.645  11.717  17.069  0.00  0.00    +0.000 A 
ATOM     10  C   UNL     1      -3.368  11.454  17.389  0.00  0.00    +0.000 A 
ATOM     11  C   UNL     1      -2.361  10.915  16.426  0.00  0.00    +0.000 C 
ATOM     12  N   UNL     1      -3.060  11.750  18.718  0.00  0.00    +0.000 N 
ATOM     13  C   UNL     1      -1.860  11.507  19.359  0.00  0.00    +0.000 A 
ATOM     14  O   UNL     1      -0.941  10.888  18.831  0.00  0.00    +0.000 OA
ATOM     15  C   UNL     1      -1.777  11.972  20.773  0.00  0.00    +0.000 A 
ENDBRANCH   1  15
BRANCH   1  16
ATOM     16  N   UNL     1       0.591  13.185  21.402  0.00  0.00    +0.000 NA
ATOM     17  C   UNL     1       1.539  13.261  20.249  0.00  0.00    +0.000 C 
ATOM     18  C   UNL     1       1.066  14.129  19.064  0.00  0.00    +0.000 C 
ATOM     19  N   UNL     1       0.487  15.409  19.507  0.00  0.00    +0.000 N 
ATOM     20  C   UNL     1      -0.574  15.263  20.521  0.00  0.00    +0.000 C 
ATOM     21  C   UNL     1      -0.057  14.480  21.741  0.00  0.00    +0.000 C 
BRANCH  19  22
ATOM     22  C   UNL     1       0.490  16.511  18.651  0.00  0.00    +0.000 A 
ATOM     23  C   UNL     1      -0.676  17.221  18.310  0.00  0.00    +0.000 A 
ATOM     24  C   UNL     1      -0.688  18.199  17.303  0.00  0.00    +0.000 A 
ATOM     25  C   UNL     1       0.478  18.507  16.615  0.00  0.00    +0.000 A 
ATOM     26  C   UNL     1       1.661  17.871  16.971  0.00  0.00    +0.000 A 
ATOM     27  C   UNL     1       1.663  16.897  17.980  0.00  0.00    +0.000 A 
ENDBRANCH  19  22
ENDBRANCH   1  16
TORSDOF 3
ENDMDL
MODEL 7
REMARK VINA RESULT:      -6.9      4.084      6.529
REMARK  Name = 
REMARK  5 active torsions:
REMARK  status: ('A' for Active; 'I' for Inactive)
REMARK    1  A    between atoms: C_1  and  C_2
REMARK    2  A    between atoms: C_7  and  C_8
REMARK    3  A    between atoms: C_12  and  S_13
REMARK    4  A    between atoms: S_13  and  N_16
REMARK    5  A    between atoms: N_19  and  C_20
REMARK                            x       y       z     vdW  Elec       q    Type
REMARK                         _______ _______ _______ _____ _____    ______ ____
ROOT
ATOM      1  S   UNL     1       0.061  11.434  21.289  0.00  0.00    +0.000 S 
ATOM      2  O   UNL     1       0.380  10.949  22.615  0.00  0.00    +0.000 OA
ATOM      3  O   UNL     1       0.394  10.565  20.172  0.00  0.00    +0.000 OA
ENDROOT
BRANCH   1  15
ATOM      4  C   UNL     1      -1.655  11.984  18.565  0.00  0.00    +0.000 C 
ATOM      5  C   UNL     1      -2.226  12.151  19.958  0.00  0.00    +0.000 A 
ATOM      6  N   UNL     1      -3.537  12.590  19.863  0.00  0.00    +0.000 NA
ATOM      7  C   UNL     1      -4.188  12.745  20.959  0.00  0.00    +0.000 A 
ATOM      8  S   UNL     1      -5.853  13.286  21.034  0.00  0.00    +0.000 S 
ATOM      9  C   UNL     1      -5.824  13.195  22.767  0.00  0.00    +0.000 A 
ATOM     10  C   UNL     1      -4.633  12.788  23.234  0.00  0.00    +0.000 A 
ATOM     11  C   UNL     1      -4.326  12.599  24.684  0.00  0.00    +0.000 C 
ATOM     12  N   UNL     1      -3.703  12.536  22.225  0.00  0.00    +0.000 N 
ATOM     13  C   UNL     1      -2.375  12.191  22.396  0.00  0.00    +0.000 A 
ATOM     14  O   UNL     1      -1.834  12.167  23.497  0.00  0.00    +0.000 OA
ATOM     15  C   UNL     1      -1.610  11.925  21.144  0.00  0.00    +0.000 A 
ENDBRANCH   1  15
BRANCH   1  16
ATOM     16  N   UNL     1       0.958  12.862  21.093  0.00  0.00    +0.000 NA
ATOM     17  C   UNL     1       1.834  12.980  19.887  0.00  0.00    +0.000 C 
ATOM     18  C   UNL     1       1.318  13.935  18.790  0.00  0.00    +0.000 C 
ATOM     19  N   UNL     1       0.814  15.202  19.346  0.00  0.00    +0.000 N 
ATOM     20  C   UNL     1      -0.186  15.027  20.416  0.00  0.00    +0.000 C 
ATOM     21  C   UNL     1       0.379  14.153  21.551  0.00  0.00    +0.000 C 
BRANCH  19  22
ATOM     22  C   UNL     1       0.802  16.354  18.559  0.00  0.00    +0.000 A 
ATOM     23  C   UNL     1      -0.379  17.037  18.215  0.00  0.00    +0.000 A 
ATOM     24  C   UNL     1      -0.396  18.074  17.270  0.00  0.00    +0.000 A 
ATOM     25  C   UNL     1       0.782  18.472  16.650  0.00  0.00    +0.000 A 
ATOM     26  C   UNL     1       1.976  17.863  17.014  0.00  0.00    +0.000 A 
ATOM     27  C   UNL     1       1.982  16.829  17.961  0.00  0.00    +0.000 A 
ENDBRANCH  19  22
ENDBRANCH   1  16
TORSDOF 3
ENDMDL
MODEL 8
REMARK VINA RESULT:      -6.9      1.918      2.544
REMARK  Name = 
REMARK  5 active torsions:
REMARK  status: ('A' for Active; 'I' for Inactive)
REMARK    1  A    between atoms: C_1  and  C_2
REMARK    2  A    between atoms: C_7  and  C_8
REMARK    3  A    between atoms: C_12  and  S_13
REMARK    4  A    between atoms: S_13  and  N_16
REMARK    5  A    between atoms: N_19  and  C_20
REMARK                            x       y       z     vdW  Elec       q    Type
REMARK                         _______ _______ _______ _____ _____    ______ ____
ROOT
ATOM      1  S   UNL     1       0.333  11.172  21.428  0.00  0.00    +0.000 S 
ATOM      2  O   UNL     1       1.483  11.873  20.896  0.00  0.00    +0.000 OA
ATOM      3  O   UNL     1       0.446  10.654  22.782  0.00  0.00    +0.000 OA
ENDROOT
BRANCH   1  15
ATOM      4  C   UNL     1      -0.635  13.088  18.968  0.00  0.00    +0.000 C 
ATOM      5  C   UNL     1      -1.434  12.899  20.241  0.00  0.00    +0.000 A 
ATOM      6  N   UNL     1      -2.579  13.678  20.180  0.00  0.00    +0.000 NA
ATOM      7  C   UNL     1      -3.395  13.603  21.169  0.00  0.00    +0.000 A 
ATOM      8  S   UNL     1      -4.893  14.508  21.264  0.00  0.00    +0.000 S 
ATOM      9  C   UNL     1      -5.241  13.806  22.813  0.00  0.00    +0.000 A 
ATOM     10  C   UNL     1      -4.281  12.956  23.211  0.00  0.00    +0.000 A 
ATOM     11  C   UNL     1      -4.324  12.191  24.494  0.00  0.00    +0.000 C 
ATOM     12  N   UNL     1      -3.234  12.837  22.295  0.00  0.00    +0.000 N 
ATOM     13  C   UNL     1      -2.071  12.111  22.464  0.00  0.00    +0.000 A 
ATOM     14  O   UNL     1      -1.784  11.555  23.520  0.00  0.00    +0.000 OA
ATOM     15  C   UNL     1      -1.135  12.110  21.303  0.00  0.00    +0.000 A 
ENDBRANCH   1  15
BRANCH   1  16
ATOM     16  N   UNL     1       0.093   9.839  20.404  0.00  0.00    +0.000 NA
ATOM     17  C   UNL     1       0.365  10.018  18.944  0.00  0.00    +0.000 C 
ATOM     18  C   UNL     1       1.655   9.347  18.428  0.00  0.00    +0.000 C 
ATOM     19  N   UNL     1       1.819   7.979  18.950  0.00  0.00    +0.000 N 
ATOM     20  C   UNL     1       1.719   7.887  20.419  0.00  0.00    +0.000 C 
ATOM     21  C   UNL     1       0.382   8.471  20.911  0.00  0.00    +0.000 C 
BRANCH  19  22
ATOM     22  C   UNL     1       2.577   7.047  18.241  0.00  0.00    +0.000 A 
ATOM     23  C   UNL     1       2.294   5.668  18.240  0.00  0.00    +0.000 A 
ATOM     24  C   UNL     1       3.172   4.725  17.685  0.00  0.00    +0.000 A 
ATOM     25  C   UNL     1       4.359   5.139  17.095  0.00  0.00    +0.000 A 
ATOM     26  C   UNL     1       4.639   6.497  17.021  0.00  0.00    +0.000 A 
ATOM     27  C   UNL     1       3.754   7.432  17.577  0.00  0.00    +0.000 A 
ENDBRANCH  19  22
ENDBRANCH   1  16
TORSDOF 3
ENDMDL
MODEL 9
REMARK VINA RESULT:      -6.8      0.866      1.231
REMARK  Name = 
REMARK  5 active torsions:
REMARK  status: ('A' for Active; 'I' for Inactive)
REMARK    1  A    between atoms: C_1  and  C_2
REMARK    2  A    between atoms: C_7  and  C_8
REMARK    3  A    between atoms: C_12  and  S_13
REMARK    4  A    between atoms: S_13  and  N_16
REMARK    5  A    between atoms: N_19  and  C_20
REMARK                            x       y       z     vdW  Elec       q    Type
REMARK                         _______ _______ _______ _____ _____    ______ ____
ROOT
ATOM      1  S   UNL     1       0.417  11.593  20.166  0.00  0.00    +0.000 S 
ATOM      2  O   UNL     1       1.082  12.427  19.188  0.00  0.00    +0.000 OA
ATOM      3  O   UNL     1       1.095  11.399  21.437  0.00  0.00    +0.000 OA
ENDROOT
BRANCH   1  15
ATOM      4  C   UNL     1      -0.783  13.017  22.849  0.00  0.00    +0.000 C 
ATOM      5  C   UNL     1      -1.627  12.673  21.640  0.00  0.00    +0.000 A 
ATOM      6  N   UNL     1      -2.943  13.029  21.888  0.00  0.00    +0.000 NA
ATOM      7  C   UNL     1      -3.792  12.842  20.942  0.00  0.00    +0.000 A 
ATOM      8  S   UNL     1      -5.495  13.237  21.071  0.00  0.00    +0.000 S 
ATOM      9  C   UNL     1      -5.769  12.668  19.455  0.00  0.00    +0.000 A 
ATOM     10  C   UNL     1      -4.644  12.214  18.879  0.00  0.00    +0.000 A 
ATOM     11  C   UNL     1      -4.576  11.682  17.485  0.00  0.00    +0.000 C 
ATOM     12  N   UNL     1      -3.525  12.303  19.710  0.00  0.00    +0.000 N 
ATOM     13  C   UNL     1      -2.254  11.838  19.431  0.00  0.00    +0.000 A 
ATOM     14  O   UNL     1      -1.994  11.184  18.426  0.00  0.00    +0.000 OA
ATOM     15  C   UNL     1      -1.224  12.109  20.474  0.00  0.00    +0.000 A 
ENDBRANCH   1  15
BRANCH   1  16
ATOM     16  N   UNL     1       0.270  10.064  19.442  0.00  0.00    +0.000 NA
ATOM     17  C   UNL     1       0.737   9.909  18.030  0.00  0.00    +0.000 C 
ATOM     18  C   UNL     1       2.061   9.134  17.857  0.00  0.00    +0.000 C 
ATOM     19  N   UNL     1       2.108   7.919  18.689  0.00  0.00    +0.000 N 
ATOM     20  C   UNL     1       1.812   8.161  20.113  0.00  0.00    +0.000 C 
ATOM     21  C   UNL     1       0.443   8.845  20.276  0.00  0.00    +0.000 C 
BRANCH  19  22
ATOM     22  C   UNL     1       2.921   6.848  18.315  0.00  0.00    +0.000 A 
ATOM     23  C   UNL     1       4.074   6.999  17.523  0.00  0.00    +0.000 A 
ATOM     24  C   UNL     1       4.768   5.899  16.996  0.00  0.00    +0.000 A 
ATOM     25  C   UNL     1       4.335   4.607  17.263  0.00  0.00    +0.000 A 
ATOM     26  C   UNL     1       3.238   4.420  18.095  0.00  0.00    +0.000 A 
ATOM     27  C   UNL     1       2.552   5.526  18.617  0.00  0.00    +0.000 A 
ENDBRANCH  19  22
ENDBRANCH   1  16
TORSDOF 3
ENDMDL
