MODEL 1
REMARK VINA RESULT:      -7.9      0.000      0.000
REMARK  Name = 
REMARK  10 active torsions:
REMARK  status: ('A' for Active; 'I' for Inactive)
REMARK    1  A    between atoms: C_1  and  C_2
REMARK    2  A    between atoms: N_4  and  C_5
REMARK    3  A    between atoms: C_6  and  C_7
REMARK    4  A    between atoms: C_8  and  N_9
REMARK    5  A    between atoms: N_9  and  S_10
REMARK    6  A    between atoms: S_10  and  C_13
REMARK    7  A    between atoms: N_17  and  C_18
REMARK    8  A    between atoms: C_18  and  C_19
REMARK    9  A    between atoms: C_19  and  O_20
REMARK   10  A    between atoms: C_19  and  C_21
REMARK                            x       y       z     vdW  Elec       q    Type
REMARK                         _______ _______ _______ _____ _____    ______ ____
ROOT
ATOM      1  C   UNL     1       1.206   9.503  19.849  0.00  0.00    +0.000 A 
ATOM      2  C   UNL     1       1.472   9.518  18.485  0.00  0.00    +0.000 A 
ATOM      3  C   UNL     1       2.024   8.380  17.906  0.00  0.00    +0.000 A 
ATOM      4  C   UNL     1       2.280   7.259  18.694  0.00  0.00    +0.000 A 
ATOM      5  N   UNL     1       2.633   6.087  18.033  0.00  0.00    +0.000 N 
ATOM      6  N   UNL     1       2.081   7.269  20.031  0.00  0.00    +0.000 NA
ATOM      7  C   UNL     1       1.570   8.398  20.590  0.00  0.00    +0.000 A 
ATOM      8  H   UNL     1       3.479   6.192  17.481  0.00  0.00    +0.000 HD
ENDROOT
BRANCH   1   9
ATOM      9  S   UNL     1       0.365  10.838  20.612  0.00  0.00    +0.000 S 
ATOM     10  O   UNL     1       1.337  11.693  21.259  0.00  0.00    +0.000 OA
ATOM     11  O   UNL     1      -0.747  10.292  21.362  0.00  0.00    +0.000 OA
BRANCH   9  12
ATOM     12  N   UNL     1      -0.316  11.677  19.295  0.00  0.00    +0.000 N 
ATOM     13  H   UNL     1       0.256  11.482  18.473  0.00  0.00    +0.000 HD
BRANCH  12  21
ATOM     14  C   UNL     1      -2.367  13.534  20.831  0.00  0.00    +0.000 C 
ATOM     15  C   UNL     1      -2.632  12.509  19.794  0.00  0.00    +0.000 A 
ATOM     16  N   UNL     1      -3.882  12.307  19.369  0.00  0.00    +0.000 NA
ATOM     17  N   UNL     1      -3.757  11.395  18.393  0.00  0.00    +0.000 N 
ATOM     18  C   UNL     1      -4.952  10.955  17.709  0.00  0.00    +0.000 C 
ATOM     19  C   UNL     1      -2.459  11.008  18.162  0.00  0.00    +0.000 A 
ATOM     20  C   UNL     1      -2.071  10.037  17.106  0.00  0.00    +0.000 C 
ATOM     21  C   UNL     1      -1.704  11.684  19.099  0.00  0.00    +0.000 A 
ENDBRANCH  12  21
ENDBRANCH   9  12
ENDBRANCH   1   9
BRANCH   5  22
ATOM     22  C   UNL     1       2.597   4.843  18.800  0.00  0.00    +0.000 C 
BRANCH  22  23
ATOM     23  C   UNL     1       3.259   3.721  17.960  0.00  0.00    +0.000 C 
BRANCH  23  24
ATOM     24  C   UNL     1       4.646   4.093  17.479  0.00  0.00    +0.000 A 
ATOM     25  C   UNL     1       4.934   4.048  16.104  0.00  0.00    +0.000 A 
ATOM     26  C   UNL     1       6.221   4.320  15.638  0.00  0.00    +0.000 A 
ATOM     27  C   UNL     1       7.235   4.646  16.531  0.00  0.00    +0.000 A 
ATOM     28  C   UNL     1       6.959   4.716  17.897  0.00  0.00    +0.000 A 
ATOM     29  C   UNL     1       5.674   4.439  18.369  0.00  0.00    +0.000 A 
ENDBRANCH  23  24
BRANCH  23  30
ATOM     30  O   UNL     1       2.408   3.380  16.854  0.00  0.00    +0.000 OA
ATOM     31  H   UNL     1       1.594   3.901  16.937  0.00  0.00    +0.000 HD
ENDBRANCH  23  30
ENDBRANCH  22  23
ENDBRANCH   5  22
TORSDOF 7
ENDMDL
MODEL 2
REMARK VINA RESULT:      -7.8      0.462      1.600
REMARK  Name = 
REMARK  10 active torsions:
REMARK  status: ('A' for Active; 'I' for Inactive)
REMARK    1  A    between atoms: C_1  and  C_2
REMARK    2  A    between atoms: N_4  and  C_5
REMARK    3  A    between atoms: C_6  and  C_7
REMARK    4  A    between atoms: C_8  and  N_9
REMARK    5  A    between atoms: N_9  and  S_10
REMARK    6  A    between atoms: S_10  and  C_13
REMARK    7  A    between atoms: N_17  and  C_18
REMARK    8  A    between atoms: C_18  and  C_19
REMARK    9  A    between atoms: C_19  and  O_20
REMARK   10  A    between atoms: C_19  and  C_21
REMARK                            x       y       z     vdW  Elec       q    Type
REMARK                         _______ _______ _______ _____ _____    ______ ____
ROOT
ATOM      1  C   UNL     1       1.180   9.554  19.799  0.00  0.00    +0.000 A 
ATOM      2  C   UNL     1       1.488   9.562  18.445  0.00  0.00    +0.000 A 
ATOM      3  C   UNL     1       2.064   8.423  17.891  0.00  0.00    +0.000 A 
ATOM      4  C   UNL     1       2.299   7.308  18.694  0.00  0.00    +0.000 A 
ATOM      5  N   UNL     1       2.678   6.133  18.053  0.00  0.00    +0.000 N 
ATOM      6  N   UNL     1       2.058   7.326  20.024  0.00  0.00    +0.000 NA
ATOM      7  C   UNL     1       1.525   8.456  20.559  0.00  0.00    +0.000 A 
ATOM      8  H   UNL     1       3.541   6.238  17.527  0.00  0.00    +0.000 HD
ENDROOT
BRANCH   1   9
ATOM      9  S   UNL     1       0.309  10.891  20.527  0.00  0.00    +0.000 S 
ATOM     10  O   UNL     1       1.259  11.768  21.177  0.00  0.00    +0.000 OA
ATOM     11  O   UNL     1      -0.809  10.343  21.266  0.00  0.00    +0.000 OA
BRANCH   9  12
ATOM     12  N   UNL     1      -0.359  11.700  19.185  0.00  0.00    +0.000 N 
ATOM     13  H   UNL     1       0.215  11.478  18.371  0.00  0.00    +0.000 HD
BRANCH  12  21
ATOM     14  C   UNL     1      -1.924   9.883  17.121  0.00  0.00    +0.000 C 
ATOM     15  C   UNL     1      -2.454  10.909  18.051  0.00  0.00    +0.000 A 
ATOM     16  N   UNL     1      -3.770  11.130  18.109  0.00  0.00    +0.000 NA
ATOM     17  N   UNL     1      -3.909  12.037  19.088  0.00  0.00    +0.000 N 
ATOM     18  C   UNL     1      -5.242  12.495  19.412  0.00  0.00    +0.000 C 
ATOM     19  C   UNL     1      -2.723  12.402  19.676  0.00  0.00    +0.000 A 
ATOM     20  C   UNL     1      -2.633  13.363  20.807  0.00  0.00    +0.000 C 
ATOM     21  C   UNL     1      -1.746  11.715  18.984  0.00  0.00    +0.000 A 
ENDBRANCH  12  21
ENDBRANCH   9  12
ENDBRANCH   1   9
BRANCH   5  22
ATOM     22  C   UNL     1       2.623   4.894  18.826  0.00  0.00    +0.000 C 
BRANCH  22  23
ATOM     23  C   UNL     1       3.261   3.756  17.990  0.00  0.00    +0.000 C 
BRANCH  23  24
ATOM     24  C   UNL     1       4.644   4.110  17.482  0.00  0.00    +0.000 A 
ATOM     25  C   UNL     1       4.904   4.066  16.103  0.00  0.00    +0.000 A 
ATOM     26  C   UNL     1       6.185   4.320  15.611  0.00  0.00    +0.000 A 
ATOM     27  C   UNL     1       7.221   4.627  16.486  0.00  0.00    +0.000 A 
ATOM     28  C   UNL     1       6.974   4.695  17.857  0.00  0.00    +0.000 A 
ATOM     29  C   UNL     1       5.695   4.436  18.354  0.00  0.00    +0.000 A 
ENDBRANCH  23  24
BRANCH  23  30
ATOM     30  O   UNL     1       2.389   3.410  16.902  0.00  0.00    +0.000 OA
ATOM     31  H   UNL     1       1.477   3.462  17.227  0.00  0.00    +0.000 HD
ENDBRANCH  23  30
ENDBRANCH  22  23
ENDBRANCH   5  22
TORSDOF 7
ENDMDL
MODEL 3
REMARK VINA RESULT:      -7.8      0.810      1.204
REMARK  Name = 
REMARK  10 active torsions:
REMARK  status: ('A' for Active; 'I' for Inactive)
REMARK    1  A    between atoms: C_1  and  C_2
REMARK    2  A    between atoms: N_4  and  C_5
REMARK    3  A    between atoms: C_6  and  C_7
REMARK    4  A    between atoms: C_8  and  N_9
REMARK    5  A    between atoms: N_9  and  S_10
REMARK    6  A    between atoms: S_10  and  C_13
REMARK    7  A    between atoms: N_17  and  C_18
REMARK    8  A    between atoms: C_18  and  C_19
REMARK    9  A    between atoms: C_19  and  O_20
REMARK   10  A    between atoms: C_19  and  C_21
REMARK                            x       y       z     vdW  Elec       q    Type
REMARK                         _______ _______ _______ _____ _____    ______ ____
ROOT
ATOM      1  C   UNL     1       1.307   9.147  19.794  0.00  0.00    +0.000 A 
ATOM      2  C   UNL     1       1.684   9.270  18.463  0.00  0.00    +0.000 A 
ATOM      3  C   UNL     1       2.348   8.205  17.863  0.00  0.00    +0.000 A 
ATOM      4  C   UNL     1       2.600   7.047  18.596  0.00  0.00    +0.000 A 
ATOM      5  N   UNL     1       3.075   5.944  17.895  0.00  0.00    +0.000 N 
ATOM      6  N   UNL     1       2.290   6.954  19.908  0.00  0.00    +0.000 NA
ATOM      7  C   UNL     1       1.670   8.014  20.492  0.00  0.00    +0.000 A 
ATOM      8  H   UNL     1       3.957   6.130  17.426  0.00  0.00    +0.000 HD
ENDROOT
BRANCH   1   9
ATOM      9  S   UNL     1       0.329  10.381  20.566  0.00  0.00    +0.000 S 
ATOM     10  O   UNL     1       1.186  11.213  21.383  0.00  0.00    +0.000 OA
ATOM     11  O   UNL     1      -0.831   9.733  21.142  0.00  0.00    +0.000 OA
BRANCH   9  12
ATOM     12  N   UNL     1      -0.245  11.304  19.253  0.00  0.00    +0.000 N 
ATOM     13  H   UNL     1       0.321  11.068  18.437  0.00  0.00    +0.000 HD
BRANCH  12  21
ATOM     14  C   UNL     1      -2.147  13.277  20.835  0.00  0.00    +0.000 C 
ATOM     15  C   UNL     1      -2.484  12.326  19.750  0.00  0.00    +0.000 A 
ATOM     16  N   UNL     1      -3.738  12.259  19.296  0.00  0.00    +0.000 NA
ATOM     17  N   UNL     1      -3.677  11.381  18.284  0.00  0.00    +0.000 N 
ATOM     18  C   UNL     1      -4.895  11.083  17.562  0.00  0.00    +0.000 C 
ATOM     19  C   UNL     1      -2.417  10.885  18.057  0.00  0.00    +0.000 A 
ATOM     20  C   UNL     1      -2.099   9.927  16.966  0.00  0.00    +0.000 C 
ATOM     21  C   UNL     1      -1.622  11.449  19.036  0.00  0.00    +0.000 A 
ENDBRANCH  12  21
ENDBRANCH   9  12
ENDBRANCH   1   9
BRANCH   5  22
ATOM     22  C   UNL     1       3.046   4.649  18.574  0.00  0.00    +0.000 C 
BRANCH  22  23
ATOM     23  C   UNL     1       4.503   4.159  18.773  0.00  0.00    +0.000 C 
BRANCH  23  24
ATOM     24  C   UNL     1       5.370   4.395  17.554  0.00  0.00    +0.000 A 
ATOM     25  C   UNL     1       6.400   5.348  17.614  0.00  0.00    +0.000 A 
ATOM     26  C   UNL     1       7.171   5.636  16.488  0.00  0.00    +0.000 A 
ATOM     27  C   UNL     1       6.931   4.974  15.289  0.00  0.00    +0.000 A 
ATOM     28  C   UNL     1       5.926   4.009  15.219  0.00  0.00    +0.000 A 
ATOM     29  C   UNL     1       5.148   3.722  16.342  0.00  0.00    +0.000 A 
ENDBRANCH  23  24
BRANCH  23  30
ATOM     30  O   UNL     1       4.499   2.770  19.138  0.00  0.00    +0.000 OA
ATOM     31  H   UNL     1       3.582   2.457  19.097  0.00  0.00    +0.000 HD
ENDBRANCH  23  30
ENDBRANCH  22  23
ENDBRANCH   5  22
TORSDOF 7
ENDMDL
MODEL 4
REMARK VINA RESULT:      -7.7      6.185      9.427
REMARK  Name = 
REMARK  10 active torsions:
REMARK  status: ('A' for Active; 'I' for Inactive)
REMARK    1  A    between atoms: C_1  and  C_2
REMARK    2  A    between atoms: N_4  and  C_5
REMARK    3  A    between atoms: C_6  and  C_7
REMARK    4  A    between atoms: C_8  and  N_9
REMARK    5  A    between atoms: N_9  and  S_10
REMARK    6  A    between atoms: S_10  and  C_13
REMARK    7  A    between atoms: N_17  and  C_18
REMARK    8  A    between atoms: C_18  and  C_19
REMARK    9  A    between atoms: C_19  and  O_20
REMARK   10  A    between atoms: C_19  and  C_21
REMARK                            x       y       z     vdW  Elec       q    Type
REMARK                         _______ _______ _______ _____ _____    ______ ____
ROOT
ATOM      1  C   UNL     1       6.605   5.867  17.536  0.00  0.00    +0.000 A 
ATOM      2  C   UNL     1       7.475   5.601  18.585  0.00  0.00    +0.000 A 
ATOM      3  C   UNL     1       8.327   6.614  19.011  0.00  0.00    +0.000 A 
ATOM      4  C   UNL     1       8.277   7.864  18.395  0.00  0.00    +0.000 A 
ATOM      5  N   UNL     1       8.995   8.895  18.992  0.00  0.00    +0.000 N 
ATOM      6  N   UNL     1       7.475   8.101  17.333  0.00  0.00    +0.000 NA
ATOM      7  C   UNL     1       6.670   7.093  16.906  0.00  0.00    +0.000 A 
ATOM      8  H   UNL     1       9.989   8.694  19.050  0.00  0.00    +0.000 HD
ENDROOT
BRANCH   1   9
ATOM      9  S   UNL     1       5.395   4.693  17.055  0.00  0.00    +0.000 S 
ATOM     10  O   UNL     1       5.959   3.833  16.037  0.00  0.00    +0.000 OA
ATOM     11  O   UNL     1       4.157   5.403  16.814  0.00  0.00    +0.000 OA
BRANCH   9  12
ATOM     12  N   UNL     1       5.151   3.779  18.473  0.00  0.00    +0.000 N 
ATOM     13  H   UNL     1       5.747   4.172  19.202  0.00  0.00    +0.000 HD
BRANCH  12  21
ATOM     14  C   UNL     1       3.911   0.887  18.139  0.00  0.00    +0.000 C 
ATOM     15  C   UNL     1       3.291   2.109  18.704  0.00  0.00    +0.000 A 
ATOM     16  N   UNL     1       2.050   2.053  19.195  0.00  0.00    +0.000 NA
ATOM     17  N   UNL     1       1.835   3.281  19.691  0.00  0.00    +0.000 N 
ATOM     18  C   UNL     1       0.558   3.555  20.312  0.00  0.00    +0.000 C 
ATOM     19  C   UNL     1       2.905   4.129  19.549  0.00  0.00    +0.000 A 
ATOM     20  C   UNL     1       2.914   5.527  20.056  0.00  0.00    +0.000 C 
ATOM     21  C   UNL     1       3.858   3.404  18.861  0.00  0.00    +0.000 A 
ENDBRANCH  12  21
ENDBRANCH   9  12
ENDBRANCH   1   9
BRANCH   5  22
ATOM     22  C   UNL     1       8.708  10.259  18.553  0.00  0.00    +0.000 C 
BRANCH  22  23
ATOM     23  C   UNL     1       9.207  11.247  19.639  0.00  0.00    +0.000 C 
BRANCH  23  24
ATOM     24  C   UNL     1      10.269  12.195  19.121  0.00  0.00    +0.000 A 
ATOM     25  C   UNL     1      10.797  12.002  17.834  0.00  0.00    +0.000 A 
ATOM     26  C   UNL     1      11.824  12.817  17.357  0.00  0.00    +0.000 A 
ATOM     27  C   UNL     1      12.333  13.838  18.151  0.00  0.00    +0.000 A 
ATOM     28  C   UNL     1      11.804  14.056  19.423  0.00  0.00    +0.000 A 
ATOM     29  C   UNL     1      10.780  13.239  19.908  0.00  0.00    +0.000 A 
ENDBRANCH  23  24
BRANCH  23  30
ATOM     30  O   UNL     1       9.686  10.512  20.776  0.00  0.00    +0.000 OA
ATOM     31  H   UNL     1      10.384  11.039  21.195  0.00  0.00    +0.000 HD
ENDBRANCH  23  30
ENDBRANCH  22  23
ENDBRANCH   5  22
TORSDOF 7
ENDMDL
MODEL 5
REMARK VINA RESULT:      -7.7      0.911      1.979
REMARK  Name = 
REMARK  10 active torsions:
REMARK  status: ('A' for Active; 'I' for Inactive)
REMARK    1  A    between atoms: C_1  and  C_2
REMARK    2  A    between atoms: N_4  and  C_5
REMARK    3  A    between atoms: C_6  and  C_7
REMARK    4  A    between atoms: C_8  and  N_9
REMARK    5  A    between atoms: N_9  and  S_10
REMARK    6  A    between atoms: S_10  and  C_13
REMARK    7  A    between atoms: N_17  and  C_18
REMARK    8  A    between atoms: C_18  and  C_19
REMARK    9  A    between atoms: C_19  and  O_20
REMARK   10  A    between atoms: C_19  and  C_21
REMARK                            x       y       z     vdW  Elec       q    Type
REMARK                         _______ _______ _______ _____ _____    ______ ____
ROOT
ATOM      1  C   UNL     1       1.272   9.355  19.799  0.00  0.00    +0.000 A 
ATOM      2  C   UNL     1       1.673   9.422  18.471  0.00  0.00    +0.000 A 
ATOM      3  C   UNL     1       2.275   8.304  17.905  0.00  0.00    +0.000 A 
ATOM      4  C   UNL     1       2.445   7.149  18.668  0.00  0.00    +0.000 A 
ATOM      5  N   UNL     1       2.857   6.002  17.999  0.00  0.00    +0.000 N 
ATOM      6  N   UNL     1       2.113   7.108  19.977  0.00  0.00    +0.000 NA
ATOM      7  C   UNL     1       1.554   8.218  20.528  0.00  0.00    +0.000 A 
ATOM      8  H   UNL     1       3.755   6.121  17.538  0.00  0.00    +0.000 HD
ENDROOT
BRANCH   1   9
ATOM      9  S   UNL     1       0.365  10.666  20.529  0.00  0.00    +0.000 S 
ATOM     10  O   UNL     1       1.283  11.532  21.237  0.00  0.00    +0.000 OA
ATOM     11  O   UNL     1      -0.777  10.091  21.211  0.00  0.00    +0.000 OA
BRANCH   9  12
ATOM     12  N   UNL     1      -0.259  11.507  19.185  0.00  0.00    +0.000 N 
ATOM     13  H   UNL     1       0.286  11.232  18.366  0.00  0.00    +0.000 HD
BRANCH  12  21
ATOM     14  C   UNL     1      -1.957   9.911  17.044  0.00  0.00    +0.000 C 
ATOM     15  C   UNL     1      -2.410  10.917  18.033  0.00  0.00    +0.000 A 
ATOM     16  N   UNL     1      -3.708  11.221  18.119  0.00  0.00    +0.000 NA
ATOM     17  N   UNL     1      -3.780  12.080  19.146  0.00  0.00    +0.000 N 
ATOM     18  C   UNL     1      -5.077  12.605  19.511  0.00  0.00    +0.000 C 
ATOM     19  C   UNL     1      -2.568  12.333  19.740  0.00  0.00    +0.000 A 
ATOM     20  C   UNL     1      -2.405  13.223  20.920  0.00  0.00    +0.000 C 
ATOM     21  C   UNL     1      -1.643  11.623  19.000  0.00  0.00    +0.000 A 
ENDBRANCH  12  21
ENDBRANCH   9  12
ENDBRANCH   1   9
BRANCH   5  22
ATOM     22  C   UNL     1       2.738   4.729  18.706  0.00  0.00    +0.000 C 
BRANCH  22  23
ATOM     23  C   UNL     1       4.153   4.265  19.137  0.00  0.00    +0.000 C 
BRANCH  23  24
ATOM     24  C   UNL     1       5.147   4.284  17.995  0.00  0.00    +0.000 A 
ATOM     25  C   UNL     1       6.440   4.788  18.214  0.00  0.00    +0.000 A 
ATOM     26  C   UNL     1       7.354   4.882  17.165  0.00  0.00    +0.000 A 
ATOM     27  C   UNL     1       6.997   4.469  15.886  0.00  0.00    +0.000 A 
ATOM     28  C   UNL     1       5.724   3.946  15.657  0.00  0.00    +0.000 A 
ATOM     29  C   UNL     1       4.803   3.856  16.703  0.00  0.00    +0.000 A 
ENDBRANCH  23  24
BRANCH  23  30
ATOM     30  O   UNL     1       4.073   2.956  19.725  0.00  0.00    +0.000 OA
ATOM     31  H   UNL     1       3.547   2.398  19.132  0.00  0.00    +0.000 HD
ENDBRANCH  23  30
ENDBRANCH  22  23
ENDBRANCH   5  22
TORSDOF 7
ENDMDL
MODEL 6
REMARK VINA RESULT:      -7.6      1.404      2.361
REMARK  Name = 
REMARK  10 active torsions:
REMARK  status: ('A' for Active; 'I' for Inactive)
REMARK    1  A    between atoms: C_1  and  C_2
REMARK    2  A    between atoms: N_4  and  C_5
REMARK    3  A    between atoms: C_6  and  C_7
REMARK    4  A    between atoms: C_8  and  N_9
REMARK    5  A    between atoms: N_9  and  S_10
REMARK    6  A    between atoms: S_10  and  C_13
REMARK    7  A    between atoms: N_17  and  C_18
REMARK    8  A    between atoms: C_18  and  C_19
REMARK    9  A    between atoms: C_19  and  O_20
REMARK   10  A    between atoms: C_19  and  C_21
REMARK                            x       y       z     vdW  Elec       q    Type
REMARK                         _______ _______ _______ _____ _____    ______ ____
ROOT
ATOM      1  C   UNL     1       0.523   9.927  19.046  0.00  0.00    +0.000 A 
ATOM      2  C   UNL     1       1.141   9.766  17.812  0.00  0.00    +0.000 A 
ATOM      3  C   UNL     1       2.073   8.744  17.667  0.00  0.00    +0.000 A 
ATOM      4  C   UNL     1       2.351   7.905  18.745  0.00  0.00    +0.000 A 
ATOM      5  N   UNL     1       3.127   6.780  18.488  0.00  0.00    +0.000 N 
ATOM      6  N   UNL     1       1.798   8.103  19.962  0.00  0.00    +0.000 NA
ATOM      7  C   UNL     1       0.911   9.124  20.099  0.00  0.00    +0.000 A 
ATOM      8  H   UNL     1       4.046   7.015  18.123  0.00  0.00    +0.000 HD
ENDROOT
BRANCH   1   9
ATOM      9  S   UNL     1      -0.775  11.087  19.254  0.00  0.00    +0.000 S 
ATOM     10  O   UNL     1      -0.566  12.190  18.340  0.00  0.00    +0.000 OA
ATOM     11  O   UNL     1      -0.932  11.329  20.673  0.00  0.00    +0.000 OA
BRANCH   9  12
ATOM     12  N   UNL     1      -2.157  10.221  18.763  0.00  0.00    +0.000 N 
ATOM     13  H   UNL     1      -2.473   9.663  19.558  0.00  0.00    +0.000 HD
BRANCH  12  21
ATOM     14  C   UNL     1      -2.645   9.789  15.667  0.00  0.00    +0.000 C 
ATOM     15  C   UNL     1      -3.374  10.666  16.613  0.00  0.00    +0.000 A 
ATOM     16  N   UNL     1      -4.418  11.379  16.182  0.00  0.00    +0.000 NA
ATOM     17  N   UNL     1      -4.886  11.981  17.285  0.00  0.00    +0.000 N 
ATOM     18  C   UNL     1      -6.043  12.840  17.159  0.00  0.00    +0.000 C 
ATOM     19  C   UNL     1      -4.185  11.669  18.424  0.00  0.00    +0.000 A 
ATOM     20  C   UNL     1      -4.541  12.186  19.772  0.00  0.00    +0.000 C 
ATOM     21  C   UNL     1      -3.156  10.848  18.007  0.00  0.00    +0.000 A 
ENDBRANCH  12  21
ENDBRANCH   9  12
ENDBRANCH   1   9
BRANCH   5  22
ATOM     22  C   UNL     1       3.166   5.738  19.513  0.00  0.00    +0.000 C 
BRANCH  22  23
ATOM     23  C   UNL     1       3.429   4.374  18.827  0.00  0.00    +0.000 C 
BRANCH  23  24
ATOM     24  C   UNL     1       4.685   4.379  17.981  0.00  0.00    +0.000 A 
ATOM     25  C   UNL     1       5.922   4.660  18.585  0.00  0.00    +0.000 A 
ATOM     26  C   UNL     1       7.086   4.738  17.820  0.00  0.00    +0.000 A 
ATOM     27  C   UNL     1       7.036   4.532  16.446  0.00  0.00    +0.000 A 
ATOM     28  C   UNL     1       5.818   4.231  15.835  0.00  0.00    +0.000 A 
ATOM     29  C   UNL     1       4.650   4.157  16.595  0.00  0.00    +0.000 A 
ENDBRANCH  23  24
BRANCH  23  30
ATOM     30  O   UNL     1       2.285   3.999  18.044  0.00  0.00    +0.000 OA
ATOM     31  H   UNL     1       1.824   4.812  17.788  0.00  0.00    +0.000 HD
ENDBRANCH  23  30
ENDBRANCH  22  23
ENDBRANCH   5  22
TORSDOF 7
ENDMDL
MODEL 7
REMARK VINA RESULT:      -7.6      1.519      2.445
REMARK  Name = 
REMARK  10 active torsions:
REMARK  status: ('A' for Active; 'I' for Inactive)
REMARK    1  A    between atoms: C_1  and  C_2
REMARK    2  A    between atoms: N_4  and  C_5
REMARK    3  A    between atoms: C_6  and  C_7
REMARK    4  A    between atoms: C_8  and  N_9
REMARK    5  A    between atoms: N_9  and  S_10
REMARK    6  A    between atoms: S_10  and  C_13
REMARK    7  A    between atoms: N_17  and  C_18
REMARK    8  A    between atoms: C_18  and  C_19
REMARK    9  A    between atoms: C_19  and  O_20
REMARK   10  A    between atoms: C_19  and  C_21
REMARK                            x       y       z     vdW  Elec       q    Type
REMARK                         _______ _______ _______ _____ _____    ______ ____
ROOT
ATOM      1  C   UNL     1       1.574   8.094  20.373  0.00  0.00    +0.000 A 
ATOM      2  C   UNL     1       1.942   8.515  19.102  0.00  0.00    +0.000 A 
ATOM      3  C   UNL     1       2.453   7.573  18.215  0.00  0.00    +0.000 A 
ATOM      4  C   UNL     1       2.565   6.241  18.611  0.00  0.00    +0.000 A 
ATOM      5  N   UNL     1       2.881   5.312  17.626  0.00  0.00    +0.000 N 
ATOM      6  N   UNL     1       2.267   5.846  19.868  0.00  0.00    +0.000 NA
ATOM      7  C   UNL     1       1.798   6.782  20.735  0.00  0.00    +0.000 A 
ATOM      8  H   UNL     1       3.772   5.506  17.178  0.00  0.00    +0.000 HD
ENDROOT
BRANCH   1   9
ATOM      9  S   UNL     1       0.776   9.190  21.485  0.00  0.00    +0.000 S 
ATOM     10  O   UNL     1       1.634   9.397  22.632  0.00  0.00    +0.000 OA
ATOM     11  O   UNL     1      -0.587   8.733  21.660  0.00  0.00    +0.000 OA
BRANCH   9  12
ATOM     12  N   UNL     1       0.681  10.643  20.600  0.00  0.00    +0.000 N 
ATOM     13  H   UNL     1       1.283  10.549  19.781  0.00  0.00    +0.000 HD
BRANCH  12  21
ATOM     14  C   UNL     1      -1.129  10.307  18.026  0.00  0.00    +0.000 C 
ATOM     15  C   UNL     1      -1.369  11.130  19.235  0.00  0.00    +0.000 A 
ATOM     16  N   UNL     1      -2.503  11.828  19.344  0.00  0.00    +0.000 NA
ATOM     17  N   UNL     1      -2.437  12.377  20.566  0.00  0.00    +0.000 N 
ATOM     18  C   UNL     1      -3.538  13.208  21.004  0.00  0.00    +0.000 C 
ATOM     19  C   UNL     1      -1.300  12.046  21.260  0.00  0.00    +0.000 A 
ATOM     20  C   UNL     1      -1.025  12.505  22.647  0.00  0.00    +0.000 C 
ATOM     21  C   UNL     1      -0.557  11.269  20.394  0.00  0.00    +0.000 A 
ENDBRANCH  12  21
ENDBRANCH   9  12
ENDBRANCH   1   9
BRANCH   5  22
ATOM     22  C   UNL     1       2.697   3.898  17.948  0.00  0.00    +0.000 C 
BRANCH  22  23
ATOM     23  C   UNL     1       4.089   3.247  18.148  0.00  0.00    +0.000 C 
BRANCH  23  24
ATOM     24  C   UNL     1       5.161   3.884  17.289  0.00  0.00    +0.000 A 
ATOM     25  C   UNL     1       6.192   4.615  17.902  0.00  0.00    +0.000 A 
ATOM     26  C   UNL     1       7.154   5.270  17.133  0.00  0.00    +0.000 A 
ATOM     27  C   UNL     1       7.107   5.201  15.745  0.00  0.00    +0.000 A 
ATOM     28  C   UNL     1       6.101   4.462  15.122  0.00  0.00    +0.000 A 
ATOM     29  C   UNL     1       5.132   3.809  15.887  0.00  0.00    +0.000 A 
ENDBRANCH  23  24
BRANCH  23  30
ATOM     30  O   UNL     1       4.002   1.835  17.896  0.00  0.00    +0.000 OA
ATOM     31  H   UNL     1       4.876   1.533  17.604  0.00  0.00    +0.000 HD
ENDBRANCH  23  30
ENDBRANCH  22  23
ENDBRANCH   5  22
TORSDOF 7
ENDMDL
MODEL 8
REMARK VINA RESULT:      -7.6      2.417      9.147
REMARK  Name = 
REMARK  10 active torsions:
REMARK  status: ('A' for Active; 'I' for Inactive)
REMARK    1  A    between atoms: C_1  and  C_2
REMARK    2  A    between atoms: N_4  and  C_5
REMARK    3  A    between atoms: C_6  and  C_7
REMARK    4  A    between atoms: C_8  and  N_9
REMARK    5  A    between atoms: N_9  and  S_10
REMARK    6  A    between atoms: S_10  and  C_13
REMARK    7  A    between atoms: N_17  and  C_18
REMARK    8  A    between atoms: C_18  and  C_19
REMARK    9  A    between atoms: C_19  and  O_20
REMARK   10  A    between atoms: C_19  and  C_21
REMARK                            x       y       z     vdW  Elec       q    Type
REMARK                         _______ _______ _______ _____ _____    ______ ____
ROOT
ATOM      1  C   UNL     1       2.123   7.103  19.811  0.00  0.00    +0.000 A 
ATOM      2  C   UNL     1       1.610   7.440  21.057  0.00  0.00    +0.000 A 
ATOM      3  C   UNL     1       0.988   8.675  21.204  0.00  0.00    +0.000 A 
ATOM      4  C   UNL     1       0.879   9.529  20.107  0.00  0.00    +0.000 A 
ATOM      5  N   UNL     1       0.071  10.651  20.255  0.00  0.00    +0.000 N 
ATOM      6  N   UNL     1       1.436   9.227  18.913  0.00  0.00    +0.000 NA
ATOM      7  C   UNL     1       2.068   8.030  18.791  0.00  0.00    +0.000 A 
ATOM      8  H   UNL     1       0.384  11.261  21.005  0.00  0.00    +0.000 HD
ENDROOT
BRANCH   1   9
ATOM      9  S   UNL     1       2.775   5.503  19.513  0.00  0.00    +0.000 S 
ATOM     10  O   UNL     1       1.839   4.517  20.012  0.00  0.00    +0.000 OA
ATOM     11  O   UNL     1       4.154   5.495  19.954  0.00  0.00    +0.000 OA
BRANCH   9  12
ATOM     12  N   UNL     1       2.819   5.408  17.812  0.00  0.00    +0.000 N 
ATOM     13  H   UNL     1       2.452   6.286  17.443  0.00  0.00    +0.000 HD
BRANCH  12  21
ATOM     14  C   UNL     1       3.564   2.336  17.664  0.00  0.00    +0.000 C 
ATOM     15  C   UNL     1       4.287   3.500  17.098  0.00  0.00    +0.000 A 
ATOM     16  N   UNL     1       5.397   3.304  16.383  0.00  0.00    +0.000 NA
ATOM     17  N   UNL     1       5.739   4.530  15.960  0.00  0.00    +0.000 N 
ATOM     18  C   UNL     1       6.921   4.666  15.138  0.00  0.00    +0.000 C 
ATOM     19  C   UNL     1       4.876   5.517  16.370  0.00  0.00    +0.000 A 
ATOM     20  C   UNL     1       5.030   6.946  15.994  0.00  0.00    +0.000 C 
ATOM     21  C   UNL     1       3.940   4.878  17.160  0.00  0.00    +0.000 A 
ENDBRANCH  12  21
ENDBRANCH   9  12
ENDBRANCH   1   9
BRANCH   5  22
ATOM     22  C   UNL     1      -0.303  11.377  19.043  0.00  0.00    +0.000 C 
BRANCH  22  23
ATOM     23  C   UNL     1      -1.835  11.616  19.058  0.00  0.00    +0.000 C 
BRANCH  23  24
ATOM     24  C   UNL     1      -2.508  11.169  17.777  0.00  0.00    +0.000 A 
ATOM     25  C   UNL     1      -3.786  11.659  17.463  0.00  0.00    +0.000 A 
ATOM     26  C   UNL     1      -4.460  11.214  16.325  0.00  0.00    +0.000 A 
ATOM     27  C   UNL     1      -3.868  10.280  15.483  0.00  0.00    +0.000 A 
ATOM     28  C   UNL     1      -2.590   9.799  15.770  0.00  0.00    +0.000 A 
ATOM     29  C   UNL     1      -1.914  10.238  16.911  0.00  0.00    +0.000 A 
ENDBRANCH  23  24
BRANCH  23  30
ATOM     30  O   UNL     1      -2.104  13.002  19.322  0.00  0.00    +0.000 OA
ATOM     31  H   UNL     1      -2.157  13.460  18.469  0.00  0.00    +0.000 HD
ENDBRANCH  23  30
ENDBRANCH  22  23
ENDBRANCH   5  22
TORSDOF 7
ENDMDL
MODEL 9
REMARK VINA RESULT:      -7.6      2.788      9.260
REMARK  Name = 
REMARK  10 active torsions:
REMARK  status: ('A' for Active; 'I' for Inactive)
REMARK    1  A    between atoms: C_1  and  C_2
REMARK    2  A    between atoms: N_4  and  C_5
REMARK    3  A    between atoms: C_6  and  C_7
REMARK    4  A    between atoms: C_8  and  N_9
REMARK    5  A    between atoms: N_9  and  S_10
REMARK    6  A    between atoms: S_10  and  C_13
REMARK    7  A    between atoms: N_17  and  C_18
REMARK    8  A    between atoms: C_18  and  C_19
REMARK    9  A    between atoms: C_19  and  O_20
REMARK   10  A    between atoms: C_19  and  C_21
REMARK                            x       y       z     vdW  Elec       q    Type
REMARK                         _______ _______ _______ _____ _____    ______ ____
ROOT
ATOM      1  C   UNL     1       2.921   4.778  18.533  0.00  0.00    +0.000 A 
ATOM      2  C   UNL     1       2.667   4.821  19.898  0.00  0.00    +0.000 A 
ATOM      3  C   UNL     1       2.302   6.038  20.464  0.00  0.00    +0.000 A 
ATOM      4  C   UNL     1       2.184   7.168  19.656  0.00  0.00    +0.000 A 
ATOM      5  N   UNL     1       1.618   8.302  20.230  0.00  0.00    +0.000 N 
ATOM      6  N   UNL     1       2.495   7.138  18.342  0.00  0.00    +0.000 NA
ATOM      7  C   UNL     1       2.881   5.949  17.806  0.00  0.00    +0.000 A 
ATOM      8  H   UNL     1       2.142   8.634  21.035  0.00  0.00    +0.000 HD
ENDROOT
BRANCH   1   9
ATOM      9  S   UNL     1       3.228   3.251  17.727  0.00  0.00    +0.000 S 
ATOM     10  O   UNL     1       2.672   3.309  16.392  0.00  0.00    +0.000 OA
ATOM     11  O   UNL     1       2.853   2.186  18.633  0.00  0.00    +0.000 OA
BRANCH   9  12
ATOM     12  N   UNL     1       4.928   3.203  17.614  0.00  0.00    +0.000 N 
ATOM     13  H   UNL     1       5.183   2.332  17.147  0.00  0.00    +0.000 HD
BRANCH  12  21
ATOM     14  C   UNL     1       5.294   4.231  14.644  0.00  0.00    +0.000 C 
ATOM     15  C   UNL     1       5.824   4.807  15.903  0.00  0.00    +0.000 A 
ATOM     16  N   UNL     1       6.535   5.937  15.865  0.00  0.00    +0.000 NA
ATOM     17  N   UNL     1       6.780   6.218  17.153  0.00  0.00    +0.000 N 
ATOM     18  C   UNL     1       7.541   7.408  17.463  0.00  0.00    +0.000 C 
ATOM     19  C   UNL     1       6.237   5.309  18.029  0.00  0.00    +0.000 A 
ATOM     20  C   UNL     1       6.346   5.433  19.506  0.00  0.00    +0.000 C 
ATOM     21  C   UNL     1       5.647   4.346  17.236  0.00  0.00    +0.000 A 
ENDBRANCH  12  21
ENDBRANCH   9  12
ENDBRANCH   1   9
BRANCH   5  22
ATOM     22  C   UNL     1       1.202   9.377  19.332  0.00  0.00    +0.000 C 
BRANCH  22  23
ATOM     23  C   UNL     1      -0.032  10.088  19.944  0.00  0.00    +0.000 C 
BRANCH  23  24
ATOM     24  C   UNL     1      -1.073  10.447  18.905  0.00  0.00    +0.000 A 
ATOM     25  C   UNL     1      -2.033  11.429  19.201  0.00  0.00    +0.000 A 
ATOM     26  C   UNL     1      -3.046  11.732  18.291  0.00  0.00    +0.000 A 
ATOM     27  C   UNL     1      -3.113  11.067  17.071  0.00  0.00    +0.000 A 
ATOM     28  C   UNL     1      -2.154  10.105  16.754  0.00  0.00    +0.000 A 
ATOM     29  C   UNL     1      -1.142   9.794  17.664  0.00  0.00    +0.000 A 
ENDBRANCH  23  24
BRANCH  23  30
ATOM     30  O   UNL     1       0.393  11.254  20.667  0.00  0.00    +0.000 OA
ATOM     31  H   UNL     1       1.259  11.518  20.320  0.00  0.00    +0.000 HD
ENDBRANCH  23  30
ENDBRANCH  22  23
ENDBRANCH   5  22
TORSDOF 7
ENDMDL
