MODEL 1
REMARK VINA RESULT:      -8.7      0.000      0.000
REMARK  Name = 
REMARK  6 active torsions:
REMARK  status: ('A' for Active; 'I' for Inactive)
REMARK    1  A    between atoms: C_2  and  O_3
REMARK    2  A    between atoms: C_2  and  C_4
REMARK    3  A    between atoms: C_4  and  C_5
REMARK    4  A    between atoms: C_5  and  C_6
REMARK    5  A    between atoms: C_5  and  C_18
REMARK    6  A    between atoms: C_7  and  O_8
REMARK                            x       y       z     vdW  Elec       q    Type
REMARK                         _______ _______ _______ _____ _____    ______ ____
ROOT
ATOM      1  C   UNL     1       5.368   5.787  18.364  0.00  0.00    +0.000 C 
ENDROOT
BRANCH   1   2
ATOM      2  C   UNL     1       3.997   5.868  19.072  0.00  0.00    +0.000 A 
ATOM      3  C   UNL     1       3.617   4.946  19.972  0.00  0.00    +0.000 A 
ATOM      4  C   UNL     1       2.416   5.024  20.811  0.00  0.00    +0.000 A 
ATOM      5  O   UNL     1       2.101   4.095  21.546  0.00  0.00    +0.000 OA
ATOM      6  O   UNL     1       1.719   6.205  20.770  0.00  0.00    +0.000 OA
ATOM      7  C   UNL     1       2.016   7.206  19.816  0.00  0.00    +0.000 A 
ATOM      8  C   UNL     1       3.093   7.047  18.925  0.00  0.00    +0.000 A 
ATOM      9  C   UNL     1       3.245   8.051  17.964  0.00  0.00    +0.000 A 
ATOM     10  C   UNL     1       2.384   9.163  17.921  0.00  0.00    +0.000 A 
ATOM     11  C   UNL     1       1.347   9.327  18.852  0.00  0.00    +0.000 A 
ATOM     12  C   UNL     1       0.513  10.460  18.832  0.00  0.00    +0.000 A 
ATOM     13  C   UNL     1      -0.514  10.613  19.765  0.00  0.00    +0.000 A 
ATOM     14  C   UNL     1      -0.724   9.632  20.727  0.00  0.00    +0.000 A 
ATOM     15  C   UNL     1       0.095   8.503  20.755  0.00  0.00    +0.000 A 
ATOM     16  C   UNL     1       1.146   8.330  19.823  0.00  0.00    +0.000 A 
ENDBRANCH   1   2
BRANCH   1  17
ATOM     17  C   UNL     1       5.316   5.376  16.875  0.00  0.00    +0.000 A 
ATOM     18  C   UNL     1       6.184   5.831  15.946  0.00  0.00    +0.000 A 
ATOM     19  C   UNL     1       6.343   5.145  14.661  0.00  0.00    +0.000 A 
ATOM     20  C   UNL     1       7.421   5.356  13.793  0.00  0.00    +0.000 A 
ATOM     21  C   UNL     1       7.553   4.593  12.624  0.00  0.00    +0.000 A 
ATOM     22  C   UNL     1       6.604   3.623  12.303  0.00  0.00    +0.000 A 
ATOM     23  C   UNL     1       5.519   3.418  13.147  0.00  0.00    +0.000 A 
ATOM     24  C   UNL     1       5.414   4.176  14.312  0.00  0.00    +0.000 A 
ATOM     25  O   UNL     1       4.347   3.875  15.156  0.00  0.00    +0.000 OA
ATOM     26  C   UNL     1       4.402   4.254  16.482  0.00  0.00    +0.000 A 
ATOM     27  O   UNL     1       3.691   3.671  17.293  0.00  0.00    +0.000 OA
BRANCH  18  28
ATOM     28  O   UNL     1       7.070   6.864  16.159  0.00  0.00    +0.000 OA
ATOM     29  H   UNL     1       7.924   6.622  15.766  0.00  0.00    +0.000 HD
ENDBRANCH  18  28
ENDBRANCH   1  17
BRANCH   1  30
ATOM     30  C   UNL     1       6.414   4.898  19.096  0.00  0.00    +0.000 C 
BRANCH  30  32
ATOM     31  O   UNL     1       8.230   6.481  18.869  0.00  0.00    +0.000 OA
ATOM     32  C   UNL     1       7.655   5.629  19.532  0.00  0.00    +0.000 C 
BRANCH  32  33
ATOM     33  O   UNL     1       8.120   5.197  20.727  0.00  0.00    +0.000 OA
ATOM     34  H   UNL     1       7.657   4.419  21.098  0.00  0.00    +0.000 HD
ENDBRANCH  32  33
ENDBRANCH  30  32
ENDBRANCH   1  30
TORSDOF 6
ENDMDL
MODEL 2
REMARK VINA RESULT:      -8.6      4.225      8.945
REMARK  Name = 
REMARK  6 active torsions:
REMARK  status: ('A' for Active; 'I' for Inactive)
REMARK    1  A    between atoms: C_2  and  O_3
REMARK    2  A    between atoms: C_2  and  C_4
REMARK    3  A    between atoms: C_4  and  C_5
REMARK    4  A    between atoms: C_5  and  C_6
REMARK    5  A    between atoms: C_5  and  C_18
REMARK    6  A    between atoms: C_7  and  O_8
REMARK                            x       y       z     vdW  Elec       q    Type
REMARK                         _______ _______ _______ _____ _____    ______ ____
ROOT
ATOM      1  C   UNL     1       0.190  11.273  18.701  0.00  0.00    +0.000 C 
ENDROOT
BRANCH   1   2
ATOM      2  C   UNL     1       0.611  10.148  19.671  0.00  0.00    +0.000 A 
ATOM      3  C   UNL     1       0.121  10.078  20.920  0.00  0.00    +0.000 A 
ATOM      4  C   UNL     1       0.332   8.966  21.853  0.00  0.00    +0.000 A 
ATOM      5  O   UNL     1      -0.083   9.025  23.005  0.00  0.00    +0.000 OA
ATOM      6  O   UNL     1       0.952   7.852  21.346  0.00  0.00    +0.000 OA
ATOM      7  C   UNL     1       1.546   7.858  20.063  0.00  0.00    +0.000 A 
ATOM      8  C   UNL     1       1.449   8.992  19.234  0.00  0.00    +0.000 A 
ATOM      9  C   UNL     1       2.146   8.926  18.025  0.00  0.00    +0.000 A 
ATOM     10  C   UNL     1       2.872   7.779  17.656  0.00  0.00    +0.000 A 
ATOM     11  C   UNL     1       2.914   6.641  18.474  0.00  0.00    +0.000 A 
ATOM     12  C   UNL     1       3.607   5.479  18.085  0.00  0.00    +0.000 A 
ATOM     13  C   UNL     1       3.638   4.352  18.907  0.00  0.00    +0.000 A 
ATOM     14  C   UNL     1       2.983   4.372  20.132  0.00  0.00    +0.000 A 
ATOM     15  C   UNL     1       2.294   5.518  20.530  0.00  0.00    +0.000 A 
ATOM     16  C   UNL     1       2.243   6.670  19.710  0.00  0.00    +0.000 A 
ENDBRANCH   1   2
BRANCH   1  17
ATOM     17  C   UNL     1       0.791  12.664  19.006  0.00  0.00    +0.000 A 
ATOM     18  C   UNL     1       1.874  13.162  18.374  0.00  0.00    +0.000 A 
ATOM     19  C   UNL     1       2.177  14.595  18.411  0.00  0.00    +0.000 A 
ATOM     20  C   UNL     1       3.077  15.225  17.542  0.00  0.00    +0.000 A 
ATOM     21  C   UNL     1       3.245  16.617  17.576  0.00  0.00    +0.000 A 
ATOM     22  C   UNL     1       2.528  17.392  18.488  0.00  0.00    +0.000 A 
ATOM     23  C   UNL     1       1.646  16.776  19.368  0.00  0.00    +0.000 A 
ATOM     24  C   UNL     1       1.483  15.393  19.308  0.00  0.00    +0.000 A 
ATOM     25  O   UNL     1       0.531  14.841  20.163  0.00  0.00    +0.000 OA
ATOM     26  C   UNL     1       0.009  13.595  19.884  0.00  0.00    +0.000 A 
ATOM     27  O   UNL     1      -1.070  13.284  20.376  0.00  0.00    +0.000 OA
BRANCH  18  28
ATOM     28  O   UNL     1       2.695  12.423  17.550  0.00  0.00    +0.000 OA
ATOM     29  H   UNL     1       2.766  12.881  16.697  0.00  0.00    +0.000 HD
ENDBRANCH  18  28
ENDBRANCH   1  17
BRANCH   1  30
ATOM     30  C   UNL     1      -1.349  11.417  18.518  0.00  0.00    +0.000 C 
BRANCH  30  32
ATOM     31  O   UNL     1      -1.999   9.628  17.025  0.00  0.00    +0.000 OA
ATOM     32  C   UNL     1      -1.882  10.826  17.242  0.00  0.00    +0.000 C 
BRANCH  32  33
ATOM     33  O   UNL     1      -2.166  11.767  16.312  0.00  0.00    +0.000 OA
ATOM     34  H   UNL     1      -3.115  11.871  16.101  0.00  0.00    +0.000 HD
ENDBRANCH  32  33
ENDBRANCH  30  32
ENDBRANCH   1  30
TORSDOF 6
ENDMDL
MODEL 3
REMARK VINA RESULT:      -8.3      4.395      8.858
REMARK  Name = 
REMARK  6 active torsions:
REMARK  status: ('A' for Active; 'I' for Inactive)
REMARK    1  A    between atoms: C_2  and  O_3
REMARK    2  A    between atoms: C_2  and  C_4
REMARK    3  A    between atoms: C_4  and  C_5
REMARK    4  A    between atoms: C_5  and  C_6
REMARK    5  A    between atoms: C_5  and  C_18
REMARK    6  A    between atoms: C_7  and  O_8
REMARK                            x       y       z     vdW  Elec       q    Type
REMARK                         _______ _______ _______ _____ _____    ______ ____
ROOT
ATOM      1  C   UNL     1       0.568  11.643  19.338  0.00  0.00    +0.000 C 
ENDROOT
BRANCH   1   2
ATOM      2  C   UNL     1       0.841  10.385  20.192  0.00  0.00    +0.000 A 
ATOM      3  C   UNL     1       0.381  10.278  21.450  0.00  0.00    +0.000 A 
ATOM      4  C   UNL     1       0.448   9.068  22.277  0.00  0.00    +0.000 A 
ATOM      5  O   UNL     1       0.079   9.085  23.445  0.00  0.00    +0.000 OA
ATOM      6  O   UNL     1       0.879   7.925  21.653  0.00  0.00    +0.000 OA
ATOM      7  C   UNL     1       1.431   7.957  20.352  0.00  0.00    +0.000 A 
ATOM      8  C   UNL     1       1.483   9.162  19.626  0.00  0.00    +0.000 A 
ATOM      9  C   UNL     1       2.129   9.102  18.388  0.00  0.00    +0.000 A 
ATOM     10  C   UNL     1       2.663   7.898  17.895  0.00  0.00    +0.000 A 
ATOM     11  C   UNL     1       2.555   6.697  18.612  0.00  0.00    +0.000 A 
ATOM     12  C   UNL     1       3.054   5.485  18.099  0.00  0.00    +0.000 A 
ATOM     13  C   UNL     1       2.938   4.297  18.822  0.00  0.00    +0.000 A 
ATOM     14  C   UNL     1       2.327   4.305  20.069  0.00  0.00    +0.000 A 
ATOM     15  C   UNL     1       1.830   5.500  20.590  0.00  0.00    +0.000 A 
ATOM     16  C   UNL     1       1.931   6.716  19.873  0.00  0.00    +0.000 A 
ENDBRANCH   1   2
BRANCH   1  17
ATOM     17  C   UNL     1       1.598  12.784  19.497  0.00  0.00    +0.000 A 
ATOM     18  C   UNL     1       2.354  13.253  18.482  0.00  0.00    +0.000 A 
ATOM     19  C   UNL     1       3.021  14.554  18.575  0.00  0.00    +0.000 A 
ATOM     20  C   UNL     1       3.547  15.242  17.475  0.00  0.00    +0.000 A 
ATOM     21  C   UNL     1       4.088  16.526  17.630  0.00  0.00    +0.000 A 
ATOM     22  C   UNL     1       4.121  17.131  18.886  0.00  0.00    +0.000 A 
ATOM     23  C   UNL     1       3.619  16.451  19.989  0.00  0.00    +0.000 A 
ATOM     24  C   UNL     1       3.072  15.181  19.811  0.00  0.00    +0.000 A 
ATOM     25  O   UNL     1       2.517  14.579  20.939  0.00  0.00    +0.000 OA
ATOM     26  C   UNL     1       1.604  13.556  20.783  0.00  0.00    +0.000 A 
ATOM     27  O   UNL     1       0.839  13.302  21.706  0.00  0.00    +0.000 OA
BRANCH  18  28
ATOM     28  O   UNL     1       2.458  12.642  17.252  0.00  0.00    +0.000 OA
ATOM     29  H   UNL     1       2.355  13.318  16.563  0.00  0.00    +0.000 HD
ENDBRANCH  18  28
ENDBRANCH   1  17
BRANCH   1  30
ATOM     30  C   UNL     1      -0.864  12.229  19.503  0.00  0.00    +0.000 C 
BRANCH  30  32
ATOM     31  O   UNL     1      -2.790  11.363  18.320  0.00  0.00    +0.000 OA
ATOM     32  C   UNL     1      -1.760  12.025  18.312  0.00  0.00    +0.000 C 
BRANCH  32  33
ATOM     33  O   UNL     1      -1.275  12.605  17.190  0.00  0.00    +0.000 OA
ATOM     34  H   UNL     1      -1.844  13.296  16.798  0.00  0.00    +0.000 HD
ENDBRANCH  32  33
ENDBRANCH  30  32
ENDBRANCH   1  30
TORSDOF 6
ENDMDL
MODEL 4
REMARK VINA RESULT:      -8.2      4.538      9.628
REMARK  Name = 
REMARK  6 active torsions:
REMARK  status: ('A' for Active; 'I' for Inactive)
REMARK    1  A    between atoms: C_2  and  O_3
REMARK    2  A    between atoms: C_2  and  C_4
REMARK    3  A    between atoms: C_4  and  C_5
REMARK    4  A    between atoms: C_5  and  C_6
REMARK    5  A    between atoms: C_5  and  C_18
REMARK    6  A    between atoms: C_7  and  O_8
REMARK                            x       y       z     vdW  Elec       q    Type
REMARK                         _______ _______ _______ _____ _____    ______ ____
ROOT
ATOM      1  C   UNL     1      -0.014  11.943  18.535  0.00  0.00    +0.000 C 
ENDROOT
BRANCH   1   2
ATOM      2  C   UNL     1       0.474  10.908  19.572  0.00  0.00    +0.000 A 
ATOM      3  C   UNL     1       0.142  11.005  20.871  0.00  0.00    +0.000 A 
ATOM      4  C   UNL     1       0.418   9.992  21.895  0.00  0.00    +0.000 A 
ATOM      5  O   UNL     1       0.155  10.202  23.073  0.00  0.00    +0.000 OA
ATOM      6  O   UNL     1       0.917   8.794  21.450  0.00  0.00    +0.000 OA
ATOM      7  C   UNL     1       1.345   8.623  20.113  0.00  0.00    +0.000 A 
ATOM      8  C   UNL     1       1.196   9.663  19.176  0.00  0.00    +0.000 A 
ATOM      9  C   UNL     1       1.732   9.423  17.907  0.00  0.00    +0.000 A 
ATOM     10  C   UNL     1       2.353   8.201  17.590  0.00  0.00    +0.000 A 
ATOM     11  C   UNL     1       2.444   7.159  18.525  0.00  0.00    +0.000 A 
ATOM     12  C   UNL     1       3.029   5.922  18.193  0.00  0.00    +0.000 A 
ATOM     13  C   UNL     1       3.112   4.892  19.131  0.00  0.00    +0.000 A 
ATOM     14  C   UNL     1       2.617   5.086  20.415  0.00  0.00    +0.000 A 
ATOM     15  C   UNL     1       2.037   6.308  20.757  0.00  0.00    +0.000 A 
ATOM     16  C   UNL     1       1.936   7.364  19.821  0.00  0.00    +0.000 A 
ENDBRANCH   1   2
BRANCH   1  17
ATOM     17  C   UNL     1       0.549  13.371  18.715  0.00  0.00    +0.000 A 
ATOM     18  C   UNL     1      -0.119  14.361  19.344  0.00  0.00    +0.000 A 
ATOM     19  C   UNL     1       0.578  15.557  19.824  0.00  0.00    +0.000 A 
ATOM     20  C   UNL     1       0.034  16.461  20.743  0.00  0.00    +0.000 A 
ATOM     21  C   UNL     1       0.799  17.533  21.227  0.00  0.00    +0.000 A 
ATOM     22  C   UNL     1       2.109  17.720  20.786  0.00  0.00    +0.000 A 
ATOM     23  C   UNL     1       2.654  16.840  19.859  0.00  0.00    +0.000 A 
ATOM     24  C   UNL     1       1.882  15.773  19.402  0.00  0.00    +0.000 A 
ATOM     25  O   UNL     1       2.506  14.882  18.531  0.00  0.00    +0.000 OA
ATOM     26  C   UNL     1       1.989  13.612  18.373  0.00  0.00    +0.000 A 
ATOM     27  O   UNL     1       2.720  12.726  17.944  0.00  0.00    +0.000 OA
BRANCH  18  28
ATOM     28  O   UNL     1      -1.447  14.288  19.705  0.00  0.00    +0.000 OA
ATOM     29  H   UNL     1      -1.570  13.504  20.264  0.00  0.00    +0.000 HD
ENDBRANCH  18  28
ENDBRANCH   1  17
BRANCH   1  30
ATOM     30  C   UNL     1      -1.561  12.025  18.392  0.00  0.00    +0.000 C 
BRANCH  30  32
ATOM     31  O   UNL     1      -2.476   9.910  17.653  0.00  0.00    +0.000 OA
ATOM     32  C   UNL     1      -2.146  11.060  17.397  0.00  0.00    +0.000 C 
BRANCH  32  33
ATOM     33  O   UNL     1      -2.215  11.578  16.149  0.00  0.00    +0.000 OA
ATOM     34  H   UNL     1      -2.418  10.934  15.442  0.00  0.00    +0.000 HD
ENDBRANCH  32  33
ENDBRANCH  30  32
ENDBRANCH   1  30
TORSDOF 6
ENDMDL
MODEL 5
REMARK VINA RESULT:      -8.2      4.294      7.684
REMARK  Name = 
REMARK  6 active torsions:
REMARK  status: ('A' for Active; 'I' for Inactive)
REMARK    1  A    between atoms: C_2  and  O_3
REMARK    2  A    between atoms: C_2  and  C_4
REMARK    3  A    between atoms: C_4  and  C_5
REMARK    4  A    between atoms: C_5  and  C_6
REMARK    5  A    between atoms: C_5  and  C_18
REMARK    6  A    between atoms: C_7  and  O_8
REMARK                            x       y       z     vdW  Elec       q    Type
REMARK                         _______ _______ _______ _____ _____    ______ ____
ROOT
ATOM      1  C   UNL     1       0.661  11.549  19.348  0.00  0.00    +0.000 C 
ENDROOT
BRANCH   1   2
ATOM      2  C   UNL     1      -0.658  11.960  20.037  0.00  0.00    +0.000 A 
ATOM      3  C   UNL     1      -0.663  12.714  21.150  0.00  0.00    +0.000 A 
ATOM      4  C   UNL     1      -1.857  13.288  21.779  0.00  0.00    +0.000 A 
ATOM      5  O   UNL     1      -1.777  13.894  22.842  0.00  0.00    +0.000 OA
ATOM      6  O   UNL     1      -3.034  13.162  21.086  0.00  0.00    +0.000 OA
ATOM      7  C   UNL     1      -3.131  12.342  19.938  0.00  0.00    +0.000 A 
ATOM      8  C   UNL     1      -1.994  11.687  19.429  0.00  0.00    +0.000 A 
ATOM      9  C   UNL     1      -2.215  10.830  18.347  0.00  0.00    +0.000 A 
ATOM     10  C   UNL     1      -3.496  10.664  17.791  0.00  0.00    +0.000 A 
ATOM     11  C   UNL     1      -4.607  11.366  18.281  0.00  0.00    +0.000 A 
ATOM     12  C   UNL     1      -5.881  11.231  17.697  0.00  0.00    +0.000 A 
ATOM     13  C   UNL     1      -6.978  11.936  18.193  0.00  0.00    +0.000 A 
ATOM     14  C   UNL     1      -6.818  12.783  19.283  0.00  0.00    +0.000 A 
ATOM     15  C   UNL     1      -5.561  12.924  19.873  0.00  0.00    +0.000 A 
ATOM     16  C   UNL     1      -4.434  12.224  19.383  0.00  0.00    +0.000 A 
ENDBRANCH   1   2
BRANCH   1  17
ATOM     17  C   UNL     1       0.998  10.041  19.415  0.00  0.00    +0.000 A 
ATOM     18  C   UNL     1       1.605   9.369  18.415  0.00  0.00    +0.000 A 
ATOM     19  C   UNL     1       2.240   8.070  18.655  0.00  0.00    +0.000 A 
ATOM     20  C   UNL     1       3.145   7.469  17.772  0.00  0.00    +0.000 A 
ATOM     21  C   UNL     1       3.783   6.267  18.114  0.00  0.00    +0.000 A 
ATOM     22  C   UNL     1       3.513   5.647  19.334  0.00  0.00    +0.000 A 
ATOM     23  C   UNL     1       2.602   6.225  20.211  0.00  0.00    +0.000 A 
ATOM     24  C   UNL     1       1.990   7.427  19.858  0.00  0.00    +0.000 A 
ATOM     25  O   UNL     1       1.143   7.996  20.808  0.00  0.00    +0.000 OA
ATOM     26  C   UNL     1       0.845   9.341  20.732  0.00  0.00    +0.000 A 
ATOM     27  O   UNL     1       0.449   9.915  21.740  0.00  0.00    +0.000 OA
BRANCH  18  28
ATOM     28  O   UNL     1       1.802   9.878  17.150  0.00  0.00    +0.000 OA
ATOM     29  H   UNL     1       2.371   9.265  16.658  0.00  0.00    +0.000 HD
ENDBRANCH  18  28
ENDBRANCH   1  17
BRANCH   1  30
ATOM     30  C   UNL     1       1.904  12.364  19.809  0.00  0.00    +0.000 C 
BRANCH  30  32
ATOM     31  O   UNL     1       2.952  14.368  18.948  0.00  0.00    +0.000 OA
ATOM     32  C   UNL     1       2.494  13.251  18.747  0.00  0.00    +0.000 C 
BRANCH  32  33
ATOM     33  O   UNL     1       2.410  12.710  17.510  0.00  0.00    +0.000 OA
ATOM     34  H   UNL     1       3.159  12.135  17.255  0.00  0.00    +0.000 HD
ENDBRANCH  32  33
ENDBRANCH  30  32
ENDBRANCH   1  30
TORSDOF 6
ENDMDL
MODEL 6
REMARK VINA RESULT:      -8.1      4.952     10.285
REMARK  Name = 
REMARK  6 active torsions:
REMARK  status: ('A' for Active; 'I' for Inactive)
REMARK    1  A    between atoms: C_2  and  O_3
REMARK    2  A    between atoms: C_2  and  C_4
REMARK    3  A    between atoms: C_4  and  C_5
REMARK    4  A    between atoms: C_5  and  C_6
REMARK    5  A    between atoms: C_5  and  C_18
REMARK    6  A    between atoms: C_7  and  O_8
REMARK                            x       y       z     vdW  Elec       q    Type
REMARK                         _______ _______ _______ _____ _____    ______ ____
ROOT
ATOM      1  C   UNL     1      -1.137  12.408  20.497  0.00  0.00    +0.000 C 
ENDROOT
BRANCH   1   2
ATOM      2  C   UNL     1      -0.305  11.221  21.028  0.00  0.00    +0.000 A 
ATOM      3  C   UNL     1      -0.400  10.813  22.305  0.00  0.00    +0.000 A 
ATOM      4  C   UNL     1       0.220   9.604  22.858  0.00  0.00    +0.000 A 
ATOM      5  O   UNL     1       0.151   9.354  24.056  0.00  0.00    +0.000 OA
ATOM      6  O   UNL     1       0.814   8.756  21.957  0.00  0.00    +0.000 OA
ATOM      7  C   UNL     1       1.006   9.130  20.607  0.00  0.00    +0.000 A 
ATOM      8  C   UNL     1       0.521  10.361  20.129  0.00  0.00    +0.000 A 
ATOM      9  C   UNL     1       0.842  10.672  18.805  0.00  0.00    +0.000 A 
ATOM     10  C   UNL     1       1.581   9.787  18.000  0.00  0.00    +0.000 A 
ATOM     11  C   UNL     1       2.011   8.541  18.481  0.00  0.00    +0.000 A 
ATOM     12  C   UNL     1       2.714   7.638  17.661  0.00  0.00    +0.000 A 
ATOM     13  C   UNL     1       3.134   6.401  18.151  0.00  0.00    +0.000 A 
ATOM     14  C   UNL     1       2.863   6.051  19.468  0.00  0.00    +0.000 A 
ATOM     15  C   UNL     1       2.168   6.938  20.291  0.00  0.00    +0.000 A 
ATOM     16  C   UNL     1       1.727   8.195  19.815  0.00  0.00    +0.000 A 
ENDBRANCH   1   2
BRANCH   1  17
ATOM     17  C   UNL     1      -0.353  13.725  20.298  0.00  0.00    +0.000 A 
ATOM     18  C   UNL     1      -0.351  14.423  19.143  0.00  0.00    +0.000 A 
ATOM     19  C   UNL     1       0.076  15.825  19.109  0.00  0.00    +0.000 A 
ATOM     20  C   UNL     1      -0.186  16.695  18.044  0.00  0.00    +0.000 A 
ATOM     21  C   UNL     1       0.172  18.048  18.123  0.00  0.00    +0.000 A 
ATOM     22  C   UNL     1       0.809  18.543  19.261  0.00  0.00    +0.000 A 
ATOM     23  C   UNL     1       1.092  17.686  20.318  0.00  0.00    +0.000 A 
ATOM     24  C   UNL     1       0.714  16.347  20.224  0.00  0.00    +0.000 A 
ATOM     25  O   UNL     1       0.956  15.553  21.343  0.00  0.00    +0.000 OA
ATOM     26  C   UNL     1       0.255  14.376  21.505  0.00  0.00    +0.000 A 
ATOM     27  O   UNL     1       0.165  13.891  22.628  0.00  0.00    +0.000 OA
BRANCH  18  28
ATOM     28  O   UNL     1      -0.859  13.949  17.953  0.00  0.00    +0.000 OA
ATOM     29  H   UNL     1      -1.265  13.083  18.117  0.00  0.00    +0.000 HD
ENDBRANCH  18  28
ENDBRANCH   1  17
BRANCH   1  30
ATOM     30  C   UNL     1      -2.423  12.707  21.320  0.00  0.00    +0.000 C 
BRANCH  30  32
ATOM     31  O   UNL     1      -4.819  12.577  21.002  0.00  0.00    +0.000 OA
ATOM     32  C   UNL     1      -3.697  12.665  20.521  0.00  0.00    +0.000 C 
BRANCH  32  33
ATOM     33  O   UNL     1      -3.474  12.669  19.186  0.00  0.00    +0.000 OA
ATOM     34  H   UNL     1      -2.907  11.944  18.857  0.00  0.00    +0.000 HD
ENDBRANCH  32  33
ENDBRANCH  30  32
ENDBRANCH   1  30
TORSDOF 6
ENDMDL
MODEL 7
REMARK VINA RESULT:      -8.0      4.771     10.868
REMARK  Name = 
REMARK  6 active torsions:
REMARK  status: ('A' for Active; 'I' for Inactive)
REMARK    1  A    between atoms: C_2  and  O_3
REMARK    2  A    between atoms: C_2  and  C_4
REMARK    3  A    between atoms: C_4  and  C_5
REMARK    4  A    between atoms: C_5  and  C_6
REMARK    5  A    between atoms: C_5  and  C_18
REMARK    6  A    between atoms: C_7  and  O_8
REMARK                            x       y       z     vdW  Elec       q    Type
REMARK                         _______ _______ _______ _____ _____    ______ ____
ROOT
ATOM      1  C   UNL     1      -0.833  12.252  20.081  0.00  0.00    +0.000 C 
ENDROOT
BRANCH   1   2
ATOM      2  C   UNL     1      -0.056  11.085  20.728  0.00  0.00    +0.000 A 
ATOM      3  C   UNL     1      -0.181  10.797  22.035  0.00  0.00    +0.000 A 
ATOM      4  C   UNL     1       0.383   9.619  22.702  0.00  0.00    +0.000 A 
ATOM      5  O   UNL     1       0.291   9.479  23.916  0.00  0.00    +0.000 OA
ATOM      6  O   UNL     1       0.951   8.671  21.889  0.00  0.00    +0.000 OA
ATOM      7  C   UNL     1       1.174   8.914  20.514  0.00  0.00    +0.000 A 
ATOM      8  C   UNL     1       0.744  10.116  19.921  0.00  0.00    +0.000 A 
ATOM      9  C   UNL     1       1.093  10.295  18.580  0.00  0.00    +0.000 A 
ATOM     10  C   UNL     1       1.803   9.312  17.868  0.00  0.00    +0.000 A 
ATOM     11  C   UNL     1       2.176   8.098  18.463  0.00  0.00    +0.000 A 
ATOM     12  C   UNL     1       2.851   7.098  17.738  0.00  0.00    +0.000 A 
ATOM     13  C   UNL     1       3.215   5.894  18.341  0.00  0.00    +0.000 A 
ATOM     14  C   UNL     1       2.915   5.675  19.680  0.00  0.00    +0.000 A 
ATOM     15  C   UNL     1       2.249   6.659  20.411  0.00  0.00    +0.000 A 
ATOM     16  C   UNL     1       1.864   7.885  19.819  0.00  0.00    +0.000 A 
ENDBRANCH   1   2
BRANCH   1  17
ATOM     17  C   UNL     1      -1.184  13.418  21.034  0.00  0.00    +0.000 A 
ATOM     18  C   UNL     1      -2.213  13.382  21.907  0.00  0.00    +0.000 A 
ATOM     19  C   UNL     1      -2.281  14.319  23.032  0.00  0.00    +0.000 A 
ATOM     20  C   UNL     1      -3.122  14.149  24.138  0.00  0.00    +0.000 A 
ATOM     21  C   UNL     1      -3.065  15.039  25.220  0.00  0.00    +0.000 A 
ATOM     22  C   UNL     1      -2.177  16.115  25.203  0.00  0.00    +0.000 A 
ATOM     23  C   UNL     1      -1.350  16.304  24.102  0.00  0.00    +0.000 A 
ATOM     24  C   UNL     1      -1.413  15.400  23.043  0.00  0.00    +0.000 A 
ATOM     25  O   UNL     1      -0.509  15.598  22.001  0.00  0.00    +0.000 OA
ATOM     26  C   UNL     1      -0.210  14.552  21.153  0.00  0.00    +0.000 A 
ATOM     27  O   UNL     1       0.835  14.590  20.513  0.00  0.00    +0.000 OA
BRANCH  18  28
ATOM     28  O   UNL     1      -3.191  12.412  21.907  0.00  0.00    +0.000 OA
ATOM     29  H   UNL     1      -3.267  12.052  21.009  0.00  0.00    +0.000 HD
ENDBRANCH  18  28
ENDBRANCH   1  17
BRANCH   1  30
ATOM     30  C   UNL     1      -2.118  11.820  19.318  0.00  0.00    +0.000 C 
BRANCH  30  32
ATOM     31  O   UNL     1      -2.713  11.332  17.024  0.00  0.00    +0.000 OA
ATOM     32  C   UNL     1      -2.030  11.958  17.823  0.00  0.00    +0.000 C 
BRANCH  32  33
ATOM     33  O   UNL     1      -1.057  12.815  17.436  0.00  0.00    +0.000 OA
ATOM     34  H   UNL     1      -0.144  12.525  17.634  0.00  0.00    +0.000 HD
ENDBRANCH  32  33
ENDBRANCH  30  32
ENDBRANCH   1  30
TORSDOF 6
ENDMDL
MODEL 8
REMARK VINA RESULT:      -8.0      4.600      9.294
REMARK  Name = 
REMARK  6 active torsions:
REMARK  status: ('A' for Active; 'I' for Inactive)
REMARK    1  A    between atoms: C_2  and  O_3
REMARK    2  A    between atoms: C_2  and  C_4
REMARK    3  A    between atoms: C_4  and  C_5
REMARK    4  A    between atoms: C_5  and  C_6
REMARK    5  A    between atoms: C_5  and  C_18
REMARK    6  A    between atoms: C_7  and  O_8
REMARK                            x       y       z     vdW  Elec       q    Type
REMARK                         _______ _______ _______ _____ _____    ______ ____
ROOT
ATOM      1  C   UNL     1       0.215  12.250  19.635  0.00  0.00    +0.000 C 
ENDROOT
BRANCH   1   2
ATOM      2  C   UNL     1       0.651  10.992  20.417  0.00  0.00    +0.000 A 
ATOM      3  C   UNL     1       0.387  10.854  21.728  0.00  0.00    +0.000 A 
ATOM      4  C   UNL     1       0.613   9.638  22.515  0.00  0.00    +0.000 A 
ATOM      5  O   UNL     1       0.423   9.628  23.725  0.00  0.00    +0.000 OA
ATOM      6  O   UNL     1       0.981   8.517  21.815  0.00  0.00    +0.000 OA
ATOM      7  C   UNL     1       1.331   8.582  20.446  0.00  0.00    +0.000 A 
ATOM      8  C   UNL     1       1.238   9.797  19.741  0.00  0.00    +0.000 A 
ATOM      9  C   UNL     1       1.693   9.773  18.420  0.00  0.00    +0.000 A 
ATOM     10  C   UNL     1       2.184   8.594  17.833  0.00  0.00    +0.000 A 
ATOM     11  C   UNL     1       2.221   7.381  18.538  0.00  0.00    +0.000 A 
ATOM     12  C   UNL     1       2.674   6.193  17.936  0.00  0.00    +0.000 A 
ATOM     13  C   UNL     1       2.703   4.993  18.647  0.00  0.00    +0.000 A 
ATOM     14  C   UNL     1       2.285   4.965  19.972  0.00  0.00    +0.000 A 
ATOM     15  C   UNL     1       1.836   6.137  20.581  0.00  0.00    +0.000 A 
ATOM     16  C   UNL     1       1.791   7.364  19.877  0.00  0.00    +0.000 A 
ENDBRANCH   1   2
BRANCH   1  17
ATOM     17  C   UNL     1      -1.307  12.390  19.407  0.00  0.00    +0.000 A 
ATOM     18  C   UNL     1      -1.987  11.696  18.470  0.00  0.00    +0.000 A 
ATOM     19  C   UNL     1      -3.445  11.568  18.535  0.00  0.00    +0.000 A 
ATOM     20  C   UNL     1      -4.179  10.625  17.805  0.00  0.00    +0.000 A 
ATOM     21  C   UNL     1      -5.563  10.500  17.991  0.00  0.00    +0.000 A 
ATOM     22  C   UNL     1      -6.231  11.324  18.897  0.00  0.00    +0.000 A 
ATOM     23  C   UNL     1      -5.516  12.277  19.614  0.00  0.00    +0.000 A 
ATOM     24  C   UNL     1      -4.138  12.375  19.425  0.00  0.00    +0.000 A 
ATOM     25  O   UNL     1      -3.465  13.296  20.225  0.00  0.00    +0.000 OA
ATOM     26  C   UNL     1      -2.104  13.164  20.414  0.00  0.00    +0.000 A 
ATOM     27  O   UNL     1      -1.590  13.698  21.390  0.00  0.00    +0.000 OA
BRANCH  18  28
ATOM     28  O   UNL     1      -1.390  10.954  17.475  0.00  0.00    +0.000 OA
ATOM     29  H   UNL     1      -0.441  11.160  17.465  0.00  0.00    +0.000 HD
ENDBRANCH  18  28
ENDBRANCH   1  17
BRANCH   1  30
ATOM     30  C   UNL     1       0.948  12.444  18.276  0.00  0.00    +0.000 C 
BRANCH  30  32
ATOM     31  O   UNL     1       1.839  14.666  18.626  0.00  0.00    +0.000 OA
ATOM     32  C   UNL     1       2.016  13.503  18.290  0.00  0.00    +0.000 C 
BRANCH  32  33
ATOM     33  O   UNL     1       3.203  13.052  17.824  0.00  0.00    +0.000 OA
ATOM     34  H   UNL     1       3.238  12.093  17.633  0.00  0.00    +0.000 HD
ENDBRANCH  32  33
ENDBRANCH  30  32
ENDBRANCH   1  30
TORSDOF 6
ENDMDL
MODEL 9
REMARK VINA RESULT:      -8.0      6.189      9.186
REMARK  Name = 
REMARK  6 active torsions:
REMARK  status: ('A' for Active; 'I' for Inactive)
REMARK    1  A    between atoms: C_2  and  O_3
REMARK    2  A    between atoms: C_2  and  C_4
REMARK    3  A    between atoms: C_4  and  C_5
REMARK    4  A    between atoms: C_5  and  C_6
REMARK    5  A    between atoms: C_5  and  C_18
REMARK    6  A    between atoms: C_7  and  O_8
REMARK                            x       y       z     vdW  Elec       q    Type
REMARK                         _______ _______ _______ _____ _____    ______ ____
ROOT
ATOM      1  C   UNL     1      -0.127  10.662  19.929  0.00  0.00    +0.000 C 
ENDROOT
BRANCH   1   2
ATOM      2  C   UNL     1      -1.252  10.831  18.885  0.00  0.00    +0.000 A 
ATOM      3  C   UNL     1      -1.224  10.177  17.710  0.00  0.00    +0.000 A 
ATOM      4  C   UNL     1      -2.315  10.145  16.731  0.00  0.00    +0.000 A 
ATOM      5  O   UNL     1      -2.170   9.593  15.647  0.00  0.00    +0.000 OA
ATOM      6  O   UNL     1      -3.505  10.704  17.124  0.00  0.00    +0.000 OA
ATOM      7  C   UNL     1      -3.609  11.458  18.316  0.00  0.00    +0.000 A 
ATOM      8  C   UNL     1      -2.503  11.591  19.177  0.00  0.00    +0.000 A 
ATOM      9  C   UNL     1      -2.686  12.429  20.281  0.00  0.00    +0.000 A 
ATOM     10  C   UNL     1      -3.914  13.071  20.522  0.00  0.00    +0.000 A 
ATOM     11  C   UNL     1      -5.019  12.883  19.678  0.00  0.00    +0.000 A 
ATOM     12  C   UNL     1      -6.259  13.494  19.943  0.00  0.00    +0.000 A 
ATOM     13  C   UNL     1      -7.352  13.298  19.098  0.00  0.00    +0.000 A 
ATOM     14  C   UNL     1      -7.218  12.494  17.972  0.00  0.00    +0.000 A 
ATOM     15  C   UNL     1      -5.993  11.885  17.697  0.00  0.00    +0.000 A 
ATOM     16  C   UNL     1      -4.874  12.064  18.544  0.00  0.00    +0.000 A 
ENDBRANCH   1   2
BRANCH   1  17
ATOM     17  C   UNL     1       0.844  11.859  20.051  0.00  0.00    +0.000 A 
ATOM     18  C   UNL     1       1.606  12.306  19.031  0.00  0.00    +0.000 A 
ATOM     19  C   UNL     1       2.209  13.641  19.068  0.00  0.00    +0.000 A 
ATOM     20  C   UNL     1       2.734  14.292  17.945  0.00  0.00    +0.000 A 
ATOM     21  C   UNL     1       3.210  15.607  18.041  0.00  0.00    +0.000 A 
ATOM     22  C   UNL     1       3.178  16.282  19.262  0.00  0.00    +0.000 A 
ATOM     23  C   UNL     1       2.676  15.640  20.388  0.00  0.00    +0.000 A 
ATOM     24  C   UNL     1       2.194  14.337  20.268  0.00  0.00    +0.000 A 
ATOM     25  O   UNL     1       1.636  13.773  21.413  0.00  0.00    +0.000 OA
ATOM     26  C   UNL     1       0.776  12.700  21.290  0.00  0.00    +0.000 A 
ATOM     27  O   UNL     1      -0.003  12.460  22.206  0.00  0.00    +0.000 OA
BRANCH  18  28
ATOM     28  O   UNL     1       1.775  11.634  17.840  0.00  0.00    +0.000 OA
ATOM     29  H   UNL     1       2.211  12.230  17.211  0.00  0.00    +0.000 HD
ENDBRANCH  18  28
ENDBRANCH   1  17
BRANCH   1  30
ATOM     30  C   UNL     1       0.702   9.354  19.770  0.00  0.00    +0.000 C 
BRANCH  30  32
ATOM     31  O   UNL     1       0.728   9.084  22.175  0.00  0.00    +0.000 OA
ATOM     32  C   UNL     1       1.071   8.690  21.068  0.00  0.00    +0.000 C 
BRANCH  32  33
ATOM     33  O   UNL     1       1.891   7.628  20.894  0.00  0.00    +0.000 OA
ATOM     34  H   UNL     1       1.916   7.265  19.987  0.00  0.00    +0.000 HD
ENDBRANCH  32  33
ENDBRANCH  30  32
ENDBRANCH   1  30
TORSDOF 6
ENDMDL
