MODEL 1
REMARK VINA RESULT:      -9.2      0.000      0.000
REMARK  Name = 
REMARK  6 active torsions:
REMARK  status: ('A' for Active; 'I' for Inactive)
REMARK    1  A    between atoms: C_1  and  C_2
REMARK    2  A    between atoms: C_2  and  C_3
REMARK    3  A    between atoms: C_2  and  N_22
REMARK    4  A    between atoms: C_3  and  N_4
REMARK    5  A    between atoms: N_14  and  C_15
REMARK    6  A    between atoms: C_23  and  C_25
REMARK                            x       y       z     vdW  Elec       q    Type
REMARK                         _______ _______ _______ _____ _____    ______ ____
ROOT
ATOM      1  N   UNL     1       2.528   6.676  19.469  0.00  0.00    +0.000 NA
ATOM      2  C   UNL     1       2.905   5.645  20.444  0.00  0.00    +0.000 C 
ATOM      3  C   UNL     1       2.273   4.285  20.241  0.00  0.00    +0.000 C 
ATOM      4  C   UNL     1       2.381   3.803  18.797  0.00  0.00    +0.000 C 
ATOM      5  C   UNL     1       1.855   4.857  17.833  0.00  0.00    +0.000 C 
ATOM      6  C   UNL     1       2.456   6.234  18.070  0.00  0.00    +0.000 C 
ATOM      7  C   UNL     1       1.446   2.582  18.702  0.00  0.00    +0.000 C 
ATOM      8  O   UNL     1       0.229   2.552  18.799  0.00  0.00    +0.000 OA
ATOM      9  N   UNL     1       2.226   1.467  18.531  0.00  0.00    +0.000 N 
ATOM     10  C   UNL     1       3.618   1.733  18.577  0.00  0.00    +0.000 C 
ATOM     11  N   UNL     1       3.717   3.185  18.479  0.00  0.00    +0.000 N 
ATOM     12  H   UNL     1       1.811   0.547  18.514  0.00  0.00    +0.000 HD
ENDROOT
BRANCH  11  13
ATOM     13  C   UNL     1       4.770   3.749  17.782  0.00  0.00    +0.000 A 
ATOM     14  C   UNL     1       4.875   3.661  16.383  0.00  0.00    +0.000 A 
ATOM     15  C   UNL     1       5.964   4.189  15.666  0.00  0.00    +0.000 A 
ATOM     16  C   UNL     1       6.989   4.851  16.336  0.00  0.00    +0.000 A 
ATOM     17  C   UNL     1       6.903   4.965  17.707  0.00  0.00    +0.000 A 
ATOM     18  F   UNL     1       7.865   5.618  18.378  0.00  0.00    +0.000 F 
ATOM     19  C   UNL     1       5.834   4.409  18.409  0.00  0.00    +0.000 A 
ENDBRANCH  11  13
BRANCH   1  20
ATOM     20  C   UNL     1       1.338   7.432  19.875  0.00  0.00    +0.000 C 
BRANCH  20  22
ATOM     21  C   UNL     1       1.787   9.294  18.181  0.00  0.00    +0.000 C 
ATOM     22  C   UNL     1       1.479   8.961  19.639  0.00  0.00    +0.000 C 
BRANCH  22  23
ATOM     23  N   UNL     1       0.294   9.665  20.104  0.00  0.00    +0.000 N 
ATOM     24  C   UNL     1       0.403  10.572  21.136  0.00  0.00    +0.000 C 
ATOM     25  O   UNL     1       1.468  10.856  21.675  0.00  0.00    +0.000 OA
ATOM     26  H   UNL     1      -0.596   9.453  19.678  0.00  0.00    +0.000 HD
BRANCH  24  27
ATOM     27  C   UNL     1      -0.838  11.249  21.576  0.00  0.00    +0.000 A 
ATOM     28  C   UNL     1      -1.278  11.213  22.906  0.00  0.00    +0.000 A 
ATOM     29  C   UNL     1      -2.439  11.899  23.266  0.00  0.00    +0.000 A 
ATOM     30  C   UNL     1      -3.145  12.617  22.304  0.00  0.00    +0.000 A 
ATOM     31  F   UNL     1      -4.250  13.282  22.660  0.00  0.00    +0.000 F 
ATOM     32  C   UNL     1      -2.716  12.662  20.982  0.00  0.00    +0.000 A 
ATOM     33  C   UNL     1      -1.558  11.979  20.617  0.00  0.00    +0.000 A 
ENDBRANCH  24  27
ENDBRANCH  22  23
ENDBRANCH  20  22
ENDBRANCH   1  20
TORSDOF 5
ENDMDL
MODEL 2
REMARK VINA RESULT:      -9.2      0.847      1.200
REMARK  Name = 
REMARK  6 active torsions:
REMARK  status: ('A' for Active; 'I' for Inactive)
REMARK    1  A    between atoms: C_1  and  C_2
REMARK    2  A    between atoms: C_2  and  C_3
REMARK    3  A    between atoms: C_2  and  N_22
REMARK    4  A    between atoms: C_3  and  N_4
REMARK    5  A    between atoms: N_14  and  C_15
REMARK    6  A    between atoms: C_23  and  C_25
REMARK                            x       y       z     vdW  Elec       q    Type
REMARK                         _______ _______ _______ _____ _____    ______ ____
ROOT
ATOM      1  N   UNL     1       2.573   6.709  19.447  0.00  0.00    +0.000 NA
ATOM      2  C   UNL     1       2.886   5.691  20.458  0.00  0.00    +0.000 C 
ATOM      3  C   UNL     1       2.219   4.346  20.267  0.00  0.00    +0.000 C 
ATOM      4  C   UNL     1       2.358   3.826  18.839  0.00  0.00    +0.000 C 
ATOM      5  C   UNL     1       1.896   4.871  17.834  0.00  0.00    +0.000 C 
ATOM      6  C   UNL     1       2.531   6.235  18.057  0.00  0.00    +0.000 C 
ATOM      7  C   UNL     1       1.389   2.632  18.742  0.00  0.00    +0.000 C 
ATOM      8  O   UNL     1       0.169   2.641  18.800  0.00  0.00    +0.000 OA
ATOM      9  N   UNL     1       2.139   1.490  18.624  0.00  0.00    +0.000 N 
ATOM     10  C   UNL     1       3.536   1.715  18.708  0.00  0.00    +0.000 C 
ATOM     11  N   UNL     1       3.683   3.160  18.580  0.00  0.00    +0.000 N 
ATOM     12  H   UNL     1       1.696   0.583  18.615  0.00  0.00    +0.000 HD
ENDROOT
BRANCH  11  13
ATOM     13  C   UNL     1       4.775   3.674  17.904  0.00  0.00    +0.000 A 
ATOM     14  C   UNL     1       5.778   4.414  18.554  0.00  0.00    +0.000 A 
ATOM     15  C   UNL     1       6.870   4.982  17.872  0.00  0.00    +0.000 A 
ATOM     16  C   UNL     1       7.004   4.807  16.497  0.00  0.00    +0.000 A 
ATOM     17  C   UNL     1       6.042   4.072  15.838  0.00  0.00    +0.000 A 
ATOM     18  F   UNL     1       6.158   3.867  14.517  0.00  0.00    +0.000 F 
ATOM     19  C   UNL     1       4.949   3.542  16.521  0.00  0.00    +0.000 A 
ENDBRANCH  11  13
BRANCH   1  20
ATOM     20  C   UNL     1       1.394   7.510  19.797  0.00  0.00    +0.000 C 
BRANCH  20  22
ATOM     21  C   UNL     1       1.825   9.269  17.991  0.00  0.00    +0.000 C 
ATOM     22  C   UNL     1       1.569   9.020  19.476  0.00  0.00    +0.000 C 
BRANCH  22  23
ATOM     23  N   UNL     1       0.425   9.783  19.951  0.00  0.00    +0.000 N 
ATOM     24  C   UNL     1       0.438  10.302  21.228  0.00  0.00    +0.000 C 
ATOM     25  O   UNL     1       1.390  10.189  21.994  0.00  0.00    +0.000 OA
ATOM     26  H   UNL     1      -0.372   9.893  19.343  0.00  0.00    +0.000 HD
BRANCH  24  27
ATOM     27  C   UNL     1      -0.759  11.058  21.663  0.00  0.00    +0.000 A 
ATOM     28  C   UNL     1      -1.215  11.039  22.988  0.00  0.00    +0.000 A 
ATOM     29  C   UNL     1      -2.331  11.801  23.342  0.00  0.00    +0.000 A 
ATOM     30  C   UNL     1      -2.975  12.574  22.380  0.00  0.00    +0.000 A 
ATOM     31  F   UNL     1      -4.035  13.310  22.732  0.00  0.00    +0.000 F 
ATOM     32  C   UNL     1      -2.529  12.603  21.064  0.00  0.00    +0.000 A 
ATOM     33  C   UNL     1      -1.416  11.846  20.704  0.00  0.00    +0.000 A 
ENDBRANCH  24  27
ENDBRANCH  22  23
ENDBRANCH  20  22
ENDBRANCH   1  20
TORSDOF 5
ENDMDL
MODEL 3
REMARK VINA RESULT:      -8.8      0.994      1.187
REMARK  Name = 
REMARK  6 active torsions:
REMARK  status: ('A' for Active; 'I' for Inactive)
REMARK    1  A    between atoms: C_1  and  C_2
REMARK    2  A    between atoms: C_2  and  C_3
REMARK    3  A    between atoms: C_2  and  N_22
REMARK    4  A    between atoms: C_3  and  N_4
REMARK    5  A    between atoms: N_14  and  C_15
REMARK    6  A    between atoms: C_23  and  C_25
REMARK                            x       y       z     vdW  Elec       q    Type
REMARK                         _______ _______ _______ _____ _____    ______ ____
ROOT
ATOM      1  N   UNL     1       2.595   6.690  19.457  0.00  0.00    +0.000 NA
ATOM      2  C   UNL     1       2.957   5.645  20.423  0.00  0.00    +0.000 C 
ATOM      3  C   UNL     1       2.311   4.295  20.205  0.00  0.00    +0.000 C 
ATOM      4  C   UNL     1       2.420   3.826  18.757  0.00  0.00    +0.000 C 
ATOM      5  C   UNL     1       1.909   4.894  17.801  0.00  0.00    +0.000 C 
ATOM      6  C   UNL     1       2.524   6.263  18.054  0.00  0.00    +0.000 C 
ATOM      7  C   UNL     1       1.472   2.616  18.646  0.00  0.00    +0.000 C 
ATOM      8  O   UNL     1       0.254   2.598  18.739  0.00  0.00    +0.000 OA
ATOM      9  N   UNL     1       2.240   1.494  18.468  0.00  0.00    +0.000 N 
ATOM     10  C   UNL     1       3.635   1.745  18.522  0.00  0.00    +0.000 C 
ATOM     11  N   UNL     1       3.750   3.196  18.439  0.00  0.00    +0.000 N 
ATOM     12  H   UNL     1       1.815   0.579  18.441  0.00  0.00    +0.000 HD
ENDROOT
BRANCH  11  13
ATOM     13  C   UNL     1       4.812   3.755  17.751  0.00  0.00    +0.000 A 
ATOM     14  C   UNL     1       4.929   3.666  16.353  0.00  0.00    +0.000 A 
ATOM     15  C   UNL     1       6.028   4.189  15.646  0.00  0.00    +0.000 A 
ATOM     16  C   UNL     1       7.049   4.847  16.325  0.00  0.00    +0.000 A 
ATOM     17  C   UNL     1       6.950   4.963  17.695  0.00  0.00    +0.000 A 
ATOM     18  F   UNL     1       7.908   5.612  18.374  0.00  0.00    +0.000 F 
ATOM     19  C   UNL     1       5.873   4.411  18.387  0.00  0.00    +0.000 A 
ENDBRANCH  11  13
BRANCH   1  20
ATOM     20  C   UNL     1       1.412   7.455  19.866  0.00  0.00    +0.000 C 
BRANCH  20  22
ATOM     21  C   UNL     1       1.121   9.268  18.086  0.00  0.00    +0.000 C 
ATOM     22  C   UNL     1       1.519   8.967  19.529  0.00  0.00    +0.000 C 
BRANCH  22  23
ATOM     23  N   UNL     1       0.741   9.760  20.468  0.00  0.00    +0.000 N 
ATOM     24  C   UNL     1       0.850  11.135  20.450  0.00  0.00    +0.000 C 
ATOM     25  O   UNL     1       1.551  11.747  19.650  0.00  0.00    +0.000 OA
ATOM     26  H   UNL     1       0.155   9.285  21.138  0.00  0.00    +0.000 HD
BRANCH  24  27
ATOM     27  C   UNL     1       0.045  11.890  21.438  0.00  0.00    +0.000 A 
ATOM     28  C   UNL     1       0.174  13.276  21.605  0.00  0.00    +0.000 A 
ATOM     29  C   UNL     1      -0.638  13.936  22.530  0.00  0.00    +0.000 A 
ATOM     30  C   UNL     1      -1.570  13.214  23.271  0.00  0.00    +0.000 A 
ATOM     31  F   UNL     1      -2.352  13.857  24.145  0.00  0.00    +0.000 F 
ATOM     32  C   UNL     1      -1.709  11.841  23.111  0.00  0.00    +0.000 A 
ATOM     33  C   UNL     1      -0.902  11.177  22.190  0.00  0.00    +0.000 A 
ENDBRANCH  24  27
ENDBRANCH  22  23
ENDBRANCH  20  22
ENDBRANCH   1  20
TORSDOF 5
ENDMDL
MODEL 4
REMARK VINA RESULT:      -8.7      2.023      2.447
REMARK  Name = 
REMARK  6 active torsions:
REMARK  status: ('A' for Active; 'I' for Inactive)
REMARK    1  A    between atoms: C_1  and  C_2
REMARK    2  A    between atoms: C_2  and  C_3
REMARK    3  A    between atoms: C_2  and  N_22
REMARK    4  A    between atoms: C_3  and  N_4
REMARK    5  A    between atoms: N_14  and  C_15
REMARK    6  A    between atoms: C_23  and  C_25
REMARK                            x       y       z     vdW  Elec       q    Type
REMARK                         _______ _______ _______ _____ _____    ______ ____
ROOT
ATOM      1  N   UNL     1       2.645   6.803  19.292  0.00  0.00    +0.000 NA
ATOM      2  C   UNL     1       3.009   5.821  20.321  0.00  0.00    +0.000 C 
ATOM      3  C   UNL     1       2.335   4.472  20.212  0.00  0.00    +0.000 C 
ATOM      4  C   UNL     1       2.401   3.900  18.799  0.00  0.00    +0.000 C 
ATOM      5  C   UNL     1       1.888   4.910  17.781  0.00  0.00    +0.000 C 
ATOM      6  C   UNL     1       2.533   6.280  17.924  0.00  0.00    +0.000 C 
ATOM      7  C   UNL     1       1.429   2.705  18.794  0.00  0.00    +0.000 C 
ATOM      8  O   UNL     1       0.213   2.717  18.914  0.00  0.00    +0.000 OA
ATOM      9  N   UNL     1       2.172   1.558  18.678  0.00  0.00    +0.000 N 
ATOM     10  C   UNL     1       3.572   1.784  18.683  0.00  0.00    +0.000 C 
ATOM     11  N   UNL     1       3.711   3.224  18.496  0.00  0.00    +0.000 N 
ATOM     12  H   UNL     1       1.730   0.652  18.725  0.00  0.00    +0.000 HD
ENDROOT
BRANCH  11  13
ATOM     13  C   UNL     1       4.767   3.712  17.748  0.00  0.00    +0.000 A 
ATOM     14  C   UNL     1       4.838   3.545  16.354  0.00  0.00    +0.000 A 
ATOM     15  C   UNL     1       5.928   3.995  15.587  0.00  0.00    +0.000 A 
ATOM     16  C   UNL     1       6.989   4.657  16.199  0.00  0.00    +0.000 A 
ATOM     17  C   UNL     1       6.937   4.848  17.563  0.00  0.00    +0.000 A 
ATOM     18  F   UNL     1       7.935   5.502  18.177  0.00  0.00    +0.000 F 
ATOM     19  C   UNL     1       5.866   4.368  18.315  0.00  0.00    +0.000 A 
ENDBRANCH  11  13
BRANCH   1  20
ATOM     20  C   UNL     1       1.486   7.617  19.672  0.00  0.00    +0.000 C 
BRANCH  20  22
ATOM     21  C   UNL     1       2.630   9.200  18.021  0.00  0.00    +0.000 C 
ATOM     22  C   UNL     1       1.512   9.040  19.049  0.00  0.00    +0.000 C 
BRANCH  22  23
ATOM     23  N   UNL     1       0.217   9.377  18.479  0.00  0.00    +0.000 N 
ATOM     24  C   UNL     1      -0.496  10.439  18.994  0.00  0.00    +0.000 C 
ATOM     25  O   UNL     1      -0.081  11.156  19.899  0.00  0.00    +0.000 OA
ATOM     26  H   UNL     1      -0.150   8.806  17.733  0.00  0.00    +0.000 HD
BRANCH  24  27
ATOM     27  C   UNL     1      -1.814  10.728  18.384  0.00  0.00    +0.000 A 
ATOM     28  C   UNL     1      -2.243  10.108  17.202  0.00  0.00    +0.000 A 
ATOM     29  C   UNL     1      -3.512  10.397  16.695  0.00  0.00    +0.000 A 
ATOM     30  C   UNL     1      -4.339  11.291  17.369  0.00  0.00    +0.000 A 
ATOM     31  F   UNL     1      -5.557  11.552  16.882  0.00  0.00    +0.000 F 
ATOM     32  C   UNL     1      -3.925  11.910  18.543  0.00  0.00    +0.000 A 
ATOM     33  C   UNL     1      -2.661  11.625  19.054  0.00  0.00    +0.000 A 
ENDBRANCH  24  27
ENDBRANCH  22  23
ENDBRANCH  20  22
ENDBRANCH   1  20
TORSDOF 5
ENDMDL
MODEL 5
REMARK VINA RESULT:      -8.7      2.269      2.734
REMARK  Name = 
REMARK  6 active torsions:
REMARK  status: ('A' for Active; 'I' for Inactive)
REMARK    1  A    between atoms: C_1  and  C_2
REMARK    2  A    between atoms: C_2  and  C_3
REMARK    3  A    between atoms: C_2  and  N_22
REMARK    4  A    between atoms: C_3  and  N_4
REMARK    5  A    between atoms: N_14  and  C_15
REMARK    6  A    between atoms: C_23  and  C_25
REMARK                            x       y       z     vdW  Elec       q    Type
REMARK                         _______ _______ _______ _____ _____    ______ ____
ROOT
ATOM      1  N   UNL     1       2.732   6.733  19.252  0.00  0.00    +0.000 NA
ATOM      2  C   UNL     1       3.096   5.744  20.274  0.00  0.00    +0.000 C 
ATOM      3  C   UNL     1       2.404   4.403  20.170  0.00  0.00    +0.000 C 
ATOM      4  C   UNL     1       2.448   3.835  18.755  0.00  0.00    +0.000 C 
ATOM      5  C   UNL     1       1.936   4.852  17.745  0.00  0.00    +0.000 C 
ATOM      6  C   UNL     1       2.600   6.214  17.884  0.00  0.00    +0.000 C 
ATOM      7  C   UNL     1       1.461   2.651  18.758  0.00  0.00    +0.000 C 
ATOM      8  O   UNL     1       0.248   2.678  18.891  0.00  0.00    +0.000 OA
ATOM      9  N   UNL     1       2.189   1.496  18.632  0.00  0.00    +0.000 N 
ATOM     10  C   UNL     1       3.592   1.705  18.622  0.00  0.00    +0.000 C 
ATOM     11  N   UNL     1       3.747   3.143  18.437  0.00  0.00    +0.000 N 
ATOM     12  H   UNL     1       1.737   0.595  18.681  0.00  0.00    +0.000 HD
ENDROOT
BRANCH  11  13
ATOM     13  C   UNL     1       4.801   3.620  17.678  0.00  0.00    +0.000 A 
ATOM     14  C   UNL     1       5.863   4.346  18.244  0.00  0.00    +0.000 A 
ATOM     15  C   UNL     1       6.916   4.877  17.478  0.00  0.00    +0.000 A 
ATOM     16  C   UNL     1       6.951   4.676  16.101  0.00  0.00    +0.000 A 
ATOM     17  C   UNL     1       5.930   3.954  15.522  0.00  0.00    +0.000 A 
ATOM     18  F   UNL     1       5.948   3.725  14.200  0.00  0.00    +0.000 F 
ATOM     19  C   UNL     1       4.874   3.461  16.289  0.00  0.00    +0.000 A 
ENDBRANCH  11  13
BRANCH   1  20
ATOM     20  C   UNL     1       1.587   7.560  19.646  0.00  0.00    +0.000 C 
BRANCH  20  22
ATOM     21  C   UNL     1       2.687   9.100  17.925  0.00  0.00    +0.000 C 
ATOM     22  C   UNL     1       1.602   8.969  18.992  0.00  0.00    +0.000 C 
BRANCH  22  23
ATOM     23  N   UNL     1       0.291   9.302  18.457  0.00  0.00    +0.000 N 
ATOM     24  C   UNL     1      -0.360  10.431  18.907  0.00  0.00    +0.000 C 
ATOM     25  O   UNL     1       0.123  11.209  19.723  0.00  0.00    +0.000 OA
ATOM     26  H   UNL     1      -0.132   8.681  17.783  0.00  0.00    +0.000 HD
BRANCH  24  27
ATOM     27  C   UNL     1      -1.698  10.713  18.337  0.00  0.00    +0.000 A 
ATOM     28  C   UNL     1      -2.594  11.607  18.938  0.00  0.00    +0.000 A 
ATOM     29  C   UNL     1      -3.827  11.856  18.333  0.00  0.00    +0.000 A 
ATOM     30  C   UNL     1      -4.153  11.220  17.139  0.00  0.00    +0.000 A 
ATOM     31  F   UNL     1      -5.333  11.474  16.560  0.00  0.00    +0.000 F 
ATOM     32  C   UNL     1      -3.271  10.333  16.532  0.00  0.00    +0.000 A 
ATOM     33  C   UNL     1      -2.039  10.081  17.131  0.00  0.00    +0.000 A 
ENDBRANCH  24  27
ENDBRANCH  22  23
ENDBRANCH  20  22
ENDBRANCH   1  20
TORSDOF 5
ENDMDL
MODEL 6
REMARK VINA RESULT:      -8.7      1.270      1.664
REMARK  Name = 
REMARK  6 active torsions:
REMARK  status: ('A' for Active; 'I' for Inactive)
REMARK    1  A    between atoms: C_1  and  C_2
REMARK    2  A    between atoms: C_2  and  C_3
REMARK    3  A    between atoms: C_2  and  N_22
REMARK    4  A    between atoms: C_3  and  N_4
REMARK    5  A    between atoms: N_14  and  C_15
REMARK    6  A    between atoms: C_23  and  C_25
REMARK                            x       y       z     vdW  Elec       q    Type
REMARK                         _______ _______ _______ _____ _____    ______ ____
ROOT
ATOM      1  N   UNL     1       2.577   6.661  19.443  0.00  0.00    +0.000 NA
ATOM      2  C   UNL     1       2.940   5.624  20.419  0.00  0.00    +0.000 C 
ATOM      3  C   UNL     1       2.297   4.271  20.212  0.00  0.00    +0.000 C 
ATOM      4  C   UNL     1       2.406   3.790  18.768  0.00  0.00    +0.000 C 
ATOM      5  C   UNL     1       1.894   4.849  17.803  0.00  0.00    +0.000 C 
ATOM      6  C   UNL     1       2.506   6.221  18.044  0.00  0.00    +0.000 C 
ATOM      7  C   UNL     1       1.460   2.578  18.668  0.00  0.00    +0.000 C 
ATOM      8  O   UNL     1       0.243   2.558  18.760  0.00  0.00    +0.000 OA
ATOM      9  N   UNL     1       2.230   1.456  18.499  0.00  0.00    +0.000 N 
ATOM     10  C   UNL     1       3.625   1.708  18.551  0.00  0.00    +0.000 C 
ATOM     11  N   UNL     1       3.737   3.159  18.456  0.00  0.00    +0.000 N 
ATOM     12  H   UNL     1       1.807   0.539  18.480  0.00  0.00    +0.000 HD
ENDROOT
BRANCH  11  13
ATOM     13  C   UNL     1       4.799   3.714  17.763  0.00  0.00    +0.000 A 
ATOM     14  C   UNL     1       5.838   4.403  18.412  0.00  0.00    +0.000 A 
ATOM     15  C   UNL     1       6.899   5.012  17.716  0.00  0.00    +0.000 A 
ATOM     16  C   UNL     1       6.964   4.931  16.328  0.00  0.00    +0.000 A 
ATOM     17  C   UNL     1       5.966   4.247  15.668  0.00  0.00    +0.000 A 
ATOM     18  F   UNL     1       6.014   4.133  14.332  0.00  0.00    +0.000 F 
ATOM     19  C   UNL     1       4.903   3.676  16.367  0.00  0.00    +0.000 A 
ENDBRANCH  11  13
BRANCH   1  20
ATOM     20  C   UNL     1       1.392   7.426  19.846  0.00  0.00    +0.000 C 
BRANCH  20  22
ATOM     21  C   UNL     1       1.161   9.249  18.066  0.00  0.00    +0.000 C 
ATOM     22  C   UNL     1       1.509   8.941  19.521  0.00  0.00    +0.000 C 
BRANCH  22  23
ATOM     23  N   UNL     1       0.697   9.728  20.436  0.00  0.00    +0.000 N 
ATOM     24  C   UNL     1       0.886  11.092  20.511  0.00  0.00    +0.000 C 
ATOM     25  O   UNL     1       1.689  11.702  19.813  0.00  0.00    +0.000 OA
ATOM     26  H   UNL     1       0.028   9.254  21.024  0.00  0.00    +0.000 HD
BRANCH  24  27
ATOM     27  C   UNL     1       0.041  11.840  21.471  0.00  0.00    +0.000 A 
ATOM     28  C   UNL     1       0.107  13.234  21.596  0.00  0.00    +0.000 A 
ATOM     29  C   UNL     1      -0.741  13.885  22.495  0.00  0.00    +0.000 A 
ATOM     30  C   UNL     1      -1.645  13.146  23.252  0.00  0.00    +0.000 A 
ATOM     31  F   UNL     1      -2.461  13.779  24.102  0.00  0.00    +0.000 F 
ATOM     32  C   UNL     1      -1.721  11.763  23.134  0.00  0.00    +0.000 A 
ATOM     33  C   UNL     1      -0.878  11.108  22.239  0.00  0.00    +0.000 A 
ENDBRANCH  24  27
ENDBRANCH  22  23
ENDBRANCH  20  22
ENDBRANCH   1  20
TORSDOF 5
ENDMDL
MODEL 7
REMARK VINA RESULT:      -8.6      1.105      1.453
REMARK  Name = 
REMARK  6 active torsions:
REMARK  status: ('A' for Active; 'I' for Inactive)
REMARK    1  A    between atoms: C_1  and  C_2
REMARK    2  A    between atoms: C_2  and  C_3
REMARK    3  A    between atoms: C_2  and  N_22
REMARK    4  A    between atoms: C_3  and  N_4
REMARK    5  A    between atoms: N_14  and  C_15
REMARK    6  A    between atoms: C_23  and  C_25
REMARK                            x       y       z     vdW  Elec       q    Type
REMARK                         _______ _______ _______ _____ _____    ______ ____
ROOT
ATOM      1  N   UNL     1       2.394   6.979  19.694  0.00  0.00    +0.000 NA
ATOM      2  C   UNL     1       2.550   5.901  20.680  0.00  0.00    +0.000 C 
ATOM      3  C   UNL     1       2.009   4.550  20.268  0.00  0.00    +0.000 C 
ATOM      4  C   UNL     1       2.462   4.143  18.870  0.00  0.00    +0.000 C 
ATOM      5  C   UNL     1       2.159   5.241  17.860  0.00  0.00    +0.000 C 
ATOM      6  C   UNL     1       2.661   6.609  18.298  0.00  0.00    +0.000 C 
ATOM      7  C   UNL     1       1.599   2.923  18.497  0.00  0.00    +0.000 C 
ATOM      8  O   UNL     1       0.394   2.879  18.303  0.00  0.00    +0.000 OA
ATOM      9  N   UNL     1       2.417   1.823  18.462  0.00  0.00    +0.000 N 
ATOM     10  C   UNL     1       3.754   2.095  18.847  0.00  0.00    +0.000 C 
ATOM     11  N   UNL     1       3.846   3.551  18.846  0.00  0.00    +0.000 N 
ATOM     12  H   UNL     1       2.034   0.902  18.304  0.00  0.00    +0.000 HD
ENDROOT
BRANCH  11  13
ATOM     13  C   UNL     1       5.024   4.156  18.445  0.00  0.00    +0.000 A 
ATOM     14  C   UNL     1       5.768   4.988  19.300  0.00  0.00    +0.000 A 
ATOM     15  C   UNL     1       6.941   5.647  18.890  0.00  0.00    +0.000 A 
ATOM     16  C   UNL     1       7.426   5.475  17.597  0.00  0.00    +0.000 A 
ATOM     17  C   UNL     1       6.724   4.652  16.743  0.00  0.00    +0.000 A 
ATOM     18  F   UNL     1       7.179   4.449  15.497  0.00  0.00    +0.000 F 
ATOM     19  C   UNL     1       5.545   4.030  17.151  0.00  0.00    +0.000 A 
ENDBRANCH  11  13
BRANCH   1  20
ATOM     20  C   UNL     1       1.129   7.705  19.845  0.00  0.00    +0.000 C 
BRANCH  20  22
ATOM     21  C   UNL     1       1.198   9.660  18.197  0.00  0.00    +0.000 C 
ATOM     22  C   UNL     1       1.283   9.240  19.663  0.00  0.00    +0.000 C 
BRANCH  22  23
ATOM     23  N   UNL     1       0.311   9.955  20.475  0.00  0.00    +0.000 N 
ATOM     24  C   UNL     1       0.666  11.148  21.067  0.00  0.00    +0.000 C 
ATOM     25  O   UNL     1       1.764  11.675  20.919  0.00  0.00    +0.000 OA
ATOM     26  H   UNL     1      -0.601   9.547  20.614  0.00  0.00    +0.000 HD
BRANCH  24  27
ATOM     27  C   UNL     1      -0.360  11.825  21.893  0.00  0.00    +0.000 A 
ATOM     28  C   UNL     1      -1.356  11.116  22.577  0.00  0.00    +0.000 A 
ATOM     29  C   UNL     1      -2.275  11.810  23.368  0.00  0.00    +0.000 A 
ATOM     30  C   UNL     1      -2.189  13.195  23.474  0.00  0.00    +0.000 A 
ATOM     31  F   UNL     1      -3.066  13.850  24.244  0.00  0.00    +0.000 F 
ATOM     32  C   UNL     1      -1.203  13.908  22.803  0.00  0.00    +0.000 A 
ATOM     33  C   UNL     1      -0.284  13.222  22.013  0.00  0.00    +0.000 A 
ENDBRANCH  24  27
ENDBRANCH  22  23
ENDBRANCH  20  22
ENDBRANCH   1  20
TORSDOF 5
ENDMDL
MODEL 8
REMARK VINA RESULT:      -8.5      0.796      1.265
REMARK  Name = 
REMARK  6 active torsions:
REMARK  status: ('A' for Active; 'I' for Inactive)
REMARK    1  A    between atoms: C_1  and  C_2
REMARK    2  A    between atoms: C_2  and  C_3
REMARK    3  A    between atoms: C_2  and  N_22
REMARK    4  A    between atoms: C_3  and  N_4
REMARK    5  A    between atoms: N_14  and  C_15
REMARK    6  A    between atoms: C_23  and  C_25
REMARK                            x       y       z     vdW  Elec       q    Type
REMARK                         _______ _______ _______ _____ _____    ______ ____
ROOT
ATOM      1  N   UNL     1       2.601   6.747  19.367  0.00  0.00    +0.000 NA
ATOM      2  C   UNL     1       2.965   5.746  20.378  0.00  0.00    +0.000 C 
ATOM      3  C   UNL     1       2.298   4.396  20.239  0.00  0.00    +0.000 C 
ATOM      4  C   UNL     1       2.376   3.853  18.815  0.00  0.00    +0.000 C 
ATOM      5  C   UNL     1       1.863   4.880  17.815  0.00  0.00    +0.000 C 
ATOM      6  C   UNL     1       2.500   6.250  17.988  0.00  0.00    +0.000 C 
ATOM      7  C   UNL     1       1.410   2.653  18.781  0.00  0.00    +0.000 C 
ATOM      8  O   UNL     1       0.194   2.657  18.894  0.00  0.00    +0.000 OA
ATOM      9  N   UNL     1       2.160   1.513  18.647  0.00  0.00    +0.000 N 
ATOM     10  C   UNL     1       3.559   1.746  18.665  0.00  0.00    +0.000 C 
ATOM     11  N   UNL     1       3.691   3.189  18.507  0.00  0.00    +0.000 N 
ATOM     12  H   UNL     1       1.722   0.604  18.673  0.00  0.00    +0.000 HD
ENDROOT
BRANCH  11  13
ATOM     13  C   UNL     1       4.749   3.698  17.775  0.00  0.00    +0.000 A 
ATOM     14  C   UNL     1       4.837   3.546  16.380  0.00  0.00    +0.000 A 
ATOM     15  C   UNL     1       5.929   4.017  15.629  0.00  0.00    +0.000 A 
ATOM     16  C   UNL     1       6.976   4.685  16.259  0.00  0.00    +0.000 A 
ATOM     17  C   UNL     1       6.908   4.861  17.624  0.00  0.00    +0.000 A 
ATOM     18  F   UNL     1       7.891   5.521  18.256  0.00  0.00    +0.000 F 
ATOM     19  C   UNL     1       5.835   4.361  18.361  0.00  0.00    +0.000 A 
ENDBRANCH  11  13
BRANCH   1  20
ATOM     20  C   UNL     1       1.436   7.547  19.756  0.00  0.00    +0.000 C 
BRANCH  20  22
ATOM     21  C   UNL     1       2.214   9.223  17.988  0.00  0.00    +0.000 C 
ATOM     22  C   UNL     1       1.566   9.043  19.359  0.00  0.00    +0.000 C 
BRANCH  22  23
ATOM     23  N   UNL     1       0.274   9.708  19.424  0.00  0.00    +0.000 N 
ATOM     24  C   UNL     1       0.160  10.908  20.094  0.00  0.00    +0.000 C 
ATOM     25  O   UNL     1       1.109  11.481  20.619  0.00  0.00    +0.000 OA
ATOM     26  H   UNL     1      -0.525   9.261  19.001  0.00  0.00    +0.000 HD
BRANCH  24  27
ATOM     27  C   UNL     1      -1.182  11.533  20.140  0.00  0.00    +0.000 A 
ATOM     28  C   UNL     1      -2.056  11.508  19.045  0.00  0.00    +0.000 A 
ATOM     29  C   UNL     1      -3.322  12.085  19.162  0.00  0.00    +0.000 A 
ATOM     30  C   UNL     1      -3.706  12.673  20.364  0.00  0.00    +0.000 A 
ATOM     31  F   UNL     1      -4.926  13.212  20.471  0.00  0.00    +0.000 F 
ATOM     32  C   UNL     1      -2.849  12.699  21.458  0.00  0.00    +0.000 A 
ATOM     33  C   UNL     1      -1.584  12.125  21.347  0.00  0.00    +0.000 A 
ENDBRANCH  24  27
ENDBRANCH  22  23
ENDBRANCH  20  22
ENDBRANCH   1  20
TORSDOF 5
ENDMDL
MODEL 9
REMARK VINA RESULT:      -8.2      2.308      2.791
REMARK  Name = 
REMARK  6 active torsions:
REMARK  status: ('A' for Active; 'I' for Inactive)
REMARK    1  A    between atoms: C_1  and  C_2
REMARK    2  A    between atoms: C_2  and  C_3
REMARK    3  A    between atoms: C_2  and  N_22
REMARK    4  A    between atoms: C_3  and  N_4
REMARK    5  A    between atoms: N_14  and  C_15
REMARK    6  A    between atoms: C_23  and  C_25
REMARK                            x       y       z     vdW  Elec       q    Type
REMARK                         _______ _______ _______ _____ _____    ______ ____
ROOT
ATOM      1  N   UNL     1       2.393   7.323  19.051  0.00  0.00    +0.000 NA
ATOM      2  C   UNL     1       2.648   6.638  20.324  0.00  0.00    +0.000 C 
ATOM      3  C   UNL     1       2.188   5.199  20.401  0.00  0.00    +0.000 C 
ATOM      4  C   UNL     1       2.629   4.382  19.191  0.00  0.00    +0.000 C 
ATOM      5  C   UNL     1       2.226   5.070  17.895  0.00  0.00    +0.000 C 
ATOM      6  C   UNL     1       2.647   6.531  17.840  0.00  0.00    +0.000 C 
ATOM      7  C   UNL     1       1.839   3.062  19.277  0.00  0.00    +0.000 C 
ATOM      8  O   UNL     1       0.635   2.891  19.165  0.00  0.00    +0.000 OA
ATOM      9  N   UNL     1       2.728   2.057  19.563  0.00  0.00    +0.000 N 
ATOM     10  C   UNL     1       4.055   2.513  19.775  0.00  0.00    +0.000 C 
ATOM     11  N   UNL     1       4.048   3.891  19.296  0.00  0.00    +0.000 N 
ATOM     12  H   UNL     1       2.404   1.116  19.731  0.00  0.00    +0.000 HD
ENDROOT
BRANCH  11  13
ATOM     13  C   UNL     1       5.172   4.395  18.664  0.00  0.00    +0.000 A 
ATOM     14  C   UNL     1       6.031   5.316  19.287  0.00  0.00    +0.000 A 
ATOM     15  C   UNL     1       7.150   5.872  18.640  0.00  0.00    +0.000 A 
ATOM     16  C   UNL     1       7.460   5.500  17.334  0.00  0.00    +0.000 A 
ATOM     17  C   UNL     1       6.642   4.587  16.706  0.00  0.00    +0.000 A 
ATOM     18  F   UNL     1       6.928   4.193  15.456  0.00  0.00    +0.000 F 
ATOM     19  C   UNL     1       5.518   4.068  17.347  0.00  0.00    +0.000 A 
ENDBRANCH  11  13
BRANCH   1  20
ATOM     20  C   UNL     1       1.086   7.988  19.017  0.00  0.00    +0.000 C 
BRANCH  20  22
ATOM     21  C   UNL     1       2.319   9.776  17.666  0.00  0.00    +0.000 C 
ATOM     22  C   UNL     1       1.180   9.493  18.643  0.00  0.00    +0.000 C 
BRANCH  22  23
ATOM     23  N   UNL     1      -0.092   9.975  18.126  0.00  0.00    +0.000 N 
ATOM     24  C   UNL     1      -1.058  10.418  19.004  0.00  0.00    +0.000 C 
ATOM     25  O   UNL     1      -0.895  10.466  20.219  0.00  0.00    +0.000 OA
ATOM     26  H   UNL     1      -0.254   9.948  17.131  0.00  0.00    +0.000 HD
BRANCH  24  27
ATOM     27  C   UNL     1      -2.338  10.885  18.423  0.00  0.00    +0.000 A 
ATOM     28  C   UNL     1      -3.172  11.795  19.085  0.00  0.00    +0.000 A 
ATOM     29  C   UNL     1      -4.350  12.222  18.469  0.00  0.00    +0.000 A 
ATOM     30  C   UNL     1      -4.681  11.746  17.203  0.00  0.00    +0.000 A 
ATOM     31  F   UNL     1      -5.806  12.171  16.616  0.00  0.00    +0.000 F 
ATOM     32  C   UNL     1      -3.859  10.845  16.536  0.00  0.00    +0.000 A 
ATOM     33  C   UNL     1      -2.682  10.416  17.145  0.00  0.00    +0.000 A 
ENDBRANCH  24  27
ENDBRANCH  22  23
ENDBRANCH  20  22
ENDBRANCH   1  20
TORSDOF 5
ENDMDL
