MODEL 1
REMARK VINA RESULT:      -8.3      0.000      0.000
REMARK  Name = 
REMARK  10 active torsions:
REMARK  status: ('A' for Active; 'I' for Inactive)
REMARK    1  A    between atoms: C_1  and  C_2
REMARK    2  A    between atoms: C_2  and  N_3
REMARK    3  A    between atoms: N_3  and  C_29
REMARK    4  A    between atoms: C_4  and  C_6
REMARK    5  A    between atoms: C_6  and  S_7
REMARK    6  A    between atoms: S_7  and  C_8
REMARK    7  A    between atoms: N_16  and  C_17
REMARK    8  A    between atoms: C_17  and  C_18
REMARK    9  A    between atoms: N_20  and  C_21
REMARK   10  A    between atoms: C_25  and  C_26
REMARK                            x       y       z     vdW  Elec       q    Type
REMARK                         _______ _______ _______ _____ _____    ______ ____
ROOT
ATOM      1  C   UNL     1       2.617   6.165  18.291  0.00  0.00    +0.000 A 
ATOM      2  N   UNL     1       2.430   5.018  17.683  0.00  0.00    +0.000 NA
ATOM      3  C   UNL     1       1.939   4.176  18.645  0.00  0.00    +0.000 A 
ATOM      4  C   UNL     1       1.575   2.824  18.548  0.00  0.00    +0.000 A 
ATOM      5  C   UNL     1       1.154   2.143  19.697  0.00  0.00    +0.000 A 
ATOM      6  C   UNL     1       1.097   2.805  20.927  0.00  0.00    +0.000 A 
ATOM      7  C   UNL     1       1.425   4.163  21.042  0.00  0.00    +0.000 A 
ATOM      8  C   UNL     1       1.838   4.825  19.875  0.00  0.00    +0.000 A 
ATOM      9  N   UNL     1       2.216   6.130  19.605  0.00  0.00    +0.000 N 
ENDROOT
BRANCH   1  10
ATOM     10  S   UNL     1       3.309   7.565  17.537  0.00  0.00    +0.000 S 
BRANCH  10  11
ATOM     11  C   UNL     1       5.068   7.035  17.392  0.00  0.00    +0.000 C 
BRANCH  11  13
ATOM     12  N   UNL     1       5.931   5.229  15.815  0.00  0.00    +0.000 N 
ATOM     13  C   UNL     1       5.342   6.508  15.975  0.00  0.00    +0.000 C 
ATOM     14  O   UNL     1       4.971   7.200  15.019  0.00  0.00    +0.000 OA
BRANCH  12  15
ATOM     15  C   UNL     1       6.246   4.726  14.483  0.00  0.00    +0.000 A 
ATOM     16  C   UNL     1       5.406   3.820  13.816  0.00  0.00    +0.000 A 
ATOM     17  C   UNL     1       5.709   3.339  12.535  0.00  0.00    +0.000 A 
ATOM     18  C   UNL     1       6.861   3.755  11.884  0.00  0.00    +0.000 A 
ATOM     19  C   UNL     1       7.705   4.664  12.511  0.00  0.00    +0.000 A 
ATOM     20  C   UNL     1       7.393   5.151  13.787  0.00  0.00    +0.000 A 
ENDBRANCH  12  15
BRANCH  12  22
ATOM     21  C   UNL     1       7.686   4.556  17.507  0.00  0.00    +0.000 C 
ATOM     22  C   UNL     1       6.284   4.347  16.946  0.00  0.00    +0.000 C 
ENDBRANCH  12  22
ENDBRANCH  11  13
ENDBRANCH  10  11
ENDBRANCH   1  10
BRANCH   9  23
ATOM     23  C   UNL     1       2.308   7.202  20.585  0.00  0.00    +0.000 C 
BRANCH  23  24
ATOM     24  C   UNL     1       1.074   8.086  20.643  0.00  0.00    +0.000 C 
ATOM     25  O   UNL     1       0.101   7.783  21.331  0.00  0.00    +0.000 OA
ATOM     26  N   UNL     1       1.158   9.236  19.867  0.00  0.00    +0.000 N 
ATOM     27  H   UNL     1       1.760   9.186  19.049  0.00  0.00    +0.000 HD
BRANCH  26  28
ATOM     28  C   UNL     1       0.152  10.227  19.843  0.00  0.00    +0.000 A 
ATOM     29  C   UNL     1       0.143  11.168  20.873  0.00  0.00    +0.000 A 
ATOM     30  C   UNL     1      -0.807  12.193  20.887  0.00  0.00    +0.000 A 
ATOM     31  C   UNL     1      -1.789  12.249  19.897  0.00  0.00    +0.000 A 
ATOM     32  C   UNL     1      -1.819  11.280  18.888  0.00  0.00    +0.000 A 
ATOM     33  C   UNL     1      -0.835  10.280  18.850  0.00  0.00    +0.000 A 
BRANCH  32  34
ATOM     34  C   UNL     1      -2.865  11.311  17.905  0.00  0.00    +0.000 C 
ATOM     35  N   UNL     1      -3.720  11.357  17.122  0.00  0.00    +0.000 NA
ENDBRANCH  32  34
ENDBRANCH  26  28
ENDBRANCH  23  24
ENDBRANCH   9  23
TORSDOF 9
ENDMDL
MODEL 2
REMARK VINA RESULT:      -8.1      1.118      1.728
REMARK  Name = 
REMARK  10 active torsions:
REMARK  status: ('A' for Active; 'I' for Inactive)
REMARK    1  A    between atoms: C_1  and  C_2
REMARK    2  A    between atoms: C_2  and  N_3
REMARK    3  A    between atoms: N_3  and  C_29
REMARK    4  A    between atoms: C_4  and  C_6
REMARK    5  A    between atoms: C_6  and  S_7
REMARK    6  A    between atoms: S_7  and  C_8
REMARK    7  A    between atoms: N_16  and  C_17
REMARK    8  A    between atoms: C_17  and  C_18
REMARK    9  A    between atoms: N_20  and  C_21
REMARK   10  A    between atoms: C_25  and  C_26
REMARK                            x       y       z     vdW  Elec       q    Type
REMARK                         _______ _______ _______ _____ _____    ______ ____
ROOT
ATOM      1  C   UNL     1       2.585   6.109  18.301  0.00  0.00    +0.000 A 
ATOM      2  N   UNL     1       2.375   4.971  17.681  0.00  0.00    +0.000 NA
ATOM      3  C   UNL     1       1.916   4.115  18.648  0.00  0.00    +0.000 A 
ATOM      4  C   UNL     1       1.546   2.766  18.543  0.00  0.00    +0.000 A 
ATOM      5  C   UNL     1       1.165   2.067  19.696  0.00  0.00    +0.000 A 
ATOM      6  C   UNL     1       1.152   2.712  20.936  0.00  0.00    +0.000 A 
ATOM      7  C   UNL     1       1.487   4.067  21.061  0.00  0.00    +0.000 A 
ATOM      8  C   UNL     1       1.859   4.746  19.890  0.00  0.00    +0.000 A 
ATOM      9  N   UNL     1       2.231   6.055  19.627  0.00  0.00    +0.000 N 
ENDROOT
BRANCH   1  10
ATOM     10  S   UNL     1       3.252   7.519  17.544  0.00  0.00    +0.000 S 
BRANCH  10  11
ATOM     11  C   UNL     1       5.022   7.022  17.407  0.00  0.00    +0.000 C 
BRANCH  11  13
ATOM     12  N   UNL     1       5.904   5.230  15.824  0.00  0.00    +0.000 N 
ATOM     13  C   UNL     1       5.314   6.508  15.988  0.00  0.00    +0.000 C 
ATOM     14  O   UNL     1       4.955   7.209  15.034  0.00  0.00    +0.000 OA
BRANCH  12  15
ATOM     15  C   UNL     1       6.236   4.739  14.492  0.00  0.00    +0.000 A 
ATOM     16  C   UNL     1       5.409   3.834  13.808  0.00  0.00    +0.000 A 
ATOM     17  C   UNL     1       5.728   3.365  12.527  0.00  0.00    +0.000 A 
ATOM     18  C   UNL     1       6.885   3.792  11.892  0.00  0.00    +0.000 A 
ATOM     19  C   UNL     1       7.717   4.700  12.534  0.00  0.00    +0.000 A 
ATOM     20  C   UNL     1       7.388   5.175  13.811  0.00  0.00    +0.000 A 
ENDBRANCH  12  15
BRANCH  12  22
ATOM     21  C   UNL     1       7.606   4.597  17.586  0.00  0.00    +0.000 C 
ATOM     22  C   UNL     1       6.243   4.338  16.952  0.00  0.00    +0.000 C 
ENDBRANCH  12  22
ENDBRANCH  11  13
ENDBRANCH  10  11
ENDBRANCH   1  10
BRANCH   9  23
ATOM     23  C   UNL     1       2.358   7.111  20.619  0.00  0.00    +0.000 C 
BRANCH  23  24
ATOM     24  C   UNL     1       1.119   7.978  20.755  0.00  0.00    +0.000 C 
ATOM     25  O   UNL     1       0.122   7.581  21.355  0.00  0.00    +0.000 OA
ATOM     26  N   UNL     1       1.226   9.226  20.152  0.00  0.00    +0.000 N 
ATOM     27  H   UNL     1       1.857   9.292  19.358  0.00  0.00    +0.000 HD
BRANCH  26  28
ATOM     28  C   UNL     1       0.215  10.210  20.229  0.00  0.00    +0.000 A 
ATOM     29  C   UNL     1      -0.629  10.359  19.128  0.00  0.00    +0.000 A 
ATOM     30  C   UNL     1      -1.669  11.292  19.155  0.00  0.00    +0.000 A 
ATOM     31  C   UNL     1      -1.836  12.121  20.266  0.00  0.00    +0.000 A 
ATOM     32  C   UNL     1      -0.963  12.013  21.354  0.00  0.00    +0.000 A 
ATOM     33  C   UNL     1       0.051  11.042  21.343  0.00  0.00    +0.000 A 
BRANCH  32  34
ATOM     34  C   UNL     1      -1.104  12.906  22.469  0.00  0.00    +0.000 C 
ATOM     35  N   UNL     1      -1.202  13.613  23.384  0.00  0.00    +0.000 NA
ENDBRANCH  32  34
ENDBRANCH  26  28
ENDBRANCH  23  24
ENDBRANCH   9  23
TORSDOF 9
ENDMDL
MODEL 3
REMARK VINA RESULT:      -7.6      1.632      1.973
REMARK  Name = 
REMARK  10 active torsions:
REMARK  status: ('A' for Active; 'I' for Inactive)
REMARK    1  A    between atoms: C_1  and  C_2
REMARK    2  A    between atoms: C_2  and  N_3
REMARK    3  A    between atoms: N_3  and  C_29
REMARK    4  A    between atoms: C_4  and  C_6
REMARK    5  A    between atoms: C_6  and  S_7
REMARK    6  A    between atoms: S_7  and  C_8
REMARK    7  A    between atoms: N_16  and  C_17
REMARK    8  A    between atoms: C_17  and  C_18
REMARK    9  A    between atoms: N_20  and  C_21
REMARK   10  A    between atoms: C_25  and  C_26
REMARK                            x       y       z     vdW  Elec       q    Type
REMARK                         _______ _______ _______ _____ _____    ______ ____
ROOT
ATOM      1  C   UNL     1       2.713   6.100  18.230  0.00  0.00    +0.000 A 
ATOM      2  N   UNL     1       2.382   5.013  17.574  0.00  0.00    +0.000 NA
ATOM      3  C   UNL     1       1.860   4.168  18.519  0.00  0.00    +0.000 A 
ATOM      4  C   UNL     1       1.360   2.865  18.373  0.00  0.00    +0.000 A 
ATOM      5  C   UNL     1       0.935   2.163  19.508  0.00  0.00    +0.000 A 
ATOM      6  C   UNL     1       1.008   2.757  20.771  0.00  0.00    +0.000 A 
ATOM      7  C   UNL     1       1.474   4.068  20.938  0.00  0.00    +0.000 A 
ATOM      8  C   UNL     1       1.889   4.753  19.784  0.00  0.00    +0.000 A 
ATOM      9  N   UNL     1       2.380   6.029  19.561  0.00  0.00    +0.000 N 
ENDROOT
BRANCH   1  10
ATOM     10  S   UNL     1       3.500   7.467  17.510  0.00  0.00    +0.000 S 
BRANCH  10  11
ATOM     11  C   UNL     1       5.220   6.825  17.357  0.00  0.00    +0.000 C 
BRANCH  11  13
ATOM     12  N   UNL     1       6.097   5.108  15.690  0.00  0.00    +0.000 N 
ATOM     13  C   UNL     1       5.483   6.365  15.915  0.00  0.00    +0.000 C 
ATOM     14  O   UNL     1       5.080   7.089  14.995  0.00  0.00    +0.000 OA
BRANCH  12  15
ATOM     15  C   UNL     1       6.401   4.670  14.334  0.00  0.00    +0.000 A 
ATOM     16  C   UNL     1       7.498   5.179  13.619  0.00  0.00    +0.000 A 
ATOM     17  C   UNL     1       7.790   4.754  12.316  0.00  0.00    +0.000 A 
ATOM     18  C   UNL     1       6.994   3.805  11.692  0.00  0.00    +0.000 A 
ATOM     19  C   UNL     1       5.911   3.270  12.378  0.00  0.00    +0.000 A 
ATOM     20  C   UNL     1       5.629   3.689  13.686  0.00  0.00    +0.000 A 
ENDBRANCH  12  15
BRANCH  12  22
ATOM     21  C   UNL     1       7.637   4.681  17.651  0.00  0.00    +0.000 C 
ATOM     22  C   UNL     1       6.489   4.188  16.778  0.00  0.00    +0.000 C 
ENDBRANCH  12  22
ENDBRANCH  11  13
ENDBRANCH  10  11
ENDBRANCH   1  10
BRANCH   9  23
ATOM     23  C   UNL     1       2.628   7.029  20.587  0.00  0.00    +0.000 C 
BRANCH  23  24
ATOM     24  C   UNL     1       1.608   8.155  20.607  0.00  0.00    +0.000 C 
ATOM     25  O   UNL     1       0.891   8.385  19.635  0.00  0.00    +0.000 OA
ATOM     26  N   UNL     1       1.571   8.872  21.796  0.00  0.00    +0.000 N 
ATOM     27  H   UNL     1       2.434   8.904  22.332  0.00  0.00    +0.000 HD
BRANCH  26  28
ATOM     28  C   UNL     1       0.643   9.907  22.046  0.00  0.00    +0.000 A 
ATOM     29  C   UNL     1      -0.364   9.663  22.982  0.00  0.00    +0.000 A 
ATOM     30  C   UNL     1      -1.293  10.658  23.297  0.00  0.00    +0.000 A 
ATOM     31  C   UNL     1      -1.252  11.887  22.637  0.00  0.00    +0.000 A 
ATOM     32  C   UNL     1      -0.277  12.123  21.661  0.00  0.00    +0.000 A 
ATOM     33  C   UNL     1       0.684  11.138  21.381  0.00  0.00    +0.000 A 
BRANCH  32  34
ATOM     34  C   UNL     1      -0.275  13.367  20.945  0.00  0.00    +0.000 C 
ATOM     35  N   UNL     1      -0.295  14.366  20.354  0.00  0.00    +0.000 NA
ENDBRANCH  32  34
ENDBRANCH  26  28
ENDBRANCH  23  24
ENDBRANCH   9  23
TORSDOF 9
ENDMDL
MODEL 4
REMARK VINA RESULT:      -7.5      1.703      9.410
REMARK  Name = 
REMARK  10 active torsions:
REMARK  status: ('A' for Active; 'I' for Inactive)
REMARK    1  A    between atoms: C_1  and  C_2
REMARK    2  A    between atoms: C_2  and  N_3
REMARK    3  A    between atoms: N_3  and  C_29
REMARK    4  A    between atoms: C_4  and  C_6
REMARK    5  A    between atoms: C_6  and  S_7
REMARK    6  A    between atoms: S_7  and  C_8
REMARK    7  A    between atoms: N_16  and  C_17
REMARK    8  A    between atoms: C_17  and  C_18
REMARK    9  A    between atoms: N_20  and  C_21
REMARK   10  A    between atoms: C_25  and  C_26
REMARK                            x       y       z     vdW  Elec       q    Type
REMARK                         _______ _______ _______ _____ _____    ______ ____
ROOT
ATOM      1  C   UNL     1       2.832   6.563  18.387  0.00  0.00    +0.000 A 
ATOM      2  N   UNL     1       1.731   5.998  18.823  0.00  0.00    +0.000 NA
ATOM      3  C   UNL     1       2.024   4.663  18.917  0.00  0.00    +0.000 A 
ATOM      4  C   UNL     1       1.208   3.595  19.320  0.00  0.00    +0.000 A 
ATOM      5  C   UNL     1       1.712   2.290  19.273  0.00  0.00    +0.000 A 
ATOM      6  C   UNL     1       3.017   2.056  18.828  0.00  0.00    +0.000 A 
ATOM      7  C   UNL     1       3.862   3.108  18.451  0.00  0.00    +0.000 A 
ATOM      8  C   UNL     1       3.334   4.408  18.514  0.00  0.00    +0.000 A 
ATOM      9  N   UNL     1       3.859   5.661  18.241  0.00  0.00    +0.000 N 
ENDROOT
BRANCH   1  10
ATOM     10  S   UNL     1       2.977   8.250  18.014  0.00  0.00    +0.000 S 
BRANCH  10  11
ATOM     11  C   UNL     1       1.201   8.738  17.963  0.00  0.00    +0.000 C 
BRANCH  11  13
ATOM     12  N   UNL     1      -0.271  10.313  19.322  0.00  0.00    +0.000 N 
ATOM     13  C   UNL     1       0.795   9.380  19.299  0.00  0.00    +0.000 C 
ATOM     14  O   UNL     1       1.376   9.000  20.323  0.00  0.00    +0.000 OA
BRANCH  12  15
ATOM     15  C   UNL     1      -0.645  10.973  20.567  0.00  0.00    +0.000 A 
ATOM     16  C   UNL     1      -1.095  12.302  20.594  0.00  0.00    +0.000 A 
ATOM     17  C   UNL     1      -1.456  12.934  21.791  0.00  0.00    +0.000 A 
ATOM     18  C   UNL     1      -1.381  12.251  22.996  0.00  0.00    +0.000 A 
ATOM     19  C   UNL     1      -0.955  10.929  23.001  0.00  0.00    +0.000 A 
ATOM     20  C   UNL     1      -0.605  10.297  21.800  0.00  0.00    +0.000 A 
ENDBRANCH  12  15
BRANCH  12  22
ATOM     21  C   UNL     1      -2.363   9.954  17.944  0.00  0.00    +0.000 C 
ATOM     22  C   UNL     1      -1.043  10.697  18.122  0.00  0.00    +0.000 C 
ENDBRANCH  12  22
ENDBRANCH  11  13
ENDBRANCH  10  11
ENDBRANCH   1  10
BRANCH   9  23
ATOM     23  C   UNL     1       5.202   5.925  17.749  0.00  0.00    +0.000 C 
BRANCH  23  24
ATOM     24  C   UNL     1       5.328   5.850  16.237  0.00  0.00    +0.000 C 
ATOM     25  O   UNL     1       5.101   6.827  15.526  0.00  0.00    +0.000 OA
ATOM     26  N   UNL     1       5.714   4.604  15.758  0.00  0.00    +0.000 N 
ATOM     27  H   UNL     1       5.461   3.802  16.328  0.00  0.00    +0.000 HD
BRANCH  26  28
ATOM     28  C   UNL     1       5.962   4.345  14.391  0.00  0.00    +0.000 A 
ATOM     29  C   UNL     1       7.242   4.609  13.903  0.00  0.00    +0.000 A 
ATOM     30  C   UNL     1       7.559   4.343  12.568  0.00  0.00    +0.000 A 
ATOM     31  C   UNL     1       6.579   3.861  11.700  0.00  0.00    +0.000 A 
ATOM     32  C   UNL     1       5.279   3.641  12.168  0.00  0.00    +0.000 A 
ATOM     33  C   UNL     1       4.976   3.863  13.521  0.00  0.00    +0.000 A 
BRANCH  32  34
ATOM     34  C   UNL     1       4.262   3.198  11.257  0.00  0.00    +0.000 C 
ATOM     35  N   UNL     1       3.440   2.816  10.531  0.00  0.00    +0.000 NA
ENDBRANCH  32  34
ENDBRANCH  26  28
ENDBRANCH  23  24
ENDBRANCH   9  23
TORSDOF 9
ENDMDL
MODEL 5
REMARK VINA RESULT:      -7.3      2.273      9.087
REMARK  Name = 
REMARK  10 active torsions:
REMARK  status: ('A' for Active; 'I' for Inactive)
REMARK    1  A    between atoms: C_1  and  C_2
REMARK    2  A    between atoms: C_2  and  N_3
REMARK    3  A    between atoms: N_3  and  C_29
REMARK    4  A    between atoms: C_4  and  C_6
REMARK    5  A    between atoms: C_6  and  S_7
REMARK    6  A    between atoms: S_7  and  C_8
REMARK    7  A    between atoms: N_16  and  C_17
REMARK    8  A    between atoms: C_17  and  C_18
REMARK    9  A    between atoms: N_20  and  C_21
REMARK   10  A    between atoms: C_25  and  C_26
REMARK                            x       y       z     vdW  Elec       q    Type
REMARK                         _______ _______ _______ _____ _____    ______ ____
ROOT
ATOM      1  C   UNL     1       3.100   6.177  18.134  0.00  0.00    +0.000 A 
ATOM      2  N   UNL     1       1.940   5.564  18.173  0.00  0.00    +0.000 NA
ATOM      3  C   UNL     1       2.240   4.239  18.360  0.00  0.00    +0.000 A 
ATOM      4  C   UNL     1       1.380   3.135  18.463  0.00  0.00    +0.000 A 
ATOM      5  C   UNL     1       1.925   1.851  18.588  0.00  0.00    +0.000 A 
ATOM      6  C   UNL     1       3.312   1.674  18.609  0.00  0.00    +0.000 A 
ATOM      7  C   UNL     1       4.190   2.764  18.539  0.00  0.00    +0.000 A 
ATOM      8  C   UNL     1       3.618   4.042  18.421  0.00  0.00    +0.000 A 
ATOM      9  N   UNL     1       4.152   5.318  18.343  0.00  0.00    +0.000 N 
ENDROOT
BRANCH   1  10
ATOM     10  S   UNL     1       3.292   7.873  17.834  0.00  0.00    +0.000 S 
BRANCH  10  11
ATOM     11  C   UNL     1       1.799   8.538  18.685  0.00  0.00    +0.000 C 
BRANCH  11  13
ATOM     12  N   UNL     1       1.272  10.875  19.555  0.00  0.00    +0.000 N 
ATOM     13  C   UNL     1       1.713  10.059  18.484  0.00  0.00    +0.000 C 
ATOM     14  O   UNL     1       2.103  10.522  17.405  0.00  0.00    +0.000 OA
BRANCH  12  15
ATOM     15  C   UNL     1       1.136  12.315  19.376  0.00  0.00    +0.000 A 
ATOM     16  C   UNL     1       2.161  13.206  19.731  0.00  0.00    +0.000 A 
ATOM     17  C   UNL     1       2.029  14.590  19.556  0.00  0.00    +0.000 A 
ATOM     18  C   UNL     1       0.867  15.121  19.015  0.00  0.00    +0.000 A 
ATOM     19  C   UNL     1      -0.159  14.265  18.639  0.00  0.00    +0.000 A 
ATOM     20  C   UNL     1      -0.019  12.880  18.805  0.00  0.00    +0.000 A 
ENDBRANCH  12  15
BRANCH  12  22
ATOM     21  C   UNL     1      -0.590  10.110  21.087  0.00  0.00    +0.000 C 
ATOM     22  C   UNL     1       0.903  10.344  20.884  0.00  0.00    +0.000 C 
ENDBRANCH  12  22
ENDBRANCH  11  13
ENDBRANCH  10  11
ENDBRANCH   1  10
BRANCH   9  23
ATOM     23  C   UNL     1       5.570   5.641  18.332  0.00  0.00    +0.000 C 
BRANCH  23  24
ATOM     24  C   UNL     1       6.313   5.105  17.120  0.00  0.00    +0.000 C 
ATOM     25  O   UNL     1       7.322   4.414  17.242  0.00  0.00    +0.000 OA
ATOM     26  N   UNL     1       5.751   5.465  15.901  0.00  0.00    +0.000 N 
ATOM     27  H   UNL     1       5.228   6.336  15.884  0.00  0.00    +0.000 HD
BRANCH  26  28
ATOM     28  C   UNL     1       6.243   5.007  14.659  0.00  0.00    +0.000 A 
ATOM     29  C   UNL     1       7.447   5.546  14.200  0.00  0.00    +0.000 A 
ATOM     30  C   UNL     1       8.003   5.110  12.995  0.00  0.00    +0.000 A 
ATOM     31  C   UNL     1       7.329   4.171  12.213  0.00  0.00    +0.000 A 
ATOM     32  C   UNL     1       6.097   3.663  12.640  0.00  0.00    +0.000 A 
ATOM     33  C   UNL     1       5.565   4.066  13.875  0.00  0.00    +0.000 A 
BRANCH  32  34
ATOM     34  C   UNL     1       5.382   2.739  11.805  0.00  0.00    +0.000 C 
ATOM     35  N   UNL     1       4.784   2.009  11.130  0.00  0.00    +0.000 NA
ENDBRANCH  32  34
ENDBRANCH  26  28
ENDBRANCH  23  24
ENDBRANCH   9  23
TORSDOF 9
ENDMDL
MODEL 6
REMARK VINA RESULT:      -7.3      1.767      9.247
REMARK  Name = 
REMARK  10 active torsions:
REMARK  status: ('A' for Active; 'I' for Inactive)
REMARK    1  A    between atoms: C_1  and  C_2
REMARK    2  A    between atoms: C_2  and  N_3
REMARK    3  A    between atoms: N_3  and  C_29
REMARK    4  A    between atoms: C_4  and  C_6
REMARK    5  A    between atoms: C_6  and  S_7
REMARK    6  A    between atoms: S_7  and  C_8
REMARK    7  A    between atoms: N_16  and  C_17
REMARK    8  A    between atoms: C_17  and  C_18
REMARK    9  A    between atoms: N_20  and  C_21
REMARK   10  A    between atoms: C_25  and  C_26
REMARK                            x       y       z     vdW  Elec       q    Type
REMARK                         _______ _______ _______ _____ _____    ______ ____
ROOT
ATOM      1  C   UNL     1       2.602   6.143  18.373  0.00  0.00    +0.000 A 
ATOM      2  N   UNL     1       1.547   5.427  18.679  0.00  0.00    +0.000 NA
ATOM      3  C   UNL     1       1.991   4.131  18.722  0.00  0.00    +0.000 A 
ATOM      4  C   UNL     1       1.281   2.951  18.992  0.00  0.00    +0.000 A 
ATOM      5  C   UNL     1       1.942   1.719  18.914  0.00  0.00    +0.000 A 
ATOM      6  C   UNL     1       3.297   1.669  18.571  0.00  0.00    +0.000 A 
ATOM      7  C   UNL     1       4.035   2.835  18.329  0.00  0.00    +0.000 A 
ATOM      8  C   UNL     1       3.350   4.058  18.420  0.00  0.00    +0.000 A 
ATOM      9  N   UNL     1       3.739   5.379  18.265  0.00  0.00    +0.000 N 
ENDROOT
BRANCH   1  10
ATOM     10  S   UNL     1       2.571   7.857  18.111  0.00  0.00    +0.000 S 
BRANCH  10  11
ATOM     11  C   UNL     1       1.911   8.433  19.732  0.00  0.00    +0.000 C 
BRANCH  11  13
ATOM     12  N   UNL     1      -0.112   9.820  20.423  0.00  0.00    +0.000 N 
ATOM     13  C   UNL     1       0.960   9.622  19.519  0.00  0.00    +0.000 C 
ATOM     14  O   UNL     1       1.213  10.406  18.596  0.00  0.00    +0.000 OA
BRANCH  12  15
ATOM     15  C   UNL     1      -1.057  10.911  20.217  0.00  0.00    +0.000 A 
ATOM     16  C   UNL     1      -1.971  10.907  19.151  0.00  0.00    +0.000 A 
ATOM     17  C   UNL     1      -2.880  11.955  18.955  0.00  0.00    +0.000 A 
ATOM     18  C   UNL     1      -2.902  13.037  19.824  0.00  0.00    +0.000 A 
ATOM     19  C   UNL     1      -2.021  13.063  20.897  0.00  0.00    +0.000 A 
ATOM     20  C   UNL     1      -1.120  12.008  21.096  0.00  0.00    +0.000 A 
ENDBRANCH  12  15
BRANCH  12  22
ATOM     21  C   UNL     1       0.345   9.377  22.872  0.00  0.00    +0.000 C 
ATOM     22  C   UNL     1      -0.364   8.951  21.591  0.00  0.00    +0.000 C 
ENDBRANCH  12  22
ENDBRANCH  11  13
ENDBRANCH  10  11
ENDBRANCH   1  10
BRANCH   9  23
ATOM     23  C   UNL     1       5.075   5.829  17.907  0.00  0.00    +0.000 C 
BRANCH  23  24
ATOM     24  C   UNL     1       5.337   5.844  16.411  0.00  0.00    +0.000 C 
ATOM     25  O   UNL     1       5.368   6.897  15.777  0.00  0.00    +0.000 OA
ATOM     26  N   UNL     1       5.533   4.587  15.853  0.00  0.00    +0.000 N 
ATOM     27  H   UNL     1       5.080   3.808  16.323  0.00  0.00    +0.000 HD
BRANCH  26  28
ATOM     28  C   UNL     1       5.865   4.388  14.495  0.00  0.00    +0.000 A 
ATOM     29  C   UNL     1       7.124   4.813  14.066  0.00  0.00    +0.000 A 
ATOM     30  C   UNL     1       7.525   4.614  12.742  0.00  0.00    +0.000 A 
ATOM     31  C   UNL     1       6.646   4.037  11.825  0.00  0.00    +0.000 A 
ATOM     32  C   UNL     1       5.364   3.654  12.233  0.00  0.00    +0.000 A 
ATOM     33  C   UNL     1       4.981   3.810  13.575  0.00  0.00    +0.000 A 
BRANCH  32  34
ATOM     34  C   UNL     1       4.445   3.112  11.272  0.00  0.00    +0.000 C 
ATOM     35  N   UNL     1       3.694   2.699  10.489  0.00  0.00    +0.000 NA
ENDBRANCH  32  34
ENDBRANCH  26  28
ENDBRANCH  23  24
ENDBRANCH   9  23
TORSDOF 9
ENDMDL
MODEL 7
REMARK VINA RESULT:      -7.2      2.206      9.177
REMARK  Name = 
REMARK  10 active torsions:
REMARK  status: ('A' for Active; 'I' for Inactive)
REMARK    1  A    between atoms: C_1  and  C_2
REMARK    2  A    between atoms: C_2  and  N_3
REMARK    3  A    between atoms: N_3  and  C_29
REMARK    4  A    between atoms: C_4  and  C_6
REMARK    5  A    between atoms: C_6  and  S_7
REMARK    6  A    between atoms: S_7  and  C_8
REMARK    7  A    between atoms: N_16  and  C_17
REMARK    8  A    between atoms: C_17  and  C_18
REMARK    9  A    between atoms: N_20  and  C_21
REMARK   10  A    between atoms: C_25  and  C_26
REMARK                            x       y       z     vdW  Elec       q    Type
REMARK                         _______ _______ _______ _____ _____    ______ ____
ROOT
ATOM      1  C   UNL     1       2.929   6.568  18.423  0.00  0.00    +0.000 A 
ATOM      2  N   UNL     1       1.917   5.923  18.954  0.00  0.00    +0.000 NA
ATOM      3  C   UNL     1       2.391   4.664  19.218  0.00  0.00    +0.000 A 
ATOM      4  C   UNL     1       1.730   3.560  19.777  0.00  0.00    +0.000 A 
ATOM      5  C   UNL     1       2.408   2.341  19.893  0.00  0.00    +0.000 A 
ATOM      6  C   UNL     1       3.731   2.228  19.455  0.00  0.00    +0.000 A 
ATOM      7  C   UNL     1       4.422   3.324  18.923  0.00  0.00    +0.000 A 
ATOM      8  C   UNL     1       3.722   4.537  18.824  0.00  0.00    +0.000 A 
ATOM      9  N   UNL     1       4.069   5.802  18.376  0.00  0.00    +0.000 N 
ENDROOT
BRANCH   1  10
ATOM     10  S   UNL     1       2.841   8.193  17.827  0.00  0.00    +0.000 S 
BRANCH  10  11
ATOM     11  C   UNL     1       1.561   8.895  18.952  0.00  0.00    +0.000 C 
BRANCH  11  13
ATOM     12  N   UNL     1       1.147  11.212  19.929  0.00  0.00    +0.000 N 
ATOM     13  C   UNL     1       1.523  10.425  18.812  0.00  0.00    +0.000 C 
ATOM     14  O   UNL     1       1.892  10.918  17.739  0.00  0.00    +0.000 OA
BRANCH  12  15
ATOM     15  C   UNL     1       1.056  12.662  19.810  0.00  0.00    +0.000 A 
ATOM     16  C   UNL     1       0.038  13.282  19.068  0.00  0.00    +0.000 A 
ATOM     17  C   UNL     1      -0.050  14.676  18.956  0.00  0.00    +0.000 A 
ATOM     18  C   UNL     1       0.879  15.490  19.589  0.00  0.00    +0.000 A 
ATOM     19  C   UNL     1       1.888  14.908  20.345  0.00  0.00    +0.000 A 
ATOM     20  C   UNL     1       1.966  13.514  20.463  0.00  0.00    +0.000 A 
ENDBRANCH  12  15
BRANCH  12  22
ATOM     21  C   UNL     1      -0.663  10.779  21.643  0.00  0.00    +0.000 C 
ATOM     22  C   UNL     1       0.804  10.642  21.249  0.00  0.00    +0.000 C 
ENDBRANCH  12  22
ENDBRANCH  11  13
ENDBRANCH  10  11
ENDBRANCH   1  10
BRANCH   9  23
ATOM     23  C   UNL     1       5.362   6.176  17.825  0.00  0.00    +0.000 C 
BRANCH  23  24
ATOM     24  C   UNL     1       5.444   6.049  16.313  0.00  0.00    +0.000 C 
ATOM     25  O   UNL     1       5.131   6.980  15.574  0.00  0.00    +0.000 OA
ATOM     26  N   UNL     1       5.897   4.813  15.868  0.00  0.00    +0.000 N 
ATOM     27  H   UNL     1       5.716   4.019  16.477  0.00  0.00    +0.000 HD
BRANCH  26  28
ATOM     28  C   UNL     1       6.117   4.516  14.505  0.00  0.00    +0.000 A 
ATOM     29  C   UNL     1       7.367   4.829  13.967  0.00  0.00    +0.000 A 
ATOM     30  C   UNL     1       7.658   4.530  12.633  0.00  0.00    +0.000 A 
ATOM     31  C   UNL     1       6.680   3.964  11.814  0.00  0.00    +0.000 A 
ATOM     32  C   UNL     1       5.408   3.694  12.331  0.00  0.00    +0.000 A 
ATOM     33  C   UNL     1       5.134   3.951  13.683  0.00  0.00    +0.000 A 
BRANCH  32  34
ATOM     34  C   UNL     1       4.389   3.164  11.469  0.00  0.00    +0.000 C 
ATOM     35  N   UNL     1       3.574   2.712  10.778  0.00  0.00    +0.000 NA
ENDBRANCH  32  34
ENDBRANCH  26  28
ENDBRANCH  23  24
ENDBRANCH   9  23
TORSDOF 9
ENDMDL
MODEL 8
REMARK VINA RESULT:      -7.1      3.449      6.436
REMARK  Name = 
REMARK  10 active torsions:
REMARK  status: ('A' for Active; 'I' for Inactive)
REMARK    1  A    between atoms: C_1  and  C_2
REMARK    2  A    between atoms: C_2  and  N_3
REMARK    3  A    between atoms: N_3  and  C_29
REMARK    4  A    between atoms: C_4  and  C_6
REMARK    5  A    between atoms: C_6  and  S_7
REMARK    6  A    between atoms: S_7  and  C_8
REMARK    7  A    between atoms: N_16  and  C_17
REMARK    8  A    between atoms: C_17  and  C_18
REMARK    9  A    between atoms: N_20  and  C_21
REMARK   10  A    between atoms: C_25  and  C_26
REMARK                            x       y       z     vdW  Elec       q    Type
REMARK                         _______ _______ _______ _____ _____    ______ ____
ROOT
ATOM      1  C   UNL     1      -0.024  10.030  18.793  0.00  0.00    +0.000 A 
ATOM      2  N   UNL     1      -0.442   9.500  17.667  0.00  0.00    +0.000 NA
ATOM      3  C   UNL     1      -1.635  10.120  17.399  0.00  0.00    +0.000 A 
ATOM      4  C   UNL     1      -2.518   9.930  16.326  0.00  0.00    +0.000 A 
ATOM      5  C   UNL     1      -3.724  10.641  16.297  0.00  0.00    +0.000 A 
ATOM      6  C   UNL     1      -4.042  11.531  17.327  0.00  0.00    +0.000 A 
ATOM      7  C   UNL     1      -3.161  11.760  18.393  0.00  0.00    +0.000 A 
ATOM      8  C   UNL     1      -1.955  11.040  18.396  0.00  0.00    +0.000 A 
ATOM      9  N   UNL     1      -0.865  11.015  19.250  0.00  0.00    +0.000 N 
ENDROOT
BRANCH   1  10
ATOM     10  S   UNL     1       1.414   9.535  19.625  0.00  0.00    +0.000 S 
BRANCH  10  11
ATOM     11  C   UNL     1       2.299   8.650  18.271  0.00  0.00    +0.000 C 
BRANCH  11  13
ATOM     12  N   UNL     1       3.387   6.374  17.913  0.00  0.00    +0.000 N 
ATOM     13  C   UNL     1       2.456   7.164  18.631  0.00  0.00    +0.000 C 
ATOM     14  O   UNL     1       1.804   6.729  19.589  0.00  0.00    +0.000 OA
BRANCH  12  15
ATOM     15  C   UNL     1       3.521   4.951  18.201  0.00  0.00    +0.000 A 
ATOM     16  C   UNL     1       4.388   4.475  19.198  0.00  0.00    +0.000 A 
ATOM     17  C   UNL     1       4.514   3.108  19.475  0.00  0.00    +0.000 A 
ATOM     18  C   UNL     1       3.772   2.176  18.763  0.00  0.00    +0.000 A 
ATOM     19  C   UNL     1       2.893   2.616  17.781  0.00  0.00    +0.000 A 
ATOM     20  C   UNL     1       2.762   3.985  17.514  0.00  0.00    +0.000 A 
ENDBRANCH  12  15
BRANCH  12  22
ATOM     21  C   UNL     1       5.224   5.898  16.240  0.00  0.00    +0.000 C 
ATOM     22  C   UNL     1       4.247   6.906  16.835  0.00  0.00    +0.000 C 
ENDBRANCH  12  22
ENDBRANCH  11  13
ENDBRANCH  10  11
ENDBRANCH   1  10
BRANCH   9  23
ATOM     23  C   UNL     1      -0.736  11.787  20.476  0.00  0.00    +0.000 C 
BRANCH  23  24
ATOM     24  C   UNL     1       0.371  12.826  20.432  0.00  0.00    +0.000 C 
ATOM     25  O   UNL     1       1.116  13.009  21.393  0.00  0.00    +0.000 OA
ATOM     26  N   UNL     1       0.451  13.525  19.234  0.00  0.00    +0.000 N 
ATOM     27  H   UNL     1      -0.413  13.621  18.707  0.00  0.00    +0.000 HD
BRANCH  26  28
ATOM     28  C   UNL     1       1.457  14.479  18.962  0.00  0.00    +0.000 A 
ATOM     29  C   UNL     1       1.096  15.827  18.986  0.00  0.00    +0.000 A 
ATOM     30  C   UNL     1       2.052  16.820  18.758  0.00  0.00    +0.000 A 
ATOM     31  C   UNL     1       3.367  16.468  18.450  0.00  0.00    +0.000 A 
ATOM     32  C   UNL     1       3.727  15.118  18.373  0.00  0.00    +0.000 A 
ATOM     33  C   UNL     1       2.775  14.123  18.650  0.00  0.00    +0.000 A 
BRANCH  32  34
ATOM     34  C   UNL     1       5.066  14.760  18.001  0.00  0.00    +0.000 C 
ATOM     35  N   UNL     1       6.140  14.448  17.690  0.00  0.00    +0.000 NA
ENDBRANCH  32  34
ENDBRANCH  26  28
ENDBRANCH  23  24
ENDBRANCH   9  23
TORSDOF 9
ENDMDL
MODEL 9
REMARK VINA RESULT:      -7.1      1.773      9.202
REMARK  Name = 
REMARK  10 active torsions:
REMARK  status: ('A' for Active; 'I' for Inactive)
REMARK    1  A    between atoms: C_1  and  C_2
REMARK    2  A    between atoms: C_2  and  N_3
REMARK    3  A    between atoms: N_3  and  C_29
REMARK    4  A    between atoms: C_4  and  C_6
REMARK    5  A    between atoms: C_6  and  S_7
REMARK    6  A    between atoms: S_7  and  C_8
REMARK    7  A    between atoms: N_16  and  C_17
REMARK    8  A    between atoms: C_17  and  C_18
REMARK    9  A    between atoms: N_20  and  C_21
REMARK   10  A    between atoms: C_25  and  C_26
REMARK                            x       y       z     vdW  Elec       q    Type
REMARK                         _______ _______ _______ _____ _____    ______ ____
ROOT
ATOM      1  C   UNL     1       2.540   5.987  19.358  0.00  0.00    +0.000 A 
ATOM      2  N   UNL     1       1.513   5.223  19.649  0.00  0.00    +0.000 NA
ATOM      3  C   UNL     1       1.911   3.950  19.337  0.00  0.00    +0.000 A 
ATOM      4  C   UNL     1       1.204   2.742  19.439  0.00  0.00    +0.000 A 
ATOM      5  C   UNL     1       1.801   1.557  18.993  0.00  0.00    +0.000 A 
ATOM      6  C   UNL     1       3.090   1.580  18.452  0.00  0.00    +0.000 A 
ATOM      7  C   UNL     1       3.828   2.768  18.369  0.00  0.00    +0.000 A 
ATOM      8  C   UNL     1       3.209   3.941  18.829  0.00  0.00    +0.000 A 
ATOM      9  N   UNL     1       3.621   5.262  18.917  0.00  0.00    +0.000 N 
ENDROOT
BRANCH   1  10
ATOM     10  S   UNL     1       2.535   7.715  19.491  0.00  0.00    +0.000 S 
BRANCH  10  11
ATOM     11  C   UNL     1       1.155   7.957  20.688  0.00  0.00    +0.000 C 
BRANCH  11  13
ATOM     12  N   UNL     1       0.680  10.440  20.365  0.00  0.00    +0.000 N 
ATOM     13  C   UNL     1       1.157   9.404  21.206  0.00  0.00    +0.000 C 
ATOM     14  O   UNL     1       1.515   9.599  22.375  0.00  0.00    +0.000 OA
BRANCH  12  15
ATOM     15  C   UNL     1       0.716  11.826  20.813  0.00  0.00    +0.000 A 
ATOM     16  C   UNL     1      -0.262  12.353  21.672  0.00  0.00    +0.000 A 
ATOM     17  C   UNL     1      -0.225  13.685  22.104  0.00  0.00    +0.000 A 
ATOM     18  C   UNL     1       0.797  14.529  21.691  0.00  0.00    +0.000 A 
ATOM     19  C   UNL     1       1.789  14.034  20.854  0.00  0.00    +0.000 A 
ATOM     20  C   UNL     1       1.754  12.698  20.433  0.00  0.00    +0.000 A 
ENDBRANCH  12  15
BRANCH  12  22
ATOM     21  C   UNL     1      -1.352  10.401  18.860  0.00  0.00    +0.000 C 
ATOM     22  C   UNL     1       0.153  10.207  19.005  0.00  0.00    +0.000 C 
ENDBRANCH  12  22
ENDBRANCH  11  13
ENDBRANCH  10  11
ENDBRANCH   1  10
BRANCH   9  23
ATOM     23  C   UNL     1       4.907   5.776  18.475  0.00  0.00    +0.000 C 
BRANCH  23  24
ATOM     24  C   UNL     1       5.075   5.795  16.966  0.00  0.00    +0.000 C 
ATOM     25  O   UNL     1       4.612   6.705  16.281  0.00  0.00    +0.000 OA
ATOM     26  N   UNL     1       5.784   4.714  16.456  0.00  0.00    +0.000 N 
ATOM     27  H   UNL     1       5.741   3.852  16.992  0.00  0.00    +0.000 HD
BRANCH  26  28
ATOM     28  C   UNL     1       6.115   4.582  15.089  0.00  0.00    +0.000 A 
ATOM     29  C   UNL     1       7.337   5.105  14.664  0.00  0.00    +0.000 A 
ATOM     30  C   UNL     1       7.737   4.977  13.331  0.00  0.00    +0.000 A 
ATOM     31  C   UNL     1       6.889   4.372  12.402  0.00  0.00    +0.000 A 
ATOM     32  C   UNL     1       5.640   3.891  12.808  0.00  0.00    +0.000 A 
ATOM     33  C   UNL     1       5.262   3.977  14.157  0.00  0.00    +0.000 A 
BRANCH  32  34
ATOM     34  C   UNL     1       4.749   3.321  11.837  0.00  0.00    +0.000 C 
ATOM     35  N   UNL     1       4.022   2.841  11.070  0.00  0.00    +0.000 NA
ENDBRANCH  32  34
ENDBRANCH  26  28
ENDBRANCH  23  24
ENDBRANCH   9  23
TORSDOF 9
ENDMDL
