MODEL 1
REMARK VINA RESULT:      -8.1      0.000      0.000
REMARK  Name = 
REMARK  3 active torsions:
REMARK  status: ('A' for Active; 'I' for Inactive)
REMARK    1  A    between atoms: C_2  and  C_3
REMARK    2  A    between atoms: C_6  and  N_7
REMARK    3  A    between atoms: C_20  and  C_21
REMARK                            x       y       z     vdW  Elec       q    Type
REMARK                         _______ _______ _______ _____ _____    ______ ____
ROOT
ATOM      1  N   UNL     1       3.268   6.461  17.862  0.00  0.00    +0.000 NA
ATOM      2  C   UNL     1       3.253   5.183  18.115  0.00  0.00    +0.000 C 
ATOM      3  C   UNL     1       2.379   4.379  19.025  0.00  0.00    +0.000 A 
ATOM      4  C   UNL     1       1.262   4.678  19.785  0.00  0.00    +0.000 A 
ATOM      5  C   UNL     1       0.760   3.737  20.681  0.00  0.00    +0.000 A 
ATOM      6  C   UNL     1       1.303   2.452  20.718  0.00  0.00    +0.000 A 
ATOM      7  C   UNL     1       2.339   2.098  19.850  0.00  0.00    +0.000 A 
ATOM      8  C   UNL     1       2.871   3.069  19.008  0.00  0.00    +0.000 A 
ATOM      9  C   UNL     1       3.954   2.905  17.978  0.00  0.00    +0.000 C 
ATOM     10  N   UNL     1       4.145   4.283  17.536  0.00  0.00    +0.000 N 
ATOM     11  C   UNL     1       5.115   4.555  16.576  0.00  0.00    +0.000 A 
ATOM     12  C   UNL     1       5.790   5.782  16.561  0.00  0.00    +0.000 A 
ATOM     13  C   UNL     1       6.695   6.089  15.544  0.00  0.00    +0.000 A 
ATOM     14  C   UNL     1       6.907   5.162  14.536  0.00  0.00    +0.000 A 
ATOM     15  C   UNL     1       6.238   3.953  14.624  0.00  0.00    +0.000 A 
ATOM     16  N   UNL     1       5.385   3.622  15.630  0.00  0.00    +0.000 NA
ENDROOT
BRANCH   1  20
ATOM     17  C   UNL     1       0.955   9.251  19.828  0.00  0.00    +0.000 A 
ATOM     18  C   UNL     1       1.130   9.378  18.453  0.00  0.00    +0.000 A 
ATOM     19  C   UNL     1       1.901   8.433  17.777  0.00  0.00    +0.000 A 
ATOM     20  C   UNL     1       2.505   7.420  18.506  0.00  0.00    +0.000 A 
ATOM     21  N   UNL     1       2.452   7.380  19.847  0.00  0.00    +0.000 NA
ATOM     22  C   UNL     1       1.616   8.230  20.474  0.00  0.00    +0.000 A 
BRANCH  17  24
ATOM     23  N   UNL     1      -0.542  10.880  21.159  0.00  0.00    +0.000 NA
ATOM     24  C   UNL     1       0.141  10.145  20.572  0.00  0.00    +0.000 C 
ENDBRANCH  17  24
ENDBRANCH   1  20
BRANCH  14  25
ATOM     25  C   UNL     1       7.776   5.447  13.442  0.00  0.00    +0.000 C 
ATOM     26  N   UNL     1       8.480   5.692  12.554  0.00  0.00    +0.000 NA
ENDBRANCH  14  25
TORSDOF 3
ENDMDL
MODEL 2
REMARK VINA RESULT:      -7.4      3.911     10.549
REMARK  Name = 
REMARK  3 active torsions:
REMARK  status: ('A' for Active; 'I' for Inactive)
REMARK    1  A    between atoms: C_2  and  C_3
REMARK    2  A    between atoms: C_6  and  N_7
REMARK    3  A    between atoms: C_20  and  C_21
REMARK                            x       y       z     vdW  Elec       q    Type
REMARK                         _______ _______ _______ _____ _____    ______ ____
ROOT
ATOM      1  N   UNL     1      -0.395  11.035  20.127  0.00  0.00    +0.000 NA
ATOM      2  C   UNL     1      -1.527  11.366  19.574  0.00  0.00    +0.000 C 
ATOM      3  C   UNL     1      -2.197  10.854  18.338  0.00  0.00    +0.000 A 
ATOM      4  C   UNL     1      -1.919   9.819  17.463  0.00  0.00    +0.000 A 
ATOM      5  C   UNL     1      -2.649   9.694  16.282  0.00  0.00    +0.000 A 
ATOM      6  C   UNL     1      -3.739  10.531  16.046  0.00  0.00    +0.000 A 
ATOM      7  C   UNL     1      -4.114  11.487  16.994  0.00  0.00    +0.000 A 
ATOM      8  C   UNL     1      -3.336  11.641  18.136  0.00  0.00    +0.000 A 
ATOM      9  C   UNL     1      -3.569  12.572  19.294  0.00  0.00    +0.000 C 
ATOM     10  N   UNL     1      -2.362  12.358  20.086  0.00  0.00    +0.000 N 
ATOM     11  C   UNL     1      -2.188  13.084  21.260  0.00  0.00    +0.000 A 
ATOM     12  C   UNL     1      -0.908  13.432  21.709  0.00  0.00    +0.000 A 
ATOM     13  C   UNL     1      -0.730  14.080  22.932  0.00  0.00    +0.000 A 
ATOM     14  C   UNL     1      -1.843  14.364  23.707  0.00  0.00    +0.000 A 
ATOM     15  C   UNL     1      -3.085  14.027  23.193  0.00  0.00    +0.000 A 
ATOM     16  N   UNL     1      -3.278  13.433  21.986  0.00  0.00    +0.000 NA
ENDROOT
BRANCH   1  20
ATOM     17  C   UNL     1       2.345   8.447  18.457  0.00  0.00    +0.000 A 
ATOM     18  C   UNL     1       1.790   8.126  19.692  0.00  0.00    +0.000 A 
ATOM     19  C   UNL     1       0.853   8.989  20.260  0.00  0.00    +0.000 A 
ATOM     20  C   UNL     1       0.539  10.163  19.594  0.00  0.00    +0.000 A 
ATOM     21  N   UNL     1       1.178  10.539  18.474  0.00  0.00    +0.000 NA
ATOM     22  C   UNL     1       1.995   9.649  17.881  0.00  0.00    +0.000 A 
BRANCH  17  24
ATOM     23  N   UNL     1       4.039   6.904  17.265  0.00  0.00    +0.000 NA
ATOM     24  C   UNL     1       3.264   7.591  17.795  0.00  0.00    +0.000 C 
ENDBRANCH  17  24
ENDBRANCH   1  20
BRANCH  14  25
ATOM     25  C   UNL     1      -1.715  14.972  24.990  0.00  0.00    +0.000 C 
ATOM     26  N   UNL     1      -1.600  15.458  26.036  0.00  0.00    +0.000 NA
ENDBRANCH  14  25
TORSDOF 3
ENDMDL
MODEL 3
REMARK VINA RESULT:      -7.3      1.526      7.058
REMARK  Name = 
REMARK  3 active torsions:
REMARK  status: ('A' for Active; 'I' for Inactive)
REMARK    1  A    between atoms: C_2  and  C_3
REMARK    2  A    between atoms: C_6  and  N_7
REMARK    3  A    between atoms: C_20  and  C_21
REMARK                            x       y       z     vdW  Elec       q    Type
REMARK                         _______ _______ _______ _____ _____    ______ ____
ROOT
ATOM      1  N   UNL     1       3.536   7.057  18.334  0.00  0.00    +0.000 NA
ATOM      2  C   UNL     1       2.945   6.435  19.315  0.00  0.00    +0.000 C 
ATOM      3  C   UNL     1       3.116   5.041  19.830  0.00  0.00    +0.000 A 
ATOM      4  C   UNL     1       4.000   4.017  19.536  0.00  0.00    +0.000 A 
ATOM      5  C   UNL     1       3.794   2.748  20.073  0.00  0.00    +0.000 A 
ATOM      6  C   UNL     1       2.778   2.543  21.006  0.00  0.00    +0.000 A 
ATOM      7  C   UNL     1       1.970   3.607  21.416  0.00  0.00    +0.000 A 
ATOM      8  C   UNL     1       2.147   4.852  20.821  0.00  0.00    +0.000 A 
ATOM      9  C   UNL     1       1.423   6.134  21.130  0.00  0.00    +0.000 C 
ATOM     10  N   UNL     1       1.955   7.021  20.101  0.00  0.00    +0.000 N 
ATOM     11  C   UNL     1       1.493   8.333  20.036  0.00  0.00    +0.000 A 
ATOM     12  C   UNL     1       1.425   9.014  18.815  0.00  0.00    +0.000 A 
ATOM     13  C   UNL     1       1.049  10.356  18.764  0.00  0.00    +0.000 A 
ATOM     14  C   UNL     1       0.755  11.014  19.948  0.00  0.00    +0.000 A 
ATOM     15  C   UNL     1       0.805  10.278  21.120  0.00  0.00    +0.000 A 
ATOM     16  N   UNL     1       1.129   8.959  21.182  0.00  0.00    +0.000 NA
ENDROOT
BRANCH   1  20
ATOM     17  C   UNL     1       6.191   5.446  15.622  0.00  0.00    +0.000 A 
ATOM     18  C   UNL     1       4.946   4.842  15.778  0.00  0.00    +0.000 A 
ATOM     19  C   UNL     1       4.037   5.386  16.685  0.00  0.00    +0.000 A 
ATOM     20  C   UNL     1       4.420   6.488  17.434  0.00  0.00    +0.000 A 
ATOM     21  N   UNL     1       5.668   6.982  17.385  0.00  0.00    +0.000 NA
ATOM     22  C   UNL     1       6.496   6.520  16.430  0.00  0.00    +0.000 A 
BRANCH  17  24
ATOM     23  N   UNL     1       7.927   4.622  13.898  0.00  0.00    +0.000 NA
ATOM     24  C   UNL     1       7.146   4.979  14.681  0.00  0.00    +0.000 C 
ENDBRANCH  17  24
ENDBRANCH   1  20
BRANCH  14  25
ATOM     25  C   UNL     1       0.421  12.400  19.959  0.00  0.00    +0.000 C 
ATOM     26  N   UNL     1       0.159  13.529  19.958  0.00  0.00    +0.000 NA
ENDBRANCH  14  25
TORSDOF 3
ENDMDL
MODEL 4
REMARK VINA RESULT:      -7.2      1.417      7.086
REMARK  Name = 
REMARK  3 active torsions:
REMARK  status: ('A' for Active; 'I' for Inactive)
REMARK    1  A    between atoms: C_2  and  C_3
REMARK    2  A    between atoms: C_6  and  N_7
REMARK    3  A    between atoms: C_20  and  C_21
REMARK                            x       y       z     vdW  Elec       q    Type
REMARK                         _______ _______ _______ _____ _____    ______ ____
ROOT
ATOM      1  N   UNL     1       3.749   6.836  18.462  0.00  0.00    +0.000 NA
ATOM      2  C   UNL     1       3.043   5.991  19.158  0.00  0.00    +0.000 C 
ATOM      3  C   UNL     1       3.121   4.500  19.254  0.00  0.00    +0.000 A 
ATOM      4  C   UNL     1       4.003   3.558  18.756  0.00  0.00    +0.000 A 
ATOM      5  C   UNL     1       3.709   2.201  18.875  0.00  0.00    +0.000 A 
ATOM      6  C   UNL     1       2.594   1.792  19.608  0.00  0.00    +0.000 A 
ATOM      7  C   UNL     1       1.777   2.736  20.236  0.00  0.00    +0.000 A 
ATOM      8  C   UNL     1       2.048   4.087  20.052  0.00  0.00    +0.000 A 
ATOM      9  C   UNL     1       1.331   5.264  20.655  0.00  0.00    +0.000 C 
ATOM     10  N   UNL     1       1.991   6.380  19.986  0.00  0.00    +0.000 N 
ATOM     11  C   UNL     1       1.573   7.677  20.267  0.00  0.00    +0.000 A 
ATOM     12  C   UNL     1       1.653   8.685  19.299  0.00  0.00    +0.000 A 
ATOM     13  C   UNL     1       1.320  10.004  19.609  0.00  0.00    +0.000 A 
ATOM     14  C   UNL     1       0.920  10.306  20.901  0.00  0.00    +0.000 A 
ATOM     15  C   UNL     1       0.827   9.261  21.805  0.00  0.00    +0.000 A 
ATOM     16  N   UNL     1       1.107   7.965  21.507  0.00  0.00    +0.000 NA
ENDROOT
BRANCH   1  20
ATOM     17  C   UNL     1       6.548   5.782  15.625  0.00  0.00    +0.000 A 
ATOM     18  C   UNL     1       6.969   5.978  16.937  0.00  0.00    +0.000 A 
ATOM     19  C   UNL     1       6.027   6.323  17.907  0.00  0.00    +0.000 A 
ATOM     20  C   UNL     1       4.708   6.504  17.521  0.00  0.00    +0.000 A 
ATOM     21  N   UNL     1       4.330   6.453  16.234  0.00  0.00    +0.000 NA
ATOM     22  C   UNL     1       5.222   6.011  15.327  0.00  0.00    +0.000 A 
BRANCH  17  24
ATOM     23  N   UNL     1       8.163   5.070  13.740  0.00  0.00    +0.000 NA
ATOM     24  C   UNL     1       7.441   5.378  14.597  0.00  0.00    +0.000 C 
ENDBRANCH  17  24
ENDBRANCH   1  20
BRANCH  14  25
ATOM     25  C   UNL     1       0.623  11.646  21.288  0.00  0.00    +0.000 C 
ATOM     26  N   UNL     1       0.393  12.740  21.595  0.00  0.00    +0.000 NA
ENDBRANCH  14  25
TORSDOF 3
ENDMDL
MODEL 5
REMARK VINA RESULT:      -6.7      5.213     10.382
REMARK  Name = 
REMARK  3 active torsions:
REMARK  status: ('A' for Active; 'I' for Inactive)
REMARK    1  A    between atoms: C_2  and  C_3
REMARK    2  A    between atoms: C_6  and  N_7
REMARK    3  A    between atoms: C_20  and  C_21
REMARK                            x       y       z     vdW  Elec       q    Type
REMARK                         _______ _______ _______ _____ _____    ______ ____
ROOT
ATOM      1  N   UNL     1      -2.181  12.729  20.784  0.00  0.00    +0.000 NA
ATOM      2  C   UNL     1      -1.578  13.754  20.253  0.00  0.00    +0.000 C 
ATOM      3  C   UNL     1      -1.818  15.222  20.419  0.00  0.00    +0.000 A 
ATOM      4  C   UNL     1      -2.645  15.966  21.243  0.00  0.00    +0.000 A 
ATOM      5  C   UNL     1      -2.773  17.338  21.040  0.00  0.00    +0.000 A 
ATOM      6  C   UNL     1      -1.974  17.980  20.094  0.00  0.00    +0.000 A 
ATOM      7  C   UNL     1      -1.033  17.256  19.357  0.00  0.00    +0.000 A 
ATOM      8  C   UNL     1      -0.964  15.877  19.526  0.00  0.00    +0.000 A 
ATOM      9  C   UNL     1      -0.014  14.913  18.871  0.00  0.00    +0.000 C 
ATOM     10  N   UNL     1      -0.525  13.632  19.348  0.00  0.00    +0.000 N 
ATOM     11  C   UNL     1       0.092  12.459  18.925  0.00  0.00    +0.000 A 
ATOM     12  C   UNL     1      -0.636  11.272  18.783  0.00  0.00    +0.000 A 
ATOM     13  C   UNL     1       0.001  10.077  18.447  0.00  0.00    +0.000 A 
ATOM     14  C   UNL     1       1.375  10.079  18.269  0.00  0.00    +0.000 A 
ATOM     15  C   UNL     1       2.035  11.290  18.388  0.00  0.00    +0.000 A 
ATOM     16  N   UNL     1       1.424  12.470  18.673  0.00  0.00    +0.000 NA
ENDROOT
BRANCH   1  20
ATOM     17  C   UNL     1      -5.591  12.954  23.091  0.00  0.00    +0.000 A 
ATOM     18  C   UNL     1      -4.362  12.811  23.728  0.00  0.00    +0.000 A 
ATOM     19  C   UNL     1      -3.201  12.746  22.957  0.00  0.00    +0.000 A 
ATOM     20  C   UNL     1      -3.316  12.781  21.576  0.00  0.00    +0.000 A 
ATOM     21  N   UNL     1      -4.509  12.777  20.960  0.00  0.00    +0.000 NA
ATOM     22  C   UNL     1      -5.612  12.952  21.713  0.00  0.00    +0.000 A 
BRANCH  17  24
ATOM     23  N   UNL     1      -7.810  13.156  24.396  0.00  0.00    +0.000 NA
ATOM     24  C   UNL     1      -6.807  13.080  23.812  0.00  0.00    +0.000 C 
ENDBRANCH  17  24
ENDBRANCH   1  20
BRANCH  14  25
ATOM     25  C   UNL     1       2.084   8.876  17.982  0.00  0.00    +0.000 C 
ATOM     26  N   UNL     1       2.658   7.893  17.762  0.00  0.00    +0.000 NA
ENDBRANCH  14  25
TORSDOF 3
ENDMDL
MODEL 6
REMARK VINA RESULT:      -6.6      4.695     11.930
REMARK  Name = 
REMARK  3 active torsions:
REMARK  status: ('A' for Active; 'I' for Inactive)
REMARK    1  A    between atoms: C_2  and  C_3
REMARK    2  A    between atoms: C_6  and  N_7
REMARK    3  A    between atoms: C_20  and  C_21
REMARK                            x       y       z     vdW  Elec       q    Type
REMARK                         _______ _______ _______ _____ _____    ______ ____
ROOT
ATOM      1  N   UNL     1      -0.971  11.612  21.804  0.00  0.00    +0.000 NA
ATOM      2  C   UNL     1      -0.608  12.858  21.919  0.00  0.00    +0.000 C 
ATOM      3  C   UNL     1       0.663  13.545  21.529  0.00  0.00    +0.000 A 
ATOM      4  C   UNL     1       1.791  13.140  20.835  0.00  0.00    +0.000 A 
ATOM      5  C   UNL     1       2.906  13.975  20.778  0.00  0.00    +0.000 A 
ATOM      6  C   UNL     1       2.839  15.264  21.307  0.00  0.00    +0.000 A 
ATOM      7  C   UNL     1       1.654  15.730  21.882  0.00  0.00    +0.000 A 
ATOM      8  C   UNL     1       0.572  14.862  21.989  0.00  0.00    +0.000 A 
ATOM      9  C   UNL     1      -0.798  15.157  22.535  0.00  0.00    +0.000 C 
ATOM     10  N   UNL     1      -1.416  13.836  22.497  0.00  0.00    +0.000 N 
ATOM     11  C   UNL     1      -2.719  13.687  22.962  0.00  0.00    +0.000 A 
ATOM     12  C   UNL     1      -3.143  12.487  23.545  0.00  0.00    +0.000 A 
ATOM     13  C   UNL     1      -4.473  12.307  23.928  0.00  0.00    +0.000 A 
ATOM     14  C   UNL     1      -5.376  13.335  23.707  0.00  0.00    +0.000 A 
ATOM     15  C   UNL     1      -4.890  14.510  23.160  0.00  0.00    +0.000 A 
ATOM     16  N   UNL     1      -3.590  14.716  22.820  0.00  0.00    +0.000 NA
ENDROOT
BRANCH   1  20
ATOM     17  C   UNL     1       1.363   8.493  20.456  0.00  0.00    +0.000 A 
ATOM     18  C   UNL     1       1.289   8.728  21.826  0.00  0.00    +0.000 A 
ATOM     19  C   UNL     1       0.492   9.773  22.293  0.00  0.00    +0.000 A 
ATOM     20  C   UNL     1      -0.165  10.574  21.371  0.00  0.00    +0.000 A 
ATOM     21  N   UNL     1       0.020  10.435  20.049  0.00  0.00    +0.000 NA
ATOM     22  C   UNL     1       0.699   9.357  19.613  0.00  0.00    +0.000 A 
BRANCH  17  24
ATOM     23  N   UNL     1       2.748   6.550  19.469  0.00  0.00    +0.000 NA
ATOM     24  C   UNL     1       2.111   7.416  19.913  0.00  0.00    +0.000 C 
ENDBRANCH  17  24
ENDBRANCH   1  20
BRANCH  14  25
ATOM     25  C   UNL     1      -6.758  13.184  24.025  0.00  0.00    +0.000 C 
ATOM     26  N   UNL     1      -7.882  13.075  24.288  0.00  0.00    +0.000 NA
ENDBRANCH  14  25
TORSDOF 3
ENDMDL
MODEL 7
REMARK VINA RESULT:      -6.5      8.987     11.546
REMARK  Name = 
REMARK  3 active torsions:
REMARK  status: ('A' for Active; 'I' for Inactive)
REMARK    1  A    between atoms: C_2  and  C_3
REMARK    2  A    between atoms: C_6  and  N_7
REMARK    3  A    between atoms: C_20  and  C_21
REMARK                            x       y       z     vdW  Elec       q    Type
REMARK                         _______ _______ _______ _____ _____    ______ ____
ROOT
ATOM      1  N   UNL     1      -3.318  13.445  20.886  0.00  0.00    +0.000 NA
ATOM      2  C   UNL     1      -4.577  13.124  20.987  0.00  0.00    +0.000 C 
ATOM      3  C   UNL     1      -5.592  13.470  22.031  0.00  0.00    +0.000 A 
ATOM      4  C   UNL     1      -5.578  14.306  23.134  0.00  0.00    +0.000 A 
ATOM      5  C   UNL     1      -6.643  14.286  24.033  0.00  0.00    +0.000 A 
ATOM      6  C   UNL     1      -7.776  13.522  23.753  0.00  0.00    +0.000 A 
ATOM      7  C   UNL     1      -7.856  12.785  22.568  0.00  0.00    +0.000 A 
ATOM      8  C   UNL     1      -6.758  12.765  21.715  0.00  0.00    +0.000 A 
ATOM      9  C   UNL     1      -6.636  12.077  20.383  0.00  0.00    +0.000 C 
ATOM     10  N   UNL     1      -5.233  12.317  20.060  0.00  0.00    +0.000 N 
ATOM     11  C   UNL     1      -4.714  11.796  18.878  0.00  0.00    +0.000 A 
ATOM     12  C   UNL     1      -3.369  11.419  18.787  0.00  0.00    +0.000 A 
ATOM     13  C   UNL     1      -2.829  10.982  17.577  0.00  0.00    +0.000 A 
ATOM     14  C   UNL     1      -3.643  10.941  16.457  0.00  0.00    +0.000 A 
ATOM     15  C   UNL     1      -4.973  11.292  16.618  0.00  0.00    +0.000 A 
ATOM     16  N   UNL     1      -5.525  11.679  17.798  0.00  0.00    +0.000 NA
ENDROOT
BRANCH   1  20
ATOM     17  C   UNL     1      -1.073  15.506  23.662  0.00  0.00    +0.000 A 
ATOM     18  C   UNL     1      -1.254  14.136  23.833  0.00  0.00    +0.000 A 
ATOM     19  C   UNL     1      -2.002  13.428  22.893  0.00  0.00    +0.000 A 
ATOM     20  C   UNL     1      -2.579  14.122  21.841  0.00  0.00    +0.000 A 
ATOM     21  N   UNL     1      -2.523  15.460  21.755  0.00  0.00    +0.000 NA
ATOM     22  C   UNL     1      -1.707  16.117  22.602  0.00  0.00    +0.000 A 
BRANCH  17  24
ATOM     23  N   UNL     1       0.369  16.936  25.256  0.00  0.00    +0.000 NA
ATOM     24  C   UNL     1      -0.281  16.281  24.550  0.00  0.00    +0.000 C 
ENDBRANCH  17  24
ENDBRANCH   1  20
BRANCH  14  25
ATOM     25  C   UNL     1      -3.129  10.558  15.184  0.00  0.00    +0.000 C 
ATOM     26  N   UNL     1      -2.725  10.247  14.142  0.00  0.00    +0.000 NA
ENDBRANCH  14  25
TORSDOF 3
ENDMDL
MODEL 8
REMARK VINA RESULT:      -6.5      3.763      9.488
REMARK  Name = 
REMARK  3 active torsions:
REMARK  status: ('A' for Active; 'I' for Inactive)
REMARK    1  A    between atoms: C_2  and  C_3
REMARK    2  A    between atoms: C_6  and  N_7
REMARK    3  A    between atoms: C_20  and  C_21
REMARK                            x       y       z     vdW  Elec       q    Type
REMARK                         _______ _______ _______ _____ _____    ______ ____
ROOT
ATOM      1  N   UNL     1       1.169  11.000  19.733  0.00  0.00    +0.000 NA
ATOM      2  C   UNL     1       0.002  11.547  19.542  0.00  0.00    +0.000 C 
ATOM      3  C   UNL     1      -1.244  10.997  18.921  0.00  0.00    +0.000 A 
ATOM      4  C   UNL     1      -1.609   9.742  18.465  0.00  0.00    +0.000 A 
ATOM      5  C   UNL     1      -2.803   9.578  17.766  0.00  0.00    +0.000 A 
ATOM      6  C   UNL     1      -3.688  10.649  17.640  0.00  0.00    +0.000 A 
ATOM      7  C   UNL     1      -3.391  11.884  18.222  0.00  0.00    +0.000 A 
ATOM      8  C   UNL     1      -2.165  12.048  18.860  0.00  0.00    +0.000 A 
ATOM      9  C   UNL     1      -1.655  13.265  19.580  0.00  0.00    +0.000 C 
ATOM     10  N   UNL     1      -0.291  12.860  19.904  0.00  0.00    +0.000 N 
ATOM     11  C   UNL     1       0.539  13.757  20.569  0.00  0.00    +0.000 A 
ATOM     12  C   UNL     1       1.924  13.747  20.362  0.00  0.00    +0.000 A 
ATOM     13  C   UNL     1       2.764  14.585  21.097  0.00  0.00    +0.000 A 
ATOM     14  C   UNL     1       2.206  15.421  22.050  0.00  0.00    +0.000 A 
ATOM     15  C   UNL     1       0.828  15.412  22.185  0.00  0.00    +0.000 A 
ATOM     16  N   UNL     1      -0.008  14.633  21.448  0.00  0.00    +0.000 NA
ENDROOT
BRANCH   1  20
ATOM     17  C   UNL     1       2.390   7.282  18.436  0.00  0.00    +0.000 A 
ATOM     18  C   UNL     1       2.367   8.333  17.524  0.00  0.00    +0.000 A 
ATOM     19  C   UNL     1       1.967   9.598  17.956  0.00  0.00    +0.000 A 
ATOM     20  C   UNL     1       1.562   9.755  19.272  0.00  0.00    +0.000 A 
ATOM     21  N   UNL     1       1.449   8.714  20.112  0.00  0.00    +0.000 NA
ATOM     22  C   UNL     1       1.943   7.524  19.717  0.00  0.00    +0.000 A 
BRANCH  17  24
ATOM     23  N   UNL     1       3.221   4.919  17.810  0.00  0.00    +0.000 NA
ATOM     24  C   UNL     1       2.836   5.982  18.080  0.00  0.00    +0.000 C 
ENDBRANCH  17  24
ENDBRANCH   1  20
BRANCH  14  25
ATOM     25  C   UNL     1       3.023  16.255  22.869  0.00  0.00    +0.000 C 
ATOM     26  N   UNL     1       3.687  16.923  23.545  0.00  0.00    +0.000 NA
ENDBRANCH  14  25
TORSDOF 3
ENDMDL
MODEL 9
REMARK VINA RESULT:      -6.5      6.959     11.526
REMARK  Name = 
REMARK  3 active torsions:
REMARK  status: ('A' for Active; 'I' for Inactive)
REMARK    1  A    between atoms: C_2  and  C_3
REMARK    2  A    between atoms: C_6  and  N_7
REMARK    3  A    between atoms: C_20  and  C_21
REMARK                            x       y       z     vdW  Elec       q    Type
REMARK                         _______ _______ _______ _____ _____    ______ ____
ROOT
ATOM      1  N   UNL     1      -2.801  12.274  20.005  0.00  0.00    +0.000 NA
ATOM      2  C   UNL     1      -2.053  11.863  20.989  0.00  0.00    +0.000 C 
ATOM      3  C   UNL     1      -0.973  10.828  21.027  0.00  0.00    +0.000 A 
ATOM      4  C   UNL     1      -0.342  10.072  20.055  0.00  0.00    +0.000 A 
ATOM      5  C   UNL     1       0.525   9.047  20.427  0.00  0.00    +0.000 A 
ATOM      6  C   UNL     1       0.856   8.868  21.770  0.00  0.00    +0.000 A 
ATOM      7  C   UNL     1       0.334   9.722  22.746  0.00  0.00    +0.000 A 
ATOM      8  C   UNL     1      -0.581  10.698  22.364  0.00  0.00    +0.000 A 
ATOM      9  C   UNL     1      -1.237  11.738  23.230  0.00  0.00    +0.000 C 
ATOM     10  N   UNL     1      -2.165  12.355  22.288  0.00  0.00    +0.000 N 
ATOM     11  C   UNL     1      -2.999  13.377  22.734  0.00  0.00    +0.000 A 
ATOM     12  C   UNL     1      -4.266  13.570  22.171  0.00  0.00    +0.000 A 
ATOM     13  C   UNL     1      -5.063  14.649  22.555  0.00  0.00    +0.000 A 
ATOM     14  C   UNL     1      -4.573  15.540  23.496  0.00  0.00    +0.000 A 
ATOM     15  C   UNL     1      -3.329  15.276  24.043  0.00  0.00    +0.000 A 
ATOM     16  N   UNL     1      -2.558  14.207  23.711  0.00  0.00    +0.000 NA
ENDROOT
BRANCH   1  20
ATOM     17  C   UNL     1      -2.885  10.733  16.182  0.00  0.00    +0.000 A 
ATOM     18  C   UNL     1      -3.849  10.311  17.094  0.00  0.00    +0.000 A 
ATOM     19  C   UNL     1      -3.836  10.836  18.386  0.00  0.00    +0.000 A 
ATOM     20  C   UNL     1      -2.834  11.729  18.734  0.00  0.00    +0.000 A 
ATOM     21  N   UNL     1      -1.825  12.025  17.900  0.00  0.00    +0.000 NA
ATOM     22  C   UNL     1      -1.910  11.601  16.624  0.00  0.00    +0.000 A 
BRANCH  17  24
ATOM     23  N   UNL     1      -2.829   9.926  13.730  0.00  0.00    +0.000 NA
ATOM     24  C   UNL     1      -2.868  10.282  14.837  0.00  0.00    +0.000 C 
ENDBRANCH  17  24
ENDBRANCH   1  20
BRANCH  14  25
ATOM     25  C   UNL     1      -5.321  16.691  23.883  0.00  0.00    +0.000 C 
ATOM     26  N   UNL     1      -5.941  17.619  24.198  0.00  0.00    +0.000 NA
ENDBRANCH  14  25
TORSDOF 3
ENDMDL
