MODEL 1
REMARK VINA RESULT:      -8.3      0.000      0.000
REMARK  Name = 
REMARK  5 active torsions:
REMARK  status: ('A' for Active; 'I' for Inactive)
REMARK    1  A    between atoms: C_1  and  C_2
REMARK    2  A    between atoms: C_5  and  N_6
REMARK    3  A    between atoms: N_6  and  C_7
REMARK    4  A    between atoms: C_7  and  C_8
REMARK    5  A    between atoms: C_7  and  C_9
REMARK                            x       y       z     vdW  Elec       q    Type
REMARK                         _______ _______ _______ _____ _____    ______ ____
ROOT
ATOM      1  C   UNL     1       6.364   3.751  12.924  0.00  0.00    +0.000 C 
ATOM      2  C   UNL     1       6.491   4.210  14.335  0.00  0.00    +0.000 A 
ATOM      3  C   UNL     1       5.987   3.583  15.418  0.00  0.00    +0.000 A 
ATOM      4  C   UNL     1       6.349   4.403  16.528  0.00  0.00    +0.000 A 
ATOM      5  C   UNL     1       6.130   4.401  17.851  0.00  0.00    +0.000 A 
ATOM      6  N   UNL     1       6.649   5.472  18.544  0.00  0.00    +0.000 N 
ATOM      7  C   UNL     1       7.370   6.455  17.917  0.00  0.00    +0.000 A 
ATOM      8  N   UNL     1       7.619   6.535  16.651  0.00  0.00    +0.000 NA
ATOM      9  C   UNL     1       7.097   5.517  15.904  0.00  0.00    +0.000 A 
ATOM     10  N   UNL     1       7.180   5.393  14.607  0.00  0.00    +0.000 NA
ATOM     11  H   UNL     1       6.590   5.444  19.551  0.00  0.00    +0.000 HD
ENDROOT
BRANCH   5  12
ATOM     12  N   UNL     1       5.367   3.431  18.480  0.00  0.00    +0.000 N 
ATOM     13  H   UNL     1       5.874   2.554  18.536  0.00  0.00    +0.000 HD
BRANCH  12  14
ATOM     14  C   UNL     1       3.957   3.198  18.150  0.00  0.00    +0.000 C 
ATOM     15  C   UNL     1       3.634   1.703  18.245  0.00  0.00    +0.000 C 
BRANCH  14  16
ATOM     16  C   UNL     1       3.082   4.005  19.097  0.00  0.00    +0.000 A 
ATOM     17  C   UNL     1       3.029   5.402  18.983  0.00  0.00    +0.000 A 
ATOM     18  C   UNL     1       2.215   6.159  19.831  0.00  0.00    +0.000 A 
ATOM     19  C   UNL     1       1.445   5.528  20.807  0.00  0.00    +0.000 A 
ATOM     20  C   UNL     1       1.490   4.143  20.938  0.00  0.00    +0.000 A 
ATOM     21  C   UNL     1       2.302   3.387  20.090  0.00  0.00    +0.000 A 
ENDBRANCH  14  16
ENDBRANCH  12  14
ENDBRANCH   5  12
TORSDOF 3
ENDMDL
MODEL 2
REMARK VINA RESULT:      -8.2      0.393      1.174
REMARK  Name = 
REMARK  5 active torsions:
REMARK  status: ('A' for Active; 'I' for Inactive)
REMARK    1  A    between atoms: C_1  and  C_2
REMARK    2  A    between atoms: C_5  and  N_6
REMARK    3  A    between atoms: N_6  and  C_7
REMARK    4  A    between atoms: C_7  and  C_8
REMARK    5  A    between atoms: C_7  and  C_9
REMARK                            x       y       z     vdW  Elec       q    Type
REMARK                         _______ _______ _______ _____ _____    ______ ____
ROOT
ATOM      1  C   UNL     1       6.263   3.602  12.592  0.00  0.00    +0.000 C 
ATOM      2  C   UNL     1       6.382   4.092  13.994  0.00  0.00    +0.000 A 
ATOM      3  C   UNL     1       5.823   3.521  15.080  0.00  0.00    +0.000 A 
ATOM      4  C   UNL     1       6.203   4.351  16.177  0.00  0.00    +0.000 A 
ATOM      5  C   UNL     1       5.955   4.396  17.494  0.00  0.00    +0.000 A 
ATOM      6  N   UNL     1       6.514   5.457  18.172  0.00  0.00    +0.000 N 
ATOM      7  C   UNL     1       7.298   6.385  17.536  0.00  0.00    +0.000 A 
ATOM      8  N   UNL     1       7.578   6.419  16.274  0.00  0.00    +0.000 NA
ATOM      9  C   UNL     1       7.020   5.409  15.542  0.00  0.00    +0.000 A 
ATOM     10  N   UNL     1       7.125   5.246  14.251  0.00  0.00    +0.000 NA
ATOM     11  H   UNL     1       6.432   5.459  19.177  0.00  0.00    +0.000 HD
ENDROOT
BRANCH   5  12
ATOM     12  N   UNL     1       5.130   3.483  18.130  0.00  0.00    +0.000 N 
ATOM     13  H   UNL     1       5.556   2.562  18.145  0.00  0.00    +0.000 HD
BRANCH  12  14
ATOM     14  C   UNL     1       3.693   3.389  17.852  0.00  0.00    +0.000 C 
ATOM     15  C   UNL     1       3.234   1.930  17.942  0.00  0.00    +0.000 C 
BRANCH  14  16
ATOM     16  C   UNL     1       2.935   4.261  18.841  0.00  0.00    +0.000 A 
ATOM     17  C   UNL     1       2.185   3.667  19.867  0.00  0.00    +0.000 A 
ATOM     18  C   UNL     1       1.498   4.453  20.797  0.00  0.00    +0.000 A 
ATOM     19  C   UNL     1       1.549   5.843  20.711  0.00  0.00    +0.000 A 
ATOM     20  C   UNL     1       2.284   6.449  19.696  0.00  0.00    +0.000 A 
ATOM     21  C   UNL     1       2.971   5.664  18.768  0.00  0.00    +0.000 A 
ENDBRANCH  14  16
ENDBRANCH  12  14
ENDBRANCH   5  12
TORSDOF 3
ENDMDL
MODEL 3
REMARK VINA RESULT:      -8.2      1.533      2.488
REMARK  Name = 
REMARK  5 active torsions:
REMARK  status: ('A' for Active; 'I' for Inactive)
REMARK    1  A    between atoms: C_1  and  C_2
REMARK    2  A    between atoms: C_5  and  N_6
REMARK    3  A    between atoms: N_6  and  C_7
REMARK    4  A    between atoms: C_7  and  C_8
REMARK    5  A    between atoms: C_7  and  C_9
REMARK                            x       y       z     vdW  Elec       q    Type
REMARK                         _______ _______ _______ _____ _____    ______ ____
ROOT
ATOM      1  C   UNL     1       6.663   4.236  13.327  0.00  0.00    +0.000 C 
ATOM      2  C   UNL     1       6.514   4.587  14.767  0.00  0.00    +0.000 A 
ATOM      3  C   UNL     1       5.424   5.139  15.337  0.00  0.00    +0.000 A 
ATOM      4  C   UNL     1       5.761   5.300  16.714  0.00  0.00    +0.000 A 
ATOM      5  C   UNL     1       5.179   5.821  17.804  0.00  0.00    +0.000 A 
ATOM      6  N   UNL     1       5.939   5.807  18.953  0.00  0.00    +0.000 N 
ATOM      7  C   UNL     1       7.198   5.263  18.977  0.00  0.00    +0.000 A 
ATOM      8  N   UNL     1       7.832   4.750  17.974  0.00  0.00    +0.000 NA
ATOM      9  C   UNL     1       7.140   4.769  16.796  0.00  0.00    +0.000 A 
ATOM     10  N   UNL     1       7.577   4.346  15.640  0.00  0.00    +0.000 NA
ATOM     11  H   UNL     1       5.490   6.096  19.808  0.00  0.00    +0.000 HD
ENDROOT
BRANCH   5  12
ATOM     12  N   UNL     1       3.924   6.407  17.771  0.00  0.00    +0.000 N 
ATOM     13  H   UNL     1       3.941   7.266  17.232  0.00  0.00    +0.000 HD
BRANCH  12  14
ATOM     14  C   UNL     1       3.093   6.561  18.971  0.00  0.00    +0.000 C 
ATOM     15  C   UNL     1       2.152   7.759  18.808  0.00  0.00    +0.000 C 
BRANCH  14  16
ATOM     16  C   UNL     1       2.308   5.279  19.202  0.00  0.00    +0.000 A 
ATOM     17  C   UNL     1       1.929   4.915  20.503  0.00  0.00    +0.000 A 
ATOM     18  C   UNL     1       1.189   3.751  20.733  0.00  0.00    +0.000 A 
ATOM     19  C   UNL     1       0.822   2.934  19.665  0.00  0.00    +0.000 A 
ATOM     20  C   UNL     1       1.194   3.277  18.368  0.00  0.00    +0.000 A 
ATOM     21  C   UNL     1       1.932   4.440  18.139  0.00  0.00    +0.000 A 
ENDBRANCH  14  16
ENDBRANCH  12  14
ENDBRANCH   5  12
TORSDOF 3
ENDMDL
MODEL 4
REMARK VINA RESULT:      -8.2      1.562      2.453
REMARK  Name = 
REMARK  5 active torsions:
REMARK  status: ('A' for Active; 'I' for Inactive)
REMARK    1  A    between atoms: C_1  and  C_2
REMARK    2  A    between atoms: C_5  and  N_6
REMARK    3  A    between atoms: N_6  and  C_7
REMARK    4  A    between atoms: C_7  and  C_8
REMARK    5  A    between atoms: C_7  and  C_9
REMARK                            x       y       z     vdW  Elec       q    Type
REMARK                         _______ _______ _______ _____ _____    ______ ____
ROOT
ATOM      1  C   UNL     1       6.663   4.073  13.382  0.00  0.00    +0.000 C 
ATOM      2  C   UNL     1       6.486   4.472  14.807  0.00  0.00    +0.000 A 
ATOM      3  C   UNL     1       5.400   5.077  15.329  0.00  0.00    +0.000 A 
ATOM      4  C   UNL     1       5.705   5.269  16.710  0.00  0.00    +0.000 A 
ATOM      5  C   UNL     1       5.110   5.841  17.766  0.00  0.00    +0.000 A 
ATOM      6  N   UNL     1       5.838   5.837  18.936  0.00  0.00    +0.000 N 
ATOM      7  C   UNL     1       7.076   5.252  19.012  0.00  0.00    +0.000 A 
ATOM      8  N   UNL     1       7.720   4.688  18.044  0.00  0.00    +0.000 NA
ATOM      9  C   UNL     1       7.062   4.695  16.846  0.00  0.00    +0.000 A 
ATOM     10  N   UNL     1       7.516   4.223  15.716  0.00  0.00    +0.000 NA
ATOM     11  H   UNL     1       5.375   6.166  19.770  0.00  0.00    +0.000 HD
ENDROOT
BRANCH   5  12
ATOM     12  N   UNL     1       3.878   6.468  17.681  0.00  0.00    +0.000 N 
ATOM     13  H   UNL     1       3.939   7.308  17.117  0.00  0.00    +0.000 HD
BRANCH  12  14
ATOM     14  C   UNL     1       3.021   6.687  18.851  0.00  0.00    +0.000 C 
ATOM     15  C   UNL     1       2.055   7.846  18.587  0.00  0.00    +0.000 C 
BRANCH  14  16
ATOM     16  C   UNL     1       2.261   5.405  19.161  0.00  0.00    +0.000 A 
ATOM     17  C   UNL     1       1.840   4.570  18.115  0.00  0.00    +0.000 A 
ATOM     18  C   UNL     1       1.159   3.378  18.382  0.00  0.00    +0.000 A 
ATOM     19  C   UNL     1       0.887   3.008  19.698  0.00  0.00    +0.000 A 
ATOM     20  C   UNL     1       1.293   3.828  20.747  0.00  0.00    +0.000 A 
ATOM     21  C   UNL     1       1.974   5.017  20.481  0.00  0.00    +0.000 A 
ENDBRANCH  14  16
ENDBRANCH  12  14
ENDBRANCH   5  12
TORSDOF 3
ENDMDL
MODEL 5
REMARK VINA RESULT:      -8.1      1.485      2.226
REMARK  Name = 
REMARK  5 active torsions:
REMARK  status: ('A' for Active; 'I' for Inactive)
REMARK    1  A    between atoms: C_1  and  C_2
REMARK    2  A    between atoms: C_5  and  N_6
REMARK    3  A    between atoms: N_6  and  C_7
REMARK    4  A    between atoms: C_7  and  C_8
REMARK    5  A    between atoms: C_7  and  C_9
REMARK                            x       y       z     vdW  Elec       q    Type
REMARK                         _______ _______ _______ _____ _____    ______ ____
ROOT
ATOM      1  C   UNL     1       6.366   3.595  12.727  0.00  0.00    +0.000 C 
ATOM      2  C   UNL     1       6.300   4.369  13.998  0.00  0.00    +0.000 A 
ATOM      3  C   UNL     1       5.227   4.465  14.810  0.00  0.00    +0.000 A 
ATOM      4  C   UNL     1       5.639   5.318  15.877  0.00  0.00    +0.000 A 
ATOM      5  C   UNL     1       5.071   5.858  16.964  0.00  0.00    +0.000 A 
ATOM      6  N   UNL     1       5.875   6.700  17.703  0.00  0.00    +0.000 N 
ATOM      7  C   UNL     1       7.180   6.935  17.357  0.00  0.00    +0.000 A 
ATOM      8  N   UNL     1       7.799   6.462  16.326  0.00  0.00    +0.000 NA
ATOM      9  C   UNL     1       7.040   5.648  15.533  0.00  0.00    +0.000 A 
ATOM     10  N   UNL     1       7.425   5.079  14.422  0.00  0.00    +0.000 NA
ATOM     11  H   UNL     1       5.508   7.037  18.580  0.00  0.00    +0.000 HD
ENDROOT
BRANCH   5  12
ATOM     12  N   UNL     1       3.741   5.653  17.292  0.00  0.00    +0.000 N 
ATOM     13  H   UNL     1       3.134   5.955  16.539  0.00  0.00    +0.000 HD
BRANCH  12  14
ATOM     14  C   UNL     1       3.182   6.030  18.595  0.00  0.00    +0.000 C 
ATOM     15  C   UNL     1       2.319   7.287  18.454  0.00  0.00    +0.000 C 
BRANCH  14  16
ATOM     16  C   UNL     1       2.367   4.868  19.143  0.00  0.00    +0.000 A 
ATOM     17  C   UNL     1       2.207   4.716  20.529  0.00  0.00    +0.000 A 
ATOM     18  C   UNL     1       1.444   3.667  21.050  0.00  0.00    +0.000 A 
ATOM     19  C   UNL     1       0.833   2.754  20.192  0.00  0.00    +0.000 A 
ATOM     20  C   UNL     1       0.986   2.886  18.815  0.00  0.00    +0.000 A 
ATOM     21  C   UNL     1       1.747   3.935  18.294  0.00  0.00    +0.000 A 
ENDBRANCH  14  16
ENDBRANCH  12  14
ENDBRANCH   5  12
TORSDOF 3
ENDMDL
MODEL 6
REMARK VINA RESULT:      -8.1      1.753      5.648
REMARK  Name = 
REMARK  5 active torsions:
REMARK  status: ('A' for Active; 'I' for Inactive)
REMARK    1  A    between atoms: C_1  and  C_2
REMARK    2  A    between atoms: C_5  and  N_6
REMARK    3  A    between atoms: N_6  and  C_7
REMARK    4  A    between atoms: C_7  and  C_8
REMARK    5  A    between atoms: C_7  and  C_9
REMARK                            x       y       z     vdW  Elec       q    Type
REMARK                         _______ _______ _______ _____ _____    ______ ____
ROOT
ATOM      1  C   UNL     1       2.079   7.272  20.053  0.00  0.00    +0.000 C 
ATOM      2  C   UNL     1       2.604   5.987  19.514  0.00  0.00    +0.000 A 
ATOM      3  C   UNL     1       3.326   5.840  18.384  0.00  0.00    +0.000 A 
ATOM      4  C   UNL     1       3.579   4.439  18.280  0.00  0.00    +0.000 A 
ATOM      5  C   UNL     1       4.173   3.621  17.400  0.00  0.00    +0.000 A 
ATOM      6  N   UNL     1       4.123   2.278  17.704  0.00  0.00    +0.000 N 
ATOM      7  C   UNL     1       3.529   1.821  18.852  0.00  0.00    +0.000 A 
ATOM      8  N   UNL     1       2.930   2.539  19.745  0.00  0.00    +0.000 NA
ATOM      9  C   UNL     1       2.915   3.879  19.479  0.00  0.00    +0.000 A 
ATOM     10  N   UNL     1       2.344   4.802  20.205  0.00  0.00    +0.000 NA
ATOM     11  H   UNL     1       4.650   1.651  17.115  0.00  0.00    +0.000 HD
ENDROOT
BRANCH   5  12
ATOM     12  N   UNL     1       4.738   4.077  16.220  0.00  0.00    +0.000 N 
ATOM     13  H   UNL     1       4.240   3.709  15.417  0.00  0.00    +0.000 HD
BRANCH  12  14
ATOM     14  C   UNL     1       6.186   4.072  15.984  0.00  0.00    +0.000 C 
ATOM     15  C   UNL     1       6.480   4.398  14.516  0.00  0.00    +0.000 C 
BRANCH  14  16
ATOM     16  C   UNL     1       6.846   5.083  16.909  0.00  0.00    +0.000 A 
ATOM     17  C   UNL     1       6.825   6.449  16.585  0.00  0.00    +0.000 A 
ATOM     18  C   UNL     1       7.409   7.394  17.434  0.00  0.00    +0.000 A 
ATOM     19  C   UNL     1       8.024   6.986  18.616  0.00  0.00    +0.000 A 
ATOM     20  C   UNL     1       8.059   5.636  18.951  0.00  0.00    +0.000 A 
ATOM     21  C   UNL     1       7.475   4.691  18.104  0.00  0.00    +0.000 A 
ENDBRANCH  14  16
ENDBRANCH  12  14
ENDBRANCH   5  12
TORSDOF 3
ENDMDL
MODEL 7
REMARK VINA RESULT:      -8.1      1.738      5.772
REMARK  Name = 
REMARK  5 active torsions:
REMARK  status: ('A' for Active; 'I' for Inactive)
REMARK    1  A    between atoms: C_1  and  C_2
REMARK    2  A    between atoms: C_5  and  N_6
REMARK    3  A    between atoms: N_6  and  C_7
REMARK    4  A    between atoms: C_7  and  C_8
REMARK    5  A    between atoms: C_7  and  C_9
REMARK                            x       y       z     vdW  Elec       q    Type
REMARK                         _______ _______ _______ _____ _____    ______ ____
ROOT
ATOM      1  C   UNL     1       1.985   7.205  20.115  0.00  0.00    +0.000 C 
ATOM      2  C   UNL     1       2.520   5.936  19.547  0.00  0.00    +0.000 A 
ATOM      3  C   UNL     1       3.279   5.826  18.437  0.00  0.00    +0.000 A 
ATOM      4  C   UNL     1       3.525   4.428  18.290  0.00  0.00    +0.000 A 
ATOM      5  C   UNL     1       4.144   3.638  17.400  0.00  0.00    +0.000 A 
ATOM      6  N   UNL     1       4.074   2.285  17.652  0.00  0.00    +0.000 N 
ATOM      7  C   UNL     1       3.437   1.791  18.761  0.00  0.00    +0.000 A 
ATOM      8  N   UNL     1       2.813   2.480  19.659  0.00  0.00    +0.000 NA
ATOM      9  C   UNL     1       2.817   3.829  19.443  0.00  0.00    +0.000 A 
ATOM     10  N   UNL     1       2.227   4.729  20.184  0.00  0.00    +0.000 NA
ATOM     11  H   UNL     1       4.617   1.676  17.059  0.00  0.00    +0.000 HD
ENDROOT
BRANCH   5  12
ATOM     12  N   UNL     1       4.752   4.133  16.259  0.00  0.00    +0.000 N 
ATOM     13  H   UNL     1       4.273   3.810  15.426  0.00  0.00    +0.000 HD
BRANCH  12  14
ATOM     14  C   UNL     1       6.207   4.111  16.066  0.00  0.00    +0.000 C 
ATOM     15  C   UNL     1       6.546   4.376  14.595  0.00  0.00    +0.000 C 
BRANCH  14  16
ATOM     16  C   UNL     1       6.846   5.154  16.969  0.00  0.00    +0.000 A 
ATOM     17  C   UNL     1       7.428   4.766  18.186  0.00  0.00    +0.000 A 
ATOM     18  C   UNL     1       8.039   5.708  19.019  0.00  0.00    +0.000 A 
ATOM     19  C   UNL     1       8.073   7.051  18.649  0.00  0.00    +0.000 A 
ATOM     20  C   UNL     1       7.496   7.455  17.448  0.00  0.00    +0.000 A 
ATOM     21  C   UNL     1       6.887   6.514  16.615  0.00  0.00    +0.000 A 
ENDBRANCH  14  16
ENDBRANCH  12  14
ENDBRANCH   5  12
TORSDOF 3
ENDMDL
MODEL 8
REMARK VINA RESULT:      -8.1      1.538      2.360
REMARK  Name = 
REMARK  5 active torsions:
REMARK  status: ('A' for Active; 'I' for Inactive)
REMARK    1  A    between atoms: C_1  and  C_2
REMARK    2  A    between atoms: C_5  and  N_6
REMARK    3  A    between atoms: N_6  and  C_7
REMARK    4  A    between atoms: C_7  and  C_8
REMARK    5  A    between atoms: C_7  and  C_9
REMARK                            x       y       z     vdW  Elec       q    Type
REMARK                         _______ _______ _______ _____ _____    ______ ____
ROOT
ATOM      1  C   UNL     1       6.142   3.526  13.097  0.00  0.00    +0.000 C 
ATOM      2  C   UNL     1       6.129   4.416  14.291  0.00  0.00    +0.000 A 
ATOM      3  C   UNL     1       5.058   4.687  15.064  0.00  0.00    +0.000 A 
ATOM      4  C   UNL     1       5.533   5.591  16.061  0.00  0.00    +0.000 A 
ATOM      5  C   UNL     1       5.002   6.280  17.081  0.00  0.00    +0.000 A 
ATOM      6  N   UNL     1       5.870   7.107  17.760  0.00  0.00    +0.000 N 
ATOM      7  C   UNL     1       7.198   7.186  17.426  0.00  0.00    +0.000 A 
ATOM      8  N   UNL     1       7.785   6.564  16.457  0.00  0.00    +0.000 NA
ATOM      9  C   UNL     1       6.964   5.755  15.723  0.00  0.00    +0.000 A 
ATOM     10  N   UNL     1       7.310   5.054  14.677  0.00  0.00    +0.000 NA
ATOM     11  H   UNL     1       5.524   7.556  18.594  0.00  0.00    +0.000 HD
ENDROOT
BRANCH   5  12
ATOM     12  N   UNL     1       3.653   6.232  17.393  0.00  0.00    +0.000 N 
ATOM     13  H   UNL     1       3.122   6.851  16.792  0.00  0.00    +0.000 HD
BRANCH  12  14
ATOM     14  C   UNL     1       3.160   6.294  18.773  0.00  0.00    +0.000 C 
ATOM     15  C   UNL     1       2.348   7.576  18.984  0.00  0.00    +0.000 C 
BRANCH  14  16
ATOM     16  C   UNL     1       2.315   5.061  19.057  0.00  0.00    +0.000 A 
ATOM     17  C   UNL     1       2.141   4.086  18.063  0.00  0.00    +0.000 A 
ATOM     18  C   UNL     1       1.385   2.937  18.313  0.00  0.00    +0.000 A 
ATOM     19  C   UNL     1       0.790   2.749  19.559  0.00  0.00    +0.000 A 
ATOM     20  C   UNL     1       0.948   3.708  20.555  0.00  0.00    +0.000 A 
ATOM     21  C   UNL     1       1.703   4.856  20.306  0.00  0.00    +0.000 A 
ENDBRANCH  14  16
ENDBRANCH  12  14
ENDBRANCH   5  12
TORSDOF 3
ENDMDL
MODEL 9
REMARK VINA RESULT:      -7.9      1.092      1.443
REMARK  Name = 
REMARK  5 active torsions:
REMARK  status: ('A' for Active; 'I' for Inactive)
REMARK    1  A    between atoms: C_1  and  C_2
REMARK    2  A    between atoms: C_5  and  N_6
REMARK    3  A    between atoms: N_6  and  C_7
REMARK    4  A    between atoms: C_7  and  C_8
REMARK    5  A    between atoms: C_7  and  C_9
REMARK                            x       y       z     vdW  Elec       q    Type
REMARK                         _______ _______ _______ _____ _____    ______ ____
ROOT
ATOM      1  C   UNL     1       6.333   4.100  13.510  0.00  0.00    +0.000 C 
ATOM      2  C   UNL     1       6.361   4.350  14.979  0.00  0.00    +0.000 A 
ATOM      3  C   UNL     1       5.520   3.816  15.887  0.00  0.00    +0.000 A 
ATOM      4  C   UNL     1       5.928   4.360  17.142  0.00  0.00    +0.000 A 
ATOM      5  C   UNL     1       5.505   4.297  18.412  0.00  0.00    +0.000 A 
ATOM      6  N   UNL     1       6.206   5.068  19.314  0.00  0.00    +0.000 N 
ATOM      7  C   UNL     1       7.286   5.821  18.931  0.00  0.00    +0.000 A 
ATOM      8  N   UNL     1       7.751   5.942  17.731  0.00  0.00    +0.000 NA
ATOM      9  C   UNL     1       7.072   5.228  16.785  0.00  0.00    +0.000 A 
ATOM     10  N   UNL     1       7.324   5.213  15.503  0.00  0.00    +0.000 NA
ATOM     11  H   UNL     1       5.977   4.960  20.291  0.00  0.00    +0.000 HD
ENDROOT
BRANCH   5  12
ATOM     12  N   UNL     1       4.391   3.569  18.793  0.00  0.00    +0.000 N 
ATOM     13  H   UNL     1       4.565   2.573  18.710  0.00  0.00    +0.000 HD
BRANCH  12  14
ATOM     14  C   UNL     1       3.036   3.901  18.338  0.00  0.00    +0.000 C 
ATOM     15  C   UNL     1       2.048   2.824  18.796  0.00  0.00    +0.000 C 
BRANCH  14  16
ATOM     16  C   UNL     1       2.646   5.266  18.885  0.00  0.00    +0.000 A 
ATOM     17  C   UNL     1       2.785   6.409  18.083  0.00  0.00    +0.000 A 
ATOM     18  C   UNL     1       2.412   7.668  18.562  0.00  0.00    +0.000 A 
ATOM     19  C   UNL     1       1.900   7.803  19.851  0.00  0.00    +0.000 A 
ATOM     20  C   UNL     1       1.761   6.681  20.663  0.00  0.00    +0.000 A 
ATOM     21  C   UNL     1       2.132   5.422  20.184  0.00  0.00    +0.000 A 
ENDBRANCH  14  16
ENDBRANCH  12  14
ENDBRANCH   5  12
TORSDOF 3
ENDMDL
