MODEL 1
REMARK VINA RESULT:      -6.6      0.000      0.000
REMARK  Name = 
REMARK  8 active torsions:
REMARK  status: ('A' for Active; 'I' for Inactive)
REMARK    1  A    between atoms: C_1  and  C_2
REMARK    2  A    between atoms: C_2  and  C_3
REMARK    3  A    between atoms: C_3  and  S_4
REMARK    4  A    between atoms: S_4  and  N_7
REMARK    5  A    between atoms: C_10  and  C_11
REMARK    6  A    between atoms: C_17  and  O_19
REMARK    7  A    between atoms: O_19  and  C_20
REMARK    8  A    between atoms: C_20  and  C_21
REMARK                            x       y       z     vdW  Elec       q    Type
REMARK                         _______ _______ _______ _____ _____    ______ ____
ROOT
ATOM      1  C   UNL     1       2.873   7.497  18.067  0.00  0.00    +0.000 C 
ATOM      2  O   UNL     1       3.296   7.750  16.935  0.00  0.00    +0.000 OA
ATOM      3  N   UNL     1       2.124   8.424  18.765  0.00  0.00    +0.000 N 
ATOM      4  C   UNL     1       1.624   9.626  18.077  0.00  0.00    +0.000 C 
ATOM      5  C   UNL     1       0.140   9.860  18.416  0.00  0.00    +0.000 C 
ATOM      6  N   UNL     1      -0.099   9.806  19.863  0.00  0.00    +0.000 N 
ATOM      7  C   UNL     1      -0.684  10.873  20.509  0.00  0.00    +0.000 C 
ATOM      8  O   UNL     1      -1.061  11.893  19.946  0.00  0.00    +0.000 OA
ATOM      9  C   UNL     1       0.454   8.641  20.560  0.00  0.00    +0.000 C 
ATOM     10  C   UNL     1       1.936   8.457  20.218  0.00  0.00    +0.000 C 
ENDROOT
BRANCH   1  14
ATOM     11  N   UNL     1       5.528   4.909  17.559  0.00  0.00    +0.000 NA
ATOM     12  C   UNL     1       5.613   5.973  18.603  0.00  0.00    +0.000 C 
ATOM     13  C   UNL     1       4.366   5.974  19.479  0.00  0.00    +0.000 C 
ATOM     14  C   UNL     1       3.065   6.104  18.683  0.00  0.00    +0.000 C 
ATOM     15  C   UNL     1       3.030   5.017  17.602  0.00  0.00    +0.000 C 
ATOM     16  C   UNL     1       4.290   5.011  16.730  0.00  0.00    +0.000 C 
BRANCH  11  17
ATOM     17  S   UNL     1       6.983   4.827  16.624  0.00  0.00    +0.000 S 
ATOM     18  O   UNL     1       7.982   4.129  17.408  0.00  0.00    +0.000 OA
ATOM     19  O   UNL     1       7.239   6.136  16.067  0.00  0.00    +0.000 OA
BRANCH  17  20
ATOM     20  C   UNL     1       6.492   3.720  15.300  0.00  0.00    +0.000 C 
BRANCH  20  22
ATOM     21  C   UNL     1       6.013   3.619  12.818  0.00  0.00    +0.000 C 
ATOM     22  C   UNL     1       6.600   4.436  13.954  0.00  0.00    +0.000 C 
ENDBRANCH  20  22
ENDBRANCH  17  20
ENDBRANCH  11  17
ENDBRANCH   1  14
BRANCH   7  23
ATOM     23  O   UNL     1      -0.724  10.688  21.855  0.00  0.00    +0.000 OA
BRANCH  23  24
ATOM     24  C   UNL     1      -0.930  11.871  22.636  0.00  0.00    +0.000 C 
ATOM     25  C   UNL     1      -2.322  11.792  23.237  0.00  0.00    +0.000 C 
ENDBRANCH  23  24
ENDBRANCH   7  23
TORSDOF 6
ENDMDL
MODEL 2
REMARK VINA RESULT:      -6.3      1.643      2.105
REMARK  Name = 
REMARK  8 active torsions:
REMARK  status: ('A' for Active; 'I' for Inactive)
REMARK    1  A    between atoms: C_1  and  C_2
REMARK    2  A    between atoms: C_2  and  C_3
REMARK    3  A    between atoms: C_3  and  S_4
REMARK    4  A    between atoms: S_4  and  N_7
REMARK    5  A    between atoms: C_10  and  C_11
REMARK    6  A    between atoms: C_17  and  O_19
REMARK    7  A    between atoms: O_19  and  C_20
REMARK    8  A    between atoms: C_20  and  C_21
REMARK                            x       y       z     vdW  Elec       q    Type
REMARK                         _______ _______ _______ _____ _____    ______ ____
ROOT
ATOM      1  C   UNL     1       2.291   7.681  18.472  0.00  0.00    +0.000 C 
ATOM      2  O   UNL     1       2.844   7.943  17.399  0.00  0.00    +0.000 OA
ATOM      3  N   UNL     1       1.641   8.666  19.190  0.00  0.00    +0.000 N 
ATOM      4  C   UNL     1       1.400   9.981  18.574  0.00  0.00    +0.000 C 
ATOM      5  C   UNL     1      -0.052  10.432  18.822  0.00  0.00    +0.000 C 
ATOM      6  N   UNL     1      -0.420  10.313  20.237  0.00  0.00    +0.000 N 
ATOM      7  C   UNL     1      -0.881  11.412  20.928  0.00  0.00    +0.000 C 
ATOM      8  O   UNL     1      -1.041  12.518  20.429  0.00  0.00    +0.000 OA
ATOM      9  C   UNL     1      -0.121   9.025  20.871  0.00  0.00    +0.000 C 
ATOM     10  C   UNL     1       1.336   8.624  20.623  0.00  0.00    +0.000 C 
ENDROOT
BRANCH   1  14
ATOM     11  N   UNL     1       4.684   4.817  18.201  0.00  0.00    +0.000 NA
ATOM     12  C   UNL     1       4.691   5.783  19.339  0.00  0.00    +0.000 C 
ATOM     13  C   UNL     1       3.311   5.882  19.976  0.00  0.00    +0.000 C 
ATOM     14  C   UNL     1       2.205   6.235  18.978  0.00  0.00    +0.000 C 
ATOM     15  C   UNL     1       2.250   5.241  17.811  0.00  0.00    +0.000 C 
ATOM     16  C   UNL     1       3.642   5.137  17.180  0.00  0.00    +0.000 C 
BRANCH  11  17
ATOM     17  S   UNL     1       6.269   4.616  17.535  0.00  0.00    +0.000 S 
ATOM     18  O   UNL     1       6.168   3.730  16.394  0.00  0.00    +0.000 OA
ATOM     19  O   UNL     1       7.186   4.347  18.621  0.00  0.00    +0.000 OA
BRANCH  17  20
ATOM     20  C   UNL     1       6.597   6.259  16.893  0.00  0.00    +0.000 C 
BRANCH  20  22
ATOM     21  C   UNL     1       7.662   8.422  17.658  0.00  0.00    +0.000 C 
ATOM     22  C   UNL     1       7.740   6.906  17.675  0.00  0.00    +0.000 C 
ENDBRANCH  20  22
ENDBRANCH  17  20
ENDBRANCH  11  17
ENDBRANCH   1  14
BRANCH   7  23
ATOM     23  O   UNL     1      -1.066  11.139  22.247  0.00  0.00    +0.000 OA
BRANCH  23  24
ATOM     24  C   UNL     1      -2.111  11.876  22.891  0.00  0.00    +0.000 C 
ATOM     25  C   UNL     1      -1.497  13.140  23.469  0.00  0.00    +0.000 C 
ENDBRANCH  23  24
ENDBRANCH   7  23
TORSDOF 6
ENDMDL
MODEL 3
REMARK VINA RESULT:      -6.2      3.253      9.007
REMARK  Name = 
REMARK  8 active torsions:
REMARK  status: ('A' for Active; 'I' for Inactive)
REMARK    1  A    between atoms: C_1  and  C_2
REMARK    2  A    between atoms: C_2  and  C_3
REMARK    3  A    between atoms: C_3  and  S_4
REMARK    4  A    between atoms: S_4  and  N_7
REMARK    5  A    between atoms: C_10  and  C_11
REMARK    6  A    between atoms: C_17  and  O_19
REMARK    7  A    between atoms: O_19  and  C_20
REMARK    8  A    between atoms: C_20  and  C_21
REMARK                            x       y       z     vdW  Elec       q    Type
REMARK                         _______ _______ _______ _____ _____    ______ ____
ROOT
ATOM      1  C   UNL     1       1.525   8.609  19.268  0.00  0.00    +0.000 C 
ATOM      2  O   UNL     1       0.884   8.685  20.321  0.00  0.00    +0.000 OA
ATOM      3  N   UNL     1       2.450   7.602  19.075  0.00  0.00    +0.000 N 
ATOM      4  C   UNL     1       2.513   6.477  20.022  0.00  0.00    +0.000 C 
ATOM      5  C   UNL     1       2.591   5.139  19.262  0.00  0.00    +0.000 C 
ATOM      6  N   UNL     1       3.634   5.164  18.230  0.00  0.00    +0.000 N 
ATOM      7  C   UNL     1       4.637   4.221  18.236  0.00  0.00    +0.000 C 
ATOM      8  O   UNL     1       4.716   3.308  19.048  0.00  0.00    +0.000 OA
ATOM      9  C   UNL     1       3.613   6.318  17.326  0.00  0.00    +0.000 C 
ATOM     10  C   UNL     1       3.561   7.628  18.119  0.00  0.00    +0.000 C 
ENDROOT
BRANCH   1  14
ATOM     11  N   UNL     1      -0.350  11.844  19.118  0.00  0.00    +0.000 NA
ATOM     12  C   UNL     1       1.117  11.761  19.381  0.00  0.00    +0.000 C 
ATOM     13  C   UNL     1       1.819  10.956  18.294  0.00  0.00    +0.000 C 
ATOM     14  C   UNL     1       1.228   9.558  18.098  0.00  0.00    +0.000 C 
ATOM     15  C   UNL     1      -0.283   9.682  17.863  0.00  0.00    +0.000 C 
ATOM     16  C   UNL     1      -0.983  10.502  18.951  0.00  0.00    +0.000 C 
BRANCH  11  17
ATOM     17  S   UNL     1      -1.144  12.845  20.286  0.00  0.00    +0.000 S 
ATOM     18  O   UNL     1      -2.511  12.386  20.417  0.00  0.00    +0.000 OA
ATOM     19  O   UNL     1      -0.837  14.226  19.985  0.00  0.00    +0.000 OA
BRANCH  17  20
ATOM     20  C   UNL     1      -0.291  12.378  21.794  0.00  0.00    +0.000 C 
BRANCH  20  22
ATOM     21  C   UNL     1      -0.784  10.250  23.069  0.00  0.00    +0.000 C 
ATOM     22  C   UNL     1      -1.252  11.655  22.736  0.00  0.00    +0.000 C 
ENDBRANCH  20  22
ENDBRANCH  17  20
ENDBRANCH  11  17
ENDBRANCH   1  14
BRANCH   7  23
ATOM     23  O   UNL     1       5.568   4.466  17.277  0.00  0.00    +0.000 OA
BRANCH  23  24
ATOM     24  C   UNL     1       6.902   4.688  17.751  0.00  0.00    +0.000 C 
ATOM     25  C   UNL     1       7.272   6.126  17.435  0.00  0.00    +0.000 C 
ENDBRANCH  23  24
ENDBRANCH   7  23
TORSDOF 6
ENDMDL
MODEL 4
REMARK VINA RESULT:      -6.0      1.075      1.241
REMARK  Name = 
REMARK  8 active torsions:
REMARK  status: ('A' for Active; 'I' for Inactive)
REMARK    1  A    between atoms: C_1  and  C_2
REMARK    2  A    between atoms: C_2  and  C_3
REMARK    3  A    between atoms: C_3  and  S_4
REMARK    4  A    between atoms: S_4  and  N_7
REMARK    5  A    between atoms: C_10  and  C_11
REMARK    6  A    between atoms: C_17  and  O_19
REMARK    7  A    between atoms: O_19  and  C_20
REMARK    8  A    between atoms: C_20  and  C_21
REMARK                            x       y       z     vdW  Elec       q    Type
REMARK                         _______ _______ _______ _____ _____    ______ ____
ROOT
ATOM      1  C   UNL     1       2.384   7.574  18.652  0.00  0.00    +0.000 C 
ATOM      2  O   UNL     1       2.947   7.803  17.576  0.00  0.00    +0.000 OA
ATOM      3  N   UNL     1       1.703   8.574  19.319  0.00  0.00    +0.000 N 
ATOM      4  C   UNL     1       1.441   9.856  18.645  0.00  0.00    +0.000 C 
ATOM      5  C   UNL     1      -0.024  10.284  18.856  0.00  0.00    +0.000 C 
ATOM      6  N   UNL     1      -0.408  10.216  20.270  0.00  0.00    +0.000 N 
ATOM      7  C   UNL     1      -0.902  11.331  20.908  0.00  0.00    +0.000 C 
ATOM      8  O   UNL     1      -1.081  12.412  20.361  0.00  0.00    +0.000 OA
ATOM      9  C   UNL     1      -0.090   8.962  20.961  0.00  0.00    +0.000 C 
ATOM     10  C   UNL     1       1.380   8.585  20.749  0.00  0.00    +0.000 C 
ENDROOT
BRANCH   1  14
ATOM     11  N   UNL     1       4.515   4.565  18.015  0.00  0.00    +0.000 NA
ATOM     12  C   UNL     1       4.803   5.557  19.092  0.00  0.00    +0.000 C 
ATOM     13  C   UNL     1       3.587   5.755  19.988  0.00  0.00    +0.000 C 
ATOM     14  C   UNL     1       2.324   6.149  19.218  0.00  0.00    +0.000 C 
ATOM     15  C   UNL     1       2.079   5.126  18.102  0.00  0.00    +0.000 C 
ATOM     16  C   UNL     1       3.308   4.921  17.210  0.00  0.00    +0.000 C 
BRANCH  11  17
ATOM     17  S   UNL     1       5.920   4.251  17.054  0.00  0.00    +0.000 S 
ATOM     18  O   UNL     1       5.695   3.028  16.313  0.00  0.00    +0.000 OA
ATOM     19  O   UNL     1       7.089   4.423  17.890  0.00  0.00    +0.000 OA
BRANCH  17  20
ATOM     20  C   UNL     1       5.851   5.599  15.871  0.00  0.00    +0.000 C 
BRANCH  20  22
ATOM     21  C   UNL     1       7.302   4.963  13.899  0.00  0.00    +0.000 C 
ATOM     22  C   UNL     1       5.889   5.046  14.447  0.00  0.00    +0.000 C 
ENDBRANCH  20  22
ENDBRANCH  17  20
ENDBRANCH  11  17
ENDBRANCH   1  14
BRANCH   7  23
ATOM     23  O   UNL     1      -1.099  11.110  22.234  0.00  0.00    +0.000 OA
BRANCH  23  24
ATOM     24  C   UNL     1      -1.392  12.272  23.019  0.00  0.00    +0.000 C 
ATOM     25  C   UNL     1      -2.868  12.229  23.376  0.00  0.00    +0.000 C 
ENDBRANCH  23  24
ENDBRANCH   7  23
TORSDOF 6
ENDMDL
MODEL 5
REMARK VINA RESULT:      -5.9      3.139      4.261
REMARK  Name = 
REMARK  8 active torsions:
REMARK  status: ('A' for Active; 'I' for Inactive)
REMARK    1  A    between atoms: C_1  and  C_2
REMARK    2  A    between atoms: C_2  and  C_3
REMARK    3  A    between atoms: C_3  and  S_4
REMARK    4  A    between atoms: S_4  and  N_7
REMARK    5  A    between atoms: C_10  and  C_11
REMARK    6  A    between atoms: C_17  and  O_19
REMARK    7  A    between atoms: O_19  and  C_20
REMARK    8  A    between atoms: C_20  and  C_21
REMARK                            x       y       z     vdW  Elec       q    Type
REMARK                         _______ _______ _______ _____ _____    ______ ____
ROOT
ATOM      1  C   UNL     1       1.947   7.065  19.952  0.00  0.00    +0.000 C 
ATOM      2  O   UNL     1       1.947   6.175  20.809  0.00  0.00    +0.000 OA
ATOM      3  N   UNL     1       1.329   8.276  20.193  0.00  0.00    +0.000 N 
ATOM      4  C   UNL     1       0.869   8.605  21.551  0.00  0.00    +0.000 C 
ATOM      5  C   UNL     1       1.291  10.038  21.929  0.00  0.00    +0.000 C 
ATOM      6  N   UNL     1       0.930  11.001  20.882  0.00  0.00    +0.000 N 
ATOM      7  C   UNL     1       0.139  12.087  21.182  0.00  0.00    +0.000 C 
ATOM      8  O   UNL     1      -0.281  12.340  22.304  0.00  0.00    +0.000 OA
ATOM      9  C   UNL     1       1.331  10.644  19.517  0.00  0.00    +0.000 C 
ATOM     10  C   UNL     1       0.872   9.223  19.172  0.00  0.00    +0.000 C 
ENDROOT
BRANCH   1  14
ATOM     11  N   UNL     1       3.657   4.089  18.459  0.00  0.00    +0.000 NA
ATOM     12  C   UNL     1       2.231   4.437  18.183  0.00  0.00    +0.000 C 
ATOM     13  C   UNL     1       2.108   5.874  17.694  0.00  0.00    +0.000 C 
ATOM     14  C   UNL     1       2.736   6.895  18.646  0.00  0.00    +0.000 C 
ATOM     15  C   UNL     1       4.186   6.488  18.929  0.00  0.00    +0.000 C 
ATOM     16  C   UNL     1       4.308   5.038  19.410  0.00  0.00    +0.000 C 
BRANCH  11  17
ATOM     17  S   UNL     1       3.824   2.428  18.913  0.00  0.00    +0.000 S 
ATOM     18  O   UNL     1       4.907   2.330  19.870  0.00  0.00    +0.000 OA
ATOM     19  O   UNL     1       3.803   1.624  17.711  0.00  0.00    +0.000 OA
BRANCH  17  20
ATOM     20  C   UNL     1       2.301   2.152  19.821  0.00  0.00    +0.000 C 
BRANCH  20  22
ATOM     21  C   UNL     1       1.202   2.821  21.998  0.00  0.00    +0.000 C 
ATOM     22  C   UNL     1       2.505   2.484  21.298  0.00  0.00    +0.000 C 
ENDBRANCH  20  22
ENDBRANCH  17  20
ENDBRANCH  11  17
ENDBRANCH   1  14
BRANCH   7  23
ATOM     23  O   UNL     1      -0.180  12.803  20.072  0.00  0.00    +0.000 OA
BRANCH  23  24
ATOM     24  C   UNL     1      -1.576  12.879  19.764  0.00  0.00    +0.000 C 
ATOM     25  C   UNL     1      -1.809  12.101  18.481  0.00  0.00    +0.000 C 
ENDBRANCH  23  24
ENDBRANCH   7  23
TORSDOF 6
ENDMDL
MODEL 6
REMARK VINA RESULT:      -5.8      2.541      2.945
REMARK  Name = 
REMARK  8 active torsions:
REMARK  status: ('A' for Active; 'I' for Inactive)
REMARK    1  A    between atoms: C_1  and  C_2
REMARK    2  A    between atoms: C_2  and  C_3
REMARK    3  A    between atoms: C_3  and  S_4
REMARK    4  A    between atoms: S_4  and  N_7
REMARK    5  A    between atoms: C_10  and  C_11
REMARK    6  A    between atoms: C_17  and  O_19
REMARK    7  A    between atoms: O_19  and  C_20
REMARK    8  A    between atoms: C_20  and  C_21
REMARK                            x       y       z     vdW  Elec       q    Type
REMARK                         _______ _______ _______ _____ _____    ______ ____
ROOT
ATOM      1  C   UNL     1       1.982   6.987  19.835  0.00  0.00    +0.000 C 
ATOM      2  O   UNL     1       2.505   6.908  18.719  0.00  0.00    +0.000 OA
ATOM      3  N   UNL     1       1.451   8.181  20.283  0.00  0.00    +0.000 N 
ATOM      4  C   UNL     1       1.293   9.307  19.348  0.00  0.00    +0.000 C 
ATOM      5  C   UNL     1      -0.103   9.940  19.502  0.00  0.00    +0.000 C 
ATOM      6  N   UNL     1      -0.413  10.229  20.906  0.00  0.00    +0.000 N 
ATOM      7  C   UNL     1      -0.748  11.507  21.294  0.00  0.00    +0.000 C 
ATOM      8  O   UNL     1      -0.838  12.456  20.525  0.00  0.00    +0.000 OA
ATOM      9  C   UNL     1      -0.195   9.128  21.850  0.00  0.00    +0.000 C 
ATOM     10  C   UNL     1       1.211   8.542  21.683  0.00  0.00    +0.000 C 
ENDROOT
BRANCH   1  14
ATOM     11  N   UNL     1       2.656   3.371  19.149  0.00  0.00    +0.000 NA
ATOM     12  C   UNL     1       3.669   4.293  19.741  0.00  0.00    +0.000 C 
ATOM     13  C   UNL     1       3.110   4.994  20.973  0.00  0.00    +0.000 C 
ATOM     14  C   UNL     1       1.799   5.737  20.706  0.00  0.00    +0.000 C 
ATOM     15  C   UNL     1       0.796   4.767  20.070  0.00  0.00    +0.000 C 
ATOM     16  C   UNL     1       1.365   4.055  18.838  0.00  0.00    +0.000 C 
BRANCH  11  17
ATOM     17  S   UNL     1       3.311   2.488  17.812  0.00  0.00    +0.000 S 
ATOM     18  O   UNL     1       2.450   2.700  16.667  0.00  0.00    +0.000 OA
ATOM     19  O   UNL     1       3.648   1.158  18.268  0.00  0.00    +0.000 OA
BRANCH  17  20
ATOM     20  C   UNL     1       4.828   3.394  17.498  0.00  0.00    +0.000 C 
BRANCH  20  22
ATOM     21  C   UNL     1       4.976   5.665  16.395  0.00  0.00    +0.000 C 
ATOM     22  C   UNL     1       4.704   4.185  16.197  0.00  0.00    +0.000 C 
ENDBRANCH  20  22
ENDBRANCH  17  20
ENDBRANCH  11  17
ENDBRANCH   1  14
BRANCH   7  23
ATOM     23  O   UNL     1      -0.893  11.606  22.642  0.00  0.00    +0.000 OA
BRANCH  23  24
ATOM     24  C   UNL     1      -2.104  12.226  23.090  0.00  0.00    +0.000 C 
ATOM     25  C   UNL     1      -1.752  13.614  23.596  0.00  0.00    +0.000 C 
ENDBRANCH  23  24
ENDBRANCH   7  23
TORSDOF 6
ENDMDL
MODEL 7
REMARK VINA RESULT:      -5.8      3.406      8.979
REMARK  Name = 
REMARK  8 active torsions:
REMARK  status: ('A' for Active; 'I' for Inactive)
REMARK    1  A    between atoms: C_1  and  C_2
REMARK    2  A    between atoms: C_2  and  C_3
REMARK    3  A    between atoms: C_3  and  S_4
REMARK    4  A    between atoms: S_4  and  N_7
REMARK    5  A    between atoms: C_10  and  C_11
REMARK    6  A    between atoms: C_17  and  O_19
REMARK    7  A    between atoms: O_19  and  C_20
REMARK    8  A    between atoms: C_20  and  C_21
REMARK                            x       y       z     vdW  Elec       q    Type
REMARK                         _______ _______ _______ _____ _____    ______ ____
ROOT
ATOM      1  C   UNL     1       1.576   8.498  19.186  0.00  0.00    +0.000 C 
ATOM      2  O   UNL     1       0.947   8.615  20.242  0.00  0.00    +0.000 OA
ATOM      3  N   UNL     1       2.555   7.533  19.049  0.00  0.00    +0.000 N 
ATOM      4  C   UNL     1       2.696   6.485  20.074  0.00  0.00    +0.000 C 
ATOM      5  C   UNL     1       2.839   5.102  19.410  0.00  0.00    +0.000 C 
ATOM      6  N   UNL     1       3.864   5.110  18.361  0.00  0.00    +0.000 N 
ATOM      7  C   UNL     1       4.919   4.227  18.415  0.00  0.00    +0.000 C 
ATOM      8  O   UNL     1       5.062   3.383  19.290  0.00  0.00    +0.000 OA
ATOM      9  C   UNL     1       3.763   6.192  17.376  0.00  0.00    +0.000 C 
ATOM     10  C   UNL     1       3.648   7.551  18.073  0.00  0.00    +0.000 C 
ENDROOT
BRANCH   1  14
ATOM     11  N   UNL     1       0.175  11.955  18.881  0.00  0.00    +0.000 NA
ATOM     12  C   UNL     1       1.639  11.666  18.914  0.00  0.00    +0.000 C 
ATOM     13  C   UNL     1       2.014  10.638  17.854  0.00  0.00    +0.000 C 
ATOM     14  C   UNL     1       1.208   9.340  17.956  0.00  0.00    +0.000 C 
ATOM     15  C   UNL     1      -0.288   9.679  17.951  0.00  0.00    +0.000 C 
ATOM     16  C   UNL     1      -0.659  10.722  19.011  0.00  0.00    +0.000 C 
BRANCH  11  17
ATOM     17  S   UNL     1      -0.248  13.199  20.008  0.00  0.00    +0.000 S 
ATOM     18  O   UNL     1       0.848  13.352  20.942  0.00  0.00    +0.000 OA
ATOM     19  O   UNL     1      -1.600  12.958  20.463  0.00  0.00    +0.000 OA
BRANCH  17  20
ATOM     20  C   UNL     1      -0.242  14.651  18.953  0.00  0.00    +0.000 C 
BRANCH  20  22
ATOM     21  C   UNL     1       1.143  16.662  19.610  0.00  0.00    +0.000 C 
ATOM     22  C   UNL     1       1.145  15.292  18.957  0.00  0.00    +0.000 C 
ENDBRANCH  20  22
ENDBRANCH  17  20
ENDBRANCH  11  17
ENDBRANCH   1  14
BRANCH   7  23
ATOM     23  O   UNL     1       5.821   4.454  17.424  0.00  0.00    +0.000 OA
BRANCH  23  24
ATOM     24  C   UNL     1       7.171   4.670  17.852  0.00  0.00    +0.000 C 
ATOM     25  C   UNL     1       7.414   6.169  17.872  0.00  0.00    +0.000 C 
ENDBRANCH  23  24
ENDBRANCH   7  23
TORSDOF 6
ENDMDL
MODEL 8
REMARK VINA RESULT:      -5.7      3.210      9.252
REMARK  Name = 
REMARK  8 active torsions:
REMARK  status: ('A' for Active; 'I' for Inactive)
REMARK    1  A    between atoms: C_1  and  C_2
REMARK    2  A    between atoms: C_2  and  C_3
REMARK    3  A    between atoms: C_3  and  S_4
REMARK    4  A    between atoms: S_4  and  N_7
REMARK    5  A    between atoms: C_10  and  C_11
REMARK    6  A    between atoms: C_17  and  O_19
REMARK    7  A    between atoms: O_19  and  C_20
REMARK    8  A    between atoms: C_20  and  C_21
REMARK                            x       y       z     vdW  Elec       q    Type
REMARK                         _______ _______ _______ _____ _____    ______ ____
ROOT
ATOM      1  C   UNL     1       1.481   8.665  19.325  0.00  0.00    +0.000 C 
ATOM      2  O   UNL     1       0.872   8.696  20.399  0.00  0.00    +0.000 OA
ATOM      3  N   UNL     1       2.407   7.673  19.066  0.00  0.00    +0.000 N 
ATOM      4  C   UNL     1       2.507   6.513  19.967  0.00  0.00    +0.000 C 
ATOM      5  C   UNL     1       2.571   5.206  19.154  0.00  0.00    +0.000 C 
ATOM      6  N   UNL     1       3.582   5.279  18.093  0.00  0.00    +0.000 N 
ATOM      7  C   UNL     1       4.591   4.345  18.032  0.00  0.00    +0.000 C 
ATOM      8  O   UNL     1       4.702   3.403  18.806  0.00  0.00    +0.000 OA
ATOM      9  C   UNL     1       3.524   6.466  17.234  0.00  0.00    +0.000 C 
ATOM     10  C   UNL     1       3.488   7.745  18.078  0.00  0.00    +0.000 C 
ENDROOT
BRANCH   1  14
ATOM     11  N   UNL     1       0.009  12.104  19.416  0.00  0.00    +0.000 NA
ATOM     12  C   UNL     1       1.477  11.842  19.473  0.00  0.00    +0.000 C 
ATOM     13  C   UNL     1       1.918  10.969  18.304  0.00  0.00    +0.000 C 
ATOM     14  C   UNL     1       1.141   9.654  18.202  0.00  0.00    +0.000 C 
ATOM     15  C   UNL     1      -0.361   9.962  18.178  0.00  0.00    +0.000 C 
ATOM     16  C   UNL     1      -0.799  10.849  19.349  0.00  0.00    +0.000 C 
BRANCH  11  17
ATOM     17  S   UNL     1      -0.488  13.181  20.677  0.00  0.00    +0.000 S 
ATOM     18  O   UNL     1      -0.944  14.411  20.064  0.00  0.00    +0.000 OA
ATOM     19  O   UNL     1       0.532  13.180  21.703  0.00  0.00    +0.000 OA
BRANCH  17  20
ATOM     20  C   UNL     1      -1.944  12.342  21.308  0.00  0.00    +0.000 C 
BRANCH  20  22
ATOM     21  C   UNL     1      -2.458  13.450  23.523  0.00  0.00    +0.000 C 
ATOM     22  C   UNL     1      -1.866  12.236  22.831  0.00  0.00    +0.000 C 
ENDBRANCH  20  22
ENDBRANCH  17  20
ENDBRANCH  11  17
ENDBRANCH   1  14
BRANCH   7  23
ATOM     23  O   UNL     1       5.491   4.635  17.055  0.00  0.00    +0.000 OA
BRANCH  23  24
ATOM     24  C   UNL     1       6.858   4.716  17.476  0.00  0.00    +0.000 C 
ATOM     25  C   UNL     1       7.266   6.178  17.441  0.00  0.00    +0.000 C 
ENDBRANCH  23  24
ENDBRANCH   7  23
TORSDOF 6
ENDMDL
MODEL 9
REMARK VINA RESULT:      -5.6      3.941      9.124
REMARK  Name = 
REMARK  8 active torsions:
REMARK  status: ('A' for Active; 'I' for Inactive)
REMARK    1  A    between atoms: C_1  and  C_2
REMARK    2  A    between atoms: C_2  and  C_3
REMARK    3  A    between atoms: C_3  and  S_4
REMARK    4  A    between atoms: S_4  and  N_7
REMARK    5  A    between atoms: C_10  and  C_11
REMARK    6  A    between atoms: C_17  and  O_19
REMARK    7  A    between atoms: O_19  and  C_20
REMARK    8  A    between atoms: C_20  and  C_21
REMARK                            x       y       z     vdW  Elec       q    Type
REMARK                         _______ _______ _______ _____ _____    ______ ____
ROOT
ATOM      1  C   UNL     1       1.210   9.008  19.762  0.00  0.00    +0.000 C 
ATOM      2  O   UNL     1       0.755   9.486  20.806  0.00  0.00    +0.000 OA
ATOM      3  N   UNL     1       1.855   7.786  19.767  0.00  0.00    +0.000 N 
ATOM      4  C   UNL     1       1.801   6.936  20.968  0.00  0.00    +0.000 C 
ATOM      5  C   UNL     1       1.476   5.481  20.581  0.00  0.00    +0.000 C 
ATOM      6  N   UNL     1       2.344   5.003  19.499  0.00  0.00    +0.000 N 
ATOM      7  C   UNL     1       3.106   3.869  19.671  0.00  0.00    +0.000 C 
ATOM      8  O   UNL     1       3.097   3.184  20.686  0.00  0.00    +0.000 OA
ATOM      9  C   UNL     1       2.450   5.879  18.328  0.00  0.00    +0.000 C 
ATOM     10  C   UNL     1       2.799   7.310  18.751  0.00  0.00    +0.000 C 
ENDROOT
BRANCH   1  14
ATOM     11  N   UNL     1       0.150  12.496  18.918  0.00  0.00    +0.000 NA
ATOM     12  C   UNL     1       1.579  12.088  19.061  0.00  0.00    +0.000 C 
ATOM     13  C   UNL     1       1.893  10.891  18.172  0.00  0.00    +0.000 C 
ATOM     14  C   UNL     1       0.966   9.697  18.412  0.00  0.00    +0.000 C 
ATOM     15  C   UNL     1      -0.490  10.162  18.288  0.00  0.00    +0.000 C 
ATOM     16  C   UNL     1      -0.799  11.372  19.175  0.00  0.00    +0.000 C 
BRANCH  11  17
ATOM     17  S   UNL     1      -0.194  13.919  19.841  0.00  0.00    +0.000 S 
ATOM     18  O   UNL     1       0.710  13.951  20.973  0.00  0.00    +0.000 OA
ATOM     19  O   UNL     1      -1.627  14.011  20.016  0.00  0.00    +0.000 OA
BRANCH  17  20
ATOM     20  C   UNL     1       0.335  15.211  18.714  0.00  0.00    +0.000 C 
BRANCH  20  22
ATOM     21  C   UNL     1      -0.858  17.376  18.177  0.00  0.00    +0.000 C 
ATOM     22  C   UNL     1      -0.119  16.575  19.234  0.00  0.00    +0.000 C 
ENDBRANCH  20  22
ENDBRANCH  17  20
ENDBRANCH  11  17
ENDBRANCH   1  14
BRANCH   7  23
ATOM     23  O   UNL     1       3.925   3.643  18.610  0.00  0.00    +0.000 OA
BRANCH  23  24
ATOM     24  C   UNL     1       3.840   2.337  18.029  0.00  0.00    +0.000 C 
ATOM     25  C   UNL     1       2.431   2.162  17.488  0.00  0.00    +0.000 C 
ENDBRANCH  23  24
ENDBRANCH   7  23
TORSDOF 6
ENDMDL
