MODEL 1
REMARK VINA RESULT:      -8.6      0.000      0.000
REMARK  Name = 
REMARK  7 active torsions:
REMARK  status: ('A' for Active; 'I' for Inactive)
REMARK    1  A    between atoms: C_1  and  C_2
REMARK    2  A    between atoms: C_5  and  N_6
REMARK    3  A    between atoms: N_6  and  S_7
REMARK    4  A    between atoms: S_7  and  C_10
REMARK    5  A    between atoms: C_14  and  C_15
REMARK    6  A    between atoms: C_15  and  C_17
REMARK    7  A    between atoms: C_17  and  C_18
REMARK                            x       y       z     vdW  Elec       q    Type
REMARK                         _______ _______ _______ _____ _____    ______ ____
ROOT
ATOM      1  C   UNL     1       2.922   2.969  19.865  0.00  0.00    +0.000 A 
ATOM      2  C   UNL     1       2.358   2.340  21.036  0.00  0.00    +0.000 A 
ATOM      3  C   UNL     1       1.316   3.050  21.574  0.00  0.00    +0.000 A 
ATOM      4  S   UNL     1       1.005   4.466  20.692  0.00  0.00    +0.000 S 
ATOM      5  C   UNL     1       2.277   4.157  19.543  0.00  0.00    +0.000 A 
ENDROOT
BRANCH   1   6
ATOM      6  S   UNL     1       4.216   2.119  19.068  0.00  0.00    +0.000 S 
ATOM      7  O   UNL     1       3.562   0.987  18.446  0.00  0.00    +0.000 OA
ATOM      8  O   UNL     1       5.270   1.926  20.033  0.00  0.00    +0.000 OA
BRANCH   6   9
ATOM      9  N   UNL     1       4.770   3.097  17.808  0.00  0.00    +0.000 N 
ATOM     10  H   UNL     1       5.030   2.533  17.002  0.00  0.00    +0.000 HD
BRANCH   9  15
ATOM     11  C   UNL     1       7.939   7.007  18.308  0.00  0.00    +0.000 C 
ATOM     12  C   UNL     1       7.042   5.837  18.468  0.00  0.00    +0.000 A 
ATOM     13  N   UNL     1       6.789   5.374  19.697  0.00  0.00    +0.000 NA
ATOM     14  O   UNL     1       5.945   4.302  19.531  0.00  0.00    +0.000 OA
ATOM     15  C   UNL     1       5.679   4.117  18.211  0.00  0.00    +0.000 A 
ATOM     16  C   UNL     1       6.349   5.078  17.486  0.00  0.00    +0.000 A 
ATOM     17 CL   UNL     1       6.395   5.371  15.814  0.00  0.00    +0.000 Cl
ENDBRANCH   9  15
ENDBRANCH   6   9
ENDBRANCH   1   6
BRANCH   5  18
ATOM     18  C   UNL     1       2.394   5.183  18.491  0.00  0.00    +0.000 C 
ATOM     19  O   UNL     1       1.985   4.984  17.347  0.00  0.00    +0.000 OA
BRANCH  18  20
ATOM     20  C   UNL     1       3.069   6.496  18.828  0.00  0.00    +0.000 C 
BRANCH  20  21
ATOM     21  C   UNL     1       2.196   7.725  19.015  0.00  0.00    +0.000 A 
ATOM     22  C   UNL     1       1.998   8.567  17.888  0.00  0.00    +0.000 A 
ATOM     23  C   UNL     1       1.254   9.744  17.975  0.00  0.00    +0.000 A 
ATOM     24  C   UNL     1       0.724  10.064  19.205  0.00  0.00    +0.000 A 
ATOM     25  C   UNL     1       0.928   9.272  20.312  0.00  0.00    +0.000 A 
ATOM     26  C   UNL     1       1.661   8.104  20.254  0.00  0.00    +0.000 A 
ATOM     27  O   UNL     1       0.335   9.778  21.425  0.00  0.00    +0.000 OA
ATOM     28  C   UNL     1      -0.260  10.979  20.891  0.00  0.00    +0.000 C 
ATOM     29  O   UNL     1      -0.024  11.171  19.483  0.00  0.00    +0.000 OA
ENDBRANCH  20  21
ENDBRANCH  18  20
ENDBRANCH   5  18
TORSDOF 6
ENDMDL
MODEL 2
REMARK VINA RESULT:      -8.4      2.291      4.268
REMARK  Name = 
REMARK  7 active torsions:
REMARK  status: ('A' for Active; 'I' for Inactive)
REMARK    1  A    between atoms: C_1  and  C_2
REMARK    2  A    between atoms: C_5  and  N_6
REMARK    3  A    between atoms: N_6  and  S_7
REMARK    4  A    between atoms: S_7  and  C_10
REMARK    5  A    between atoms: C_14  and  C_15
REMARK    6  A    between atoms: C_15  and  C_17
REMARK    7  A    between atoms: C_17  and  C_18
REMARK                            x       y       z     vdW  Elec       q    Type
REMARK                         _______ _______ _______ _____ _____    ______ ____
ROOT
ATOM      1  C   UNL     1       5.588   5.377  17.800  0.00  0.00    +0.000 A 
ATOM      2  C   UNL     1       6.754   5.196  16.967  0.00  0.00    +0.000 A 
ATOM      3  C   UNL     1       6.607   5.739  15.716  0.00  0.00    +0.000 A 
ATOM      4  S   UNL     1       5.085   6.466  15.527  0.00  0.00    +0.000 S 
ATOM      5  C   UNL     1       4.576   6.068  17.145  0.00  0.00    +0.000 A 
ENDROOT
BRANCH   1   6
ATOM      6  S   UNL     1       5.691   4.774  19.429  0.00  0.00    +0.000 S 
ATOM      7  O   UNL     1       4.564   5.387  20.103  0.00  0.00    +0.000 OA
ATOM      8  O   UNL     1       7.037   4.994  19.892  0.00  0.00    +0.000 OA
BRANCH   6   9
ATOM      9  N   UNL     1       5.368   3.117  19.382  0.00  0.00    +0.000 N 
ATOM     10  H   UNL     1       6.131   2.614  18.934  0.00  0.00    +0.000 HD
BRANCH   9  15
ATOM     11  C   UNL     1       0.427   2.166  18.867  0.00  0.00    +0.000 C 
ATOM     12  C   UNL     1       1.884   2.395  18.714  0.00  0.00    +0.000 A 
ATOM     13  N   UNL     1       2.423   2.360  17.490  0.00  0.00    +0.000 NA
ATOM     14  O   UNL     1       3.765   2.599  17.660  0.00  0.00    +0.000 OA
ATOM     15  C   UNL     1       4.043   2.788  18.977  0.00  0.00    +0.000 A 
ATOM     16  C   UNL     1       2.872   2.677  19.696  0.00  0.00    +0.000 A 
ATOM     17 CL   UNL     1       2.577   2.828  21.361  0.00  0.00    +0.000 Cl
ENDBRANCH   9  15
ENDBRANCH   6   9
ENDBRANCH   1   6
BRANCH   5  18
ATOM     18  C   UNL     1       3.221   6.544  17.478  0.00  0.00    +0.000 C 
ATOM     19  O   UNL     1       2.303   5.760  17.719  0.00  0.00    +0.000 OA
BRANCH  18  20
ATOM     20  C   UNL     1       2.955   8.035  17.486  0.00  0.00    +0.000 C 
BRANCH  20  21
ATOM     21  C   UNL     1       1.963   8.582  18.499  0.00  0.00    +0.000 A 
ATOM     22  C   UNL     1       1.061   9.586  18.057  0.00  0.00    +0.000 A 
ATOM     23  C   UNL     1       0.148  10.184  18.927  0.00  0.00    +0.000 A 
ATOM     24  C   UNL     1       0.163   9.767  20.239  0.00  0.00    +0.000 A 
ATOM     25  C   UNL     1       1.048   8.813  20.688  0.00  0.00    +0.000 A 
ATOM     26  C   UNL     1       1.961   8.207  19.850  0.00  0.00    +0.000 A 
ATOM     27  O   UNL     1       0.906   8.562  22.015  0.00  0.00    +0.000 OA
ATOM     28  C   UNL     1      -0.165   9.469  22.349  0.00  0.00    +0.000 C 
ATOM     29  O   UNL     1      -0.648  10.237  21.230  0.00  0.00    +0.000 OA
ENDBRANCH  20  21
ENDBRANCH  18  20
ENDBRANCH   5  18
TORSDOF 6
ENDMDL
MODEL 3
REMARK VINA RESULT:      -8.3      1.253      1.464
REMARK  Name = 
REMARK  7 active torsions:
REMARK  status: ('A' for Active; 'I' for Inactive)
REMARK    1  A    between atoms: C_1  and  C_2
REMARK    2  A    between atoms: C_5  and  N_6
REMARK    3  A    between atoms: N_6  and  S_7
REMARK    4  A    between atoms: S_7  and  C_10
REMARK    5  A    between atoms: C_14  and  C_15
REMARK    6  A    between atoms: C_15  and  C_17
REMARK    7  A    between atoms: C_17  and  C_18
REMARK                            x       y       z     vdW  Elec       q    Type
REMARK                         _______ _______ _______ _____ _____    ______ ____
ROOT
ATOM      1  C   UNL     1       3.024   3.205  20.084  0.00  0.00    +0.000 A 
ATOM      2  C   UNL     1       2.558   2.484  21.245  0.00  0.00    +0.000 A 
ATOM      3  C   UNL     1       1.295   2.852  21.632  0.00  0.00    +0.000 A 
ATOM      4  S   UNL     1       0.658   4.054  20.617  0.00  0.00    +0.000 S 
ATOM      5  C   UNL     1       2.081   4.111  19.614  0.00  0.00    +0.000 A 
ENDROOT
BRANCH   1   6
ATOM      6  S   UNL     1       4.596   2.773  19.475  0.00  0.00    +0.000 S 
ATOM      7  O   UNL     1       4.333   2.284  18.136  0.00  0.00    +0.000 OA
ATOM      8  O   UNL     1       5.229   1.930  20.458  0.00  0.00    +0.000 OA
BRANCH   6   9
ATOM      9  N   UNL     1       5.483   4.198  19.292  0.00  0.00    +0.000 N 
ATOM     10  H   UNL     1       4.926   5.006  19.562  0.00  0.00    +0.000 HD
BRANCH   9  15
ATOM     11  C   UNL     1       7.189   4.705  14.557  0.00  0.00    +0.000 C 
ATOM     12  C   UNL     1       6.988   4.532  16.016  0.00  0.00    +0.000 A 
ATOM     13  N   UNL     1       8.058   4.451  16.816  0.00  0.00    +0.000 NA
ATOM     14  O   UNL     1       7.568   4.293  18.089  0.00  0.00    +0.000 OA
ATOM     15  C   UNL     1       6.209   4.285  18.069  0.00  0.00    +0.000 A 
ATOM     16  C   UNL     1       5.785   4.444  16.767  0.00  0.00    +0.000 A 
ATOM     17 CL   UNL     1       4.219   4.531  16.116  0.00  0.00    +0.000 Cl
ENDBRANCH   9  15
ENDBRANCH   6   9
ENDBRANCH   1   6
BRANCH   5  18
ATOM     18  C   UNL     1       1.988   5.072  18.500  0.00  0.00    +0.000 C 
ATOM     19  O   UNL     1       1.285   4.850  17.513  0.00  0.00    +0.000 OA
BRANCH  18  20
ATOM     20  C   UNL     1       2.811   6.341  18.564  0.00  0.00    +0.000 C 
BRANCH  20  21
ATOM     21  C   UNL     1       2.104   7.637  18.927  0.00  0.00    +0.000 A 
ATOM     22  C   UNL     1       1.936   8.603  17.899  0.00  0.00    +0.000 A 
ATOM     23  C   UNL     1       1.344   9.842  18.149  0.00  0.00    +0.000 A 
ATOM     24  C   UNL     1       0.937  10.096  19.439  0.00  0.00    +0.000 A 
ATOM     25  C   UNL     1       1.116   9.181  20.452  0.00  0.00    +0.000 A 
ATOM     26  C   UNL     1       1.699   7.949  20.232  0.00  0.00    +0.000 A 
ATOM     27  O   UNL     1       0.661   9.637  21.647  0.00  0.00    +0.000 OA
ATOM     28  C   UNL     1       0.180  10.945  21.271  0.00  0.00    +0.000 C 
ATOM     29  O   UNL     1       0.346  11.247  19.872  0.00  0.00    +0.000 OA
ENDBRANCH  20  21
ENDBRANCH  18  20
ENDBRANCH   5  18
TORSDOF 6
ENDMDL
MODEL 4
REMARK VINA RESULT:      -8.2      2.386      3.405
REMARK  Name = 
REMARK  7 active torsions:
REMARK  status: ('A' for Active; 'I' for Inactive)
REMARK    1  A    between atoms: C_1  and  C_2
REMARK    2  A    between atoms: C_5  and  N_6
REMARK    3  A    between atoms: N_6  and  S_7
REMARK    4  A    between atoms: S_7  and  C_10
REMARK    5  A    between atoms: C_14  and  C_15
REMARK    6  A    between atoms: C_15  and  C_17
REMARK    7  A    between atoms: C_17  and  C_18
REMARK                            x       y       z     vdW  Elec       q    Type
REMARK                         _______ _______ _______ _____ _____    ______ ____
ROOT
ATOM      1  C   UNL     1       4.955   5.038  18.966  0.00  0.00    +0.000 A 
ATOM      2  C   UNL     1       4.725   3.742  19.562  0.00  0.00    +0.000 A 
ATOM      3  C   UNL     1       3.395   3.431  19.669  0.00  0.00    +0.000 A 
ATOM      4  S   UNL     1       2.412   4.675  19.063  0.00  0.00    +0.000 S 
ATOM      5  C   UNL     1       3.768   5.679  18.630  0.00  0.00    +0.000 A 
ENDROOT
BRANCH   1   6
ATOM      6  S   UNL     1       6.614   5.507  18.732  0.00  0.00    +0.000 S 
ATOM      7  O   UNL     1       7.193   5.424  20.057  0.00  0.00    +0.000 OA
ATOM      8  O   UNL     1       6.617   6.749  18.000  0.00  0.00    +0.000 OA
BRANCH   6   9
ATOM      9  N   UNL     1       7.361   4.304  17.813  0.00  0.00    +0.000 N 
ATOM     10  H   UNL     1       8.341   4.209  18.072  0.00  0.00    +0.000 HD
BRANCH   9  15
ATOM     11  C   UNL     1       5.411   4.104  13.151  0.00  0.00    +0.000 C 
ATOM     12  C   UNL     1       6.219   4.304  14.378  0.00  0.00    +0.000 A 
ATOM     13  N   UNL     1       7.371   4.980  14.296  0.00  0.00    +0.000 NA
ATOM     14  O   UNL     1       7.888   5.001  15.568  0.00  0.00    +0.000 OA
ATOM     15  C   UNL     1       7.055   4.350  16.423  0.00  0.00    +0.000 A 
ATOM     16  C   UNL     1       5.965   3.892  15.714  0.00  0.00    +0.000 A 
ATOM     17 CL   UNL     1       4.593   3.033  16.227  0.00  0.00    +0.000 Cl
ENDBRANCH   9  15
ENDBRANCH   6   9
ENDBRANCH   1   6
BRANCH   5  18
ATOM     18  C   UNL     1       3.389   6.959  18.004  0.00  0.00    +0.000 C 
ATOM     19  O   UNL     1       4.218   7.672  17.438  0.00  0.00    +0.000 OA
BRANCH  18  20
ATOM     20  C   UNL     1       1.948   7.415  18.097  0.00  0.00    +0.000 C 
BRANCH  20  21
ATOM     21  C   UNL     1       1.588   8.445  19.156  0.00  0.00    +0.000 A 
ATOM     22  C   UNL     1       1.548   8.011  20.507  0.00  0.00    +0.000 A 
ATOM     23  C   UNL     1       1.180   8.871  21.542  0.00  0.00    +0.000 A 
ATOM     24  C   UNL     1       0.845  10.162  21.198  0.00  0.00    +0.000 A 
ATOM     25  C   UNL     1       0.854  10.591  19.890  0.00  0.00    +0.000 A 
ATOM     26  C   UNL     1       1.214   9.760  18.848  0.00  0.00    +0.000 A 
ATOM     27  O   UNL     1       0.475  11.889  19.770  0.00  0.00    +0.000 OA
ATOM     28  C   UNL     1       0.223  12.226  21.150  0.00  0.00    +0.000 C 
ATOM     29  O   UNL     1       0.457  11.139  22.067  0.00  0.00    +0.000 OA
ENDBRANCH  20  21
ENDBRANCH  18  20
ENDBRANCH   5  18
TORSDOF 6
ENDMDL
MODEL 5
REMARK VINA RESULT:      -8.1      2.381      3.290
REMARK  Name = 
REMARK  7 active torsions:
REMARK  status: ('A' for Active; 'I' for Inactive)
REMARK    1  A    between atoms: C_1  and  C_2
REMARK    2  A    between atoms: C_5  and  N_6
REMARK    3  A    between atoms: N_6  and  S_7
REMARK    4  A    between atoms: S_7  and  C_10
REMARK    5  A    between atoms: C_14  and  C_15
REMARK    6  A    between atoms: C_15  and  C_17
REMARK    7  A    between atoms: C_17  and  C_18
REMARK                            x       y       z     vdW  Elec       q    Type
REMARK                         _______ _______ _______ _____ _____    ______ ____
ROOT
ATOM      1  C   UNL     1       4.946   4.565  19.153  0.00  0.00    +0.000 A 
ATOM      2  C   UNL     1       4.891   3.167  19.512  0.00  0.00    +0.000 A 
ATOM      3  C   UNL     1       3.614   2.722  19.737  0.00  0.00    +0.000 A 
ATOM      4  S   UNL     1       2.475   3.963  19.523  0.00  0.00    +0.000 S 
ATOM      5  C   UNL     1       3.685   5.147  19.113  0.00  0.00    +0.000 A 
ENDROOT
BRANCH   1   6
ATOM      6  S   UNL     1       6.519   5.217  18.791  0.00  0.00    +0.000 S 
ATOM      7  O   UNL     1       7.273   4.073  18.320  0.00  0.00    +0.000 OA
ATOM      8  O   UNL     1       6.955   5.968  19.941  0.00  0.00    +0.000 OA
BRANCH   6   9
ATOM      9  N   UNL     1       6.351   6.250  17.466  0.00  0.00    +0.000 N 
ATOM     10  H   UNL     1       5.518   6.828  17.562  0.00  0.00    +0.000 HD
BRANCH   9  15
ATOM     11  C   UNL     1       6.216   3.708  13.095  0.00  0.00    +0.000 C 
ATOM     12  C   UNL     1       6.530   4.552  14.274  0.00  0.00    +0.000 A 
ATOM     13  N   UNL     1       7.648   5.286  14.270  0.00  0.00    +0.000 NA
ATOM     14  O   UNL     1       7.671   5.947  15.473  0.00  0.00    +0.000 OA
ATOM     15  C   UNL     1       6.570   5.627  16.204  0.00  0.00    +0.000 A 
ATOM     16  C   UNL     1       5.800   4.744  15.478  0.00  0.00    +0.000 A 
ATOM     17 CL   UNL     1       4.316   4.006  15.848  0.00  0.00    +0.000 Cl
ENDBRANCH   9  15
ENDBRANCH   6   9
ENDBRANCH   1   6
BRANCH   5  18
ATOM     18  C   UNL     1       3.136   6.480  18.805  0.00  0.00    +0.000 C 
ATOM     19  O   UNL     1       3.797   7.327  18.203  0.00  0.00    +0.000 OA
BRANCH  18  20
ATOM     20  C   UNL     1       1.737   6.817  19.277  0.00  0.00    +0.000 C 
BRANCH  20  21
ATOM     21  C   UNL     1       1.493   8.194  19.872  0.00  0.00    +0.000 A 
ATOM     22  C   UNL     1       1.331   8.281  21.280  0.00  0.00    +0.000 A 
ATOM     23  C   UNL     1       1.053   9.494  21.912  0.00  0.00    +0.000 A 
ATOM     24  C   UNL     1       0.932  10.607  21.111  0.00  0.00    +0.000 A 
ATOM     25  C   UNL     1       1.060  10.535  19.743  0.00  0.00    +0.000 A 
ATOM     26  C   UNL     1       1.333   9.349  19.092  0.00  0.00    +0.000 A 
ATOM     27  O   UNL     1       0.886  11.741  19.144  0.00  0.00    +0.000 OA
ATOM     28  C   UNL     1       0.629  12.578  20.291  0.00  0.00    +0.000 C 
ATOM     29  O   UNL     1       0.659  11.871  21.546  0.00  0.00    +0.000 OA
ENDBRANCH  20  21
ENDBRANCH  18  20
ENDBRANCH   5  18
TORSDOF 6
ENDMDL
MODEL 6
REMARK VINA RESULT:      -8.1      3.387      5.502
REMARK  Name = 
REMARK  7 active torsions:
REMARK  status: ('A' for Active; 'I' for Inactive)
REMARK    1  A    between atoms: C_1  and  C_2
REMARK    2  A    between atoms: C_5  and  N_6
REMARK    3  A    between atoms: N_6  and  S_7
REMARK    4  A    between atoms: S_7  and  C_10
REMARK    5  A    between atoms: C_14  and  C_15
REMARK    6  A    between atoms: C_15  and  C_17
REMARK    7  A    between atoms: C_17  and  C_18
REMARK                            x       y       z     vdW  Elec       q    Type
REMARK                         _______ _______ _______ _____ _____    ______ ____
ROOT
ATOM      1  C   UNL     1       7.107   6.237  17.730  0.00  0.00    +0.000 A 
ATOM      2  C   UNL     1       8.257   6.867  18.334  0.00  0.00    +0.000 A 
ATOM      3  C   UNL     1       8.201   8.236  18.291  0.00  0.00    +0.000 A 
ATOM      4  S   UNL     1       6.783   8.779  17.533  0.00  0.00    +0.000 S 
ATOM      5  C   UNL     1       6.195   7.165  17.242  0.00  0.00    +0.000 A 
ENDROOT
BRANCH   1   6
ATOM      6  S   UNL     1       7.051   4.498  17.782  0.00  0.00    +0.000 S 
ATOM      7  O   UNL     1       6.178   4.208  18.901  0.00  0.00    +0.000 OA
ATOM      8  O   UNL     1       8.409   4.017  17.761  0.00  0.00    +0.000 OA
BRANCH   6   9
ATOM      9  N   UNL     1       6.238   3.971  16.400  0.00  0.00    +0.000 N 
ATOM     10  H   UNL     1       6.005   2.983  16.473  0.00  0.00    +0.000 HD
BRANCH   9  15
ATOM     11  C   UNL     1       7.480   5.162  11.644  0.00  0.00    +0.000 C 
ATOM     12  C   UNL     1       7.366   4.978  13.111  0.00  0.00    +0.000 A 
ATOM     13  N   UNL     1       8.237   5.599  13.914  0.00  0.00    +0.000 NA
ATOM     14  O   UNL     1       7.892   5.243  15.194  0.00  0.00    +0.000 OA
ATOM     15  C   UNL     1       6.812   4.416  15.175  0.00  0.00    +0.000 A 
ATOM     16  C   UNL     1       6.430   4.221  13.865  0.00  0.00    +0.000 A 
ATOM     17 CL   UNL     1       5.154   3.312  13.209  0.00  0.00    +0.000 Cl
ENDBRANCH   9  15
ENDBRANCH   6   9
ENDBRANCH   1   6
BRANCH   5  18
ATOM     18  C   UNL     1       4.884   7.119  16.568  0.00  0.00    +0.000 C 
ATOM     19  O   UNL     1       4.790   7.070  15.341  0.00  0.00    +0.000 OA
BRANCH  18  20
ATOM     20  C   UNL     1       3.630   7.172  17.414  0.00  0.00    +0.000 C 
BRANCH  20  21
ATOM     21  C   UNL     1       3.230   5.925  18.185  0.00  0.00    +0.000 A 
ATOM     22  C   UNL     1       3.019   4.733  17.440  0.00  0.00    +0.000 A 
ATOM     23  C   UNL     1       2.602   3.551  18.054  0.00  0.00    +0.000 A 
ATOM     24  C   UNL     1       2.392   3.589  19.414  0.00  0.00    +0.000 A 
ATOM     25  C   UNL     1       2.566   4.741  20.145  0.00  0.00    +0.000 A 
ATOM     26  C   UNL     1       2.978   5.924  19.564  0.00  0.00    +0.000 A 
ATOM     27  O   UNL     1       2.289   4.564  21.462  0.00  0.00    +0.000 OA
ATOM     28  C   UNL     1       1.915   3.171  21.475  0.00  0.00    +0.000 C 
ATOM     29  O   UNL     1       1.980   2.539  20.182  0.00  0.00    +0.000 OA
ENDBRANCH  20  21
ENDBRANCH  18  20
ENDBRANCH   5  18
TORSDOF 6
ENDMDL
MODEL 7
REMARK VINA RESULT:      -8.1      2.237      4.352
REMARK  Name = 
REMARK  7 active torsions:
REMARK  status: ('A' for Active; 'I' for Inactive)
REMARK    1  A    between atoms: C_1  and  C_2
REMARK    2  A    between atoms: C_5  and  N_6
REMARK    3  A    between atoms: N_6  and  S_7
REMARK    4  A    between atoms: S_7  and  C_10
REMARK    5  A    between atoms: C_14  and  C_15
REMARK    6  A    between atoms: C_15  and  C_17
REMARK    7  A    between atoms: C_17  and  C_18
REMARK                            x       y       z     vdW  Elec       q    Type
REMARK                         _______ _______ _______ _____ _____    ______ ____
ROOT
ATOM      1  C   UNL     1       5.579   5.384  17.817  0.00  0.00    +0.000 A 
ATOM      2  C   UNL     1       6.754   5.227  16.993  0.00  0.00    +0.000 A 
ATOM      3  C   UNL     1       6.610   5.778  15.746  0.00  0.00    +0.000 A 
ATOM      4  S   UNL     1       5.079   6.484  15.550  0.00  0.00    +0.000 S 
ATOM      5  C   UNL     1       4.562   6.066  17.159  0.00  0.00    +0.000 A 
ENDROOT
BRANCH   1   6
ATOM      6  S   UNL     1       5.676   4.767  19.442  0.00  0.00    +0.000 S 
ATOM      7  O   UNL     1       4.541   5.366  20.114  0.00  0.00    +0.000 OA
ATOM      8  O   UNL     1       7.019   4.994  19.915  0.00  0.00    +0.000 OA
BRANCH   6   9
ATOM      9  N   UNL     1       5.367   3.109  19.379  0.00  0.00    +0.000 N 
ATOM     10  H   UNL     1       6.130   2.617  18.919  0.00  0.00    +0.000 HD
BRANCH   9  15
ATOM     11  C   UNL     1       0.429   2.131  18.893  0.00  0.00    +0.000 C 
ATOM     12  C   UNL     1       1.883   2.368  18.731  0.00  0.00    +0.000 A 
ATOM     13  N   UNL     1       2.415   2.338  17.504  0.00  0.00    +0.000 NA
ATOM     14  O   UNL     1       3.756   2.584  17.666  0.00  0.00    +0.000 OA
ATOM     15  C   UNL     1       4.041   2.773  18.982  0.00  0.00    +0.000 A 
ATOM     16  C   UNL     1       2.875   2.655  19.708  0.00  0.00    +0.000 A 
ATOM     17 CL   UNL     1       2.590   2.802  21.375  0.00  0.00    +0.000 Cl
ENDBRANCH   9  15
ENDBRANCH   6   9
ENDBRANCH   1   6
BRANCH   5  18
ATOM     18  C   UNL     1       3.198   6.518  17.486  0.00  0.00    +0.000 C 
ATOM     19  O   UNL     1       2.289   5.719  17.712  0.00  0.00    +0.000 OA
BRANCH  18  20
ATOM     20  C   UNL     1       2.910   8.005  17.503  0.00  0.00    +0.000 C 
BRANCH  20  21
ATOM     21  C   UNL     1       2.078   8.562  18.647  0.00  0.00    +0.000 A 
ATOM     22  C   UNL     1       2.029   7.808  19.850  0.00  0.00    +0.000 A 
ATOM     23  C   UNL     1       1.252   8.213  20.936  0.00  0.00    +0.000 A 
ATOM     24  C   UNL     1       0.524   9.372  20.792  0.00  0.00    +0.000 A 
ATOM     25  C   UNL     1       0.540  10.100  19.623  0.00  0.00    +0.000 A 
ATOM     26  C   UNL     1       1.298   9.721  18.534  0.00  0.00    +0.000 A 
ATOM     27  O   UNL     1      -0.260  11.195  19.686  0.00  0.00    +0.000 OA
ATOM     28  C   UNL     1      -0.785  11.070  21.024  0.00  0.00    +0.000 C 
ATOM     29  O   UNL     1      -0.292   9.920  21.738  0.00  0.00    +0.000 OA
ENDBRANCH  20  21
ENDBRANCH  18  20
ENDBRANCH   5  18
TORSDOF 6
ENDMDL
MODEL 8
REMARK VINA RESULT:      -8.1      2.660      3.374
REMARK  Name = 
REMARK  7 active torsions:
REMARK  status: ('A' for Active; 'I' for Inactive)
REMARK    1  A    between atoms: C_1  and  C_2
REMARK    2  A    between atoms: C_5  and  N_6
REMARK    3  A    between atoms: N_6  and  S_7
REMARK    4  A    between atoms: S_7  and  C_10
REMARK    5  A    between atoms: C_14  and  C_15
REMARK    6  A    between atoms: C_15  and  C_17
REMARK    7  A    between atoms: C_17  and  C_18
REMARK                            x       y       z     vdW  Elec       q    Type
REMARK                         _______ _______ _______ _____ _____    ______ ____
ROOT
ATOM      1  C   UNL     1       3.484   4.023  17.969  0.00  0.00    +0.000 A 
ATOM      2  C   UNL     1       3.115   2.751  17.391  0.00  0.00    +0.000 A 
ATOM      3  C   UNL     1       1.957   2.241  17.916  0.00  0.00    +0.000 A 
ATOM      4  S   UNL     1       1.302   3.269  19.098  0.00  0.00    +0.000 S 
ATOM      5  C   UNL     1       2.574   4.447  18.930  0.00  0.00    +0.000 A 
ENDROOT
BRANCH   1   6
ATOM      6  S   UNL     1       4.912   4.786  17.331  0.00  0.00    +0.000 S 
ATOM      7  O   UNL     1       5.755   4.982  18.493  0.00  0.00    +0.000 OA
ATOM      8  O   UNL     1       4.487   5.906  16.529  0.00  0.00    +0.000 OA
BRANCH   6   9
ATOM      9  N   UNL     1       5.704   3.657  16.357  0.00  0.00    +0.000 N 
ATOM     10  H   UNL     1       6.162   2.948  16.926  0.00  0.00    +0.000 HD
BRANCH   9  15
ATOM     11  C   UNL     1       7.683   5.313  12.007  0.00  0.00    +0.000 C 
ATOM     12  C   UNL     1       7.332   4.990  13.411  0.00  0.00    +0.000 A 
ATOM     13  N   UNL     1       8.032   5.552  14.403  0.00  0.00    +0.000 NA
ATOM     14  O   UNL     1       7.489   5.071  15.569  0.00  0.00    +0.000 OA
ATOM     15  C   UNL     1       6.460   4.227  15.292  0.00  0.00    +0.000 A 
ATOM     16  C   UNL     1       6.310   4.146  13.925  0.00  0.00    +0.000 A 
ATOM     17 CL   UNL     1       5.197   3.276  12.982  0.00  0.00    +0.000 Cl
ENDBRANCH   9  15
ENDBRANCH   6   9
ENDBRANCH   1   6
BRANCH   5  18
ATOM     18  C   UNL     1       2.421   5.621  19.808  0.00  0.00    +0.000 C 
ATOM     19  O   UNL     1       2.049   5.509  20.977  0.00  0.00    +0.000 OA
BRANCH  18  20
ATOM     20  C   UNL     1       2.695   6.996  19.237  0.00  0.00    +0.000 C 
BRANCH  20  21
ATOM     21  C   UNL     1       1.795   8.144  19.665  0.00  0.00    +0.000 A 
ATOM     22  C   UNL     1       1.343   8.156  21.012  0.00  0.00    +0.000 A 
ATOM     23  C   UNL     1       0.474   9.141  21.483  0.00  0.00    +0.000 A 
ATOM     24  C   UNL     1       0.062  10.099  20.585  0.00  0.00    +0.000 A 
ATOM     25  C   UNL     1       0.471  10.086  19.271  0.00  0.00    +0.000 A 
ATOM     26  C   UNL     1       1.329   9.124  18.778  0.00  0.00    +0.000 A 
ATOM     27  O   UNL     1      -0.065  11.107  18.554  0.00  0.00    +0.000 OA
ATOM     28  C   UNL     1      -0.860  11.760  19.565  0.00  0.00    +0.000 C 
ATOM     29  O   UNL     1      -0.786  11.132  20.860  0.00  0.00    +0.000 OA
ENDBRANCH  20  21
ENDBRANCH  18  20
ENDBRANCH   5  18
TORSDOF 6
ENDMDL
MODEL 9
REMARK VINA RESULT:      -8.0      3.189      6.176
REMARK  Name = 
REMARK  7 active torsions:
REMARK  status: ('A' for Active; 'I' for Inactive)
REMARK    1  A    between atoms: C_1  and  C_2
REMARK    2  A    between atoms: C_5  and  N_6
REMARK    3  A    between atoms: N_6  and  S_7
REMARK    4  A    between atoms: S_7  and  C_10
REMARK    5  A    between atoms: C_14  and  C_15
REMARK    6  A    between atoms: C_15  and  C_17
REMARK    7  A    between atoms: C_17  and  C_18
REMARK                            x       y       z     vdW  Elec       q    Type
REMARK                         _______ _______ _______ _____ _____    ______ ____
ROOT
ATOM      1  C   UNL     1       2.259   4.551  19.828  0.00  0.00    +0.000 A 
ATOM      2  C   UNL     1       1.818   4.155  21.145  0.00  0.00    +0.000 A 
ATOM      3  C   UNL     1       1.683   2.797  21.278  0.00  0.00    +0.000 A 
ATOM      4  S   UNL     1       2.078   1.988  19.839  0.00  0.00    +0.000 S 
ATOM      5  C   UNL     1       2.451   3.462  18.988  0.00  0.00    +0.000 A 
ENDROOT
BRANCH   1   6
ATOM      6  S   UNL     1       2.517   6.253  19.570  0.00  0.00    +0.000 S 
ATOM      7  O   UNL     1       1.803   6.535  18.342  0.00  0.00    +0.000 OA
ATOM      8  O   UNL     1       3.933   6.501  19.676  0.00  0.00    +0.000 OA
BRANCH   6   9
ATOM      9  N   UNL     1       1.701   7.085  20.792  0.00  0.00    +0.000 N 
ATOM     10  H   UNL     1       1.040   6.473  21.266  0.00  0.00    +0.000 HD
BRANCH   9  15
ATOM     11  C   UNL     1      -0.345  11.689  20.341  0.00  0.00    +0.000 C 
ATOM     12  C   UNL     1       0.382  10.404  20.199  0.00  0.00    +0.000 A 
ATOM     13  N   UNL     1       1.184  10.223  19.144  0.00  0.00    +0.000 NA
ATOM     14  O   UNL     1       1.709   8.961  19.280  0.00  0.00    +0.000 OA
ATOM     15  C   UNL     1       1.237   8.378  20.414  0.00  0.00    +0.000 A 
ATOM     16  C   UNL     1       0.390   9.263  21.046  0.00  0.00    +0.000 A 
ATOM     17 CL   UNL     1      -0.481   9.117  22.496  0.00  0.00    +0.000 Cl
ENDBRANCH   9  15
ENDBRANCH   6   9
ENDBRANCH   1   6
BRANCH   5  18
ATOM     18  C   UNL     1       2.892   3.253  17.597  0.00  0.00    +0.000 C 
ATOM     19  O   UNL     1       2.085   3.088  16.681  0.00  0.00    +0.000 OA
BRANCH  18  20
ATOM     20  C   UNL     1       4.377   3.205  17.304  0.00  0.00    +0.000 C 
BRANCH  20  21
ATOM     21  C   UNL     1       5.157   4.510  17.332  0.00  0.00    +0.000 A 
ATOM     22  C   UNL     1       4.797   5.509  16.389  0.00  0.00    +0.000 A 
ATOM     23  C   UNL     1       5.488   6.719  16.305  0.00  0.00    +0.000 A 
ATOM     24  C   UNL     1       6.543   6.902  17.171  0.00  0.00    +0.000 A 
ATOM     25  C   UNL     1       6.920   5.933  18.072  0.00  0.00    +0.000 A 
ATOM     26  C   UNL     1       6.255   4.728  18.175  0.00  0.00    +0.000 A 
ATOM     27  O   UNL     1       7.992   6.309  18.816  0.00  0.00    +0.000 OA
ATOM     28  C   UNL     1       8.250   7.622  18.275  0.00  0.00    +0.000 C 
ATOM     29  O   UNL     1       7.334   8.012  17.233  0.00  0.00    +0.000 OA
ENDBRANCH  20  21
ENDBRANCH  18  20
ENDBRANCH   5  18
TORSDOF 6
ENDMDL
