MODEL 1
REMARK VINA RESULT:      -8.1      0.000      0.000
REMARK  Name = 
REMARK  5 active torsions:
REMARK  status: ('A' for Active; 'I' for Inactive)
REMARK    1  A    between atoms: C_1  and  C_2
REMARK    2  A    between atoms: C_14  and  C_16
REMARK    3  A    between atoms: C_16  and  C_17
REMARK    4  A    between atoms: C_21  and  C_22
REMARK    5  A    between atoms: C_24  and  C_25
REMARK                            x       y       z     vdW  Elec       q    Type
REMARK                         _______ _______ _______ _____ _____    ______ ____
ROOT
ATOM      1  C   UNL     1       6.622   5.058  14.109  0.00  0.00    +0.000 C 
ATOM      2  C   UNL     1       5.864   5.084  15.407  0.00  0.00    +0.000 A 
ATOM      3  C   UNL     1       5.923   3.968  16.254  0.00  0.00    +0.000 A 
ATOM      4  C   UNL     1       5.227   3.928  17.460  0.00  0.00    +0.000 A 
ATOM      5  C   UNL     1       4.475   5.055  17.786  0.00  0.00    +0.000 A 
ATOM      6  C   UNL     1       4.386   6.206  16.996  0.00  0.00    +0.000 A 
ATOM      7  C   UNL     1       5.092   6.215  15.775  0.00  0.00    +0.000 A 
ATOM      8  N   UNL     1       3.560   7.177  17.597  0.00  0.00    +0.000 NA
ATOM      9  C   UNL     1       3.145   6.603  18.699  0.00  0.00    +0.000 A 
ATOM     10  N   UNL     1       3.686   5.357  18.831  0.00  0.00    +0.000 N 
ATOM     11  C   UNL     1       3.283   4.668  20.038  0.00  0.00    +0.000 C 
ATOM     12  C   UNL     1       2.149   5.569  20.526  0.00  0.00    +0.000 C 
ATOM     13  N   UNL     1       2.309   6.825  19.766  0.00  0.00    +0.000 N 
ATOM     14  C   UNL     1       1.626   7.955  20.131  0.00  0.00    +0.000 C 
ATOM     15  O   UNL     1       0.817   7.902  21.073  0.00  0.00    +0.000 OA
ENDROOT
BRANCH  14  16
ATOM     16  C   UNL     1       1.846   9.275  19.428  0.00  0.00    +0.000 C 
BRANCH  16  17
ATOM     17  C   UNL     1       0.559   9.937  19.079  0.00  0.00    +0.000 A 
ATOM     18  N   UNL     1      -0.127   9.662  17.928  0.00  0.00    +0.000 NA
ATOM     19  C   UNL     1      -1.221  10.381  18.028  0.00  0.00    +0.000 A 
ATOM     20  N   UNL     1      -2.269  10.468  17.156  0.00  0.00    +0.000 NA
ATOM     21  C   UNL     1      -3.258  11.231  17.515  0.00  0.00    +0.000 A 
ATOM     22  C   UNL     1      -4.447  11.358  16.590  0.00  0.00    +0.000 C 
ATOM     23  C   UNL     1      -3.330  12.011  18.793  0.00  0.00    +0.000 A 
ATOM     24  C   UNL     1      -2.272  11.911  19.617  0.00  0.00    +0.000 A 
ATOM     25  C   UNL     1      -2.209  12.634  20.926  0.00  0.00    +0.000 C 
ATOM     26  N   UNL     1      -1.200  11.088  19.239  0.00  0.00    +0.000 N 
ATOM     27  N   UNL     1      -0.046  10.808  19.900  0.00  0.00    +0.000 NA
ENDBRANCH  16  17
ENDBRANCH  14  16
TORSDOF 2
ENDMDL
MODEL 2
REMARK VINA RESULT:      -7.7      1.173      2.538
REMARK  Name = 
REMARK  5 active torsions:
REMARK  status: ('A' for Active; 'I' for Inactive)
REMARK    1  A    between atoms: C_1  and  C_2
REMARK    2  A    between atoms: C_14  and  C_16
REMARK    3  A    between atoms: C_16  and  C_17
REMARK    4  A    between atoms: C_21  and  C_22
REMARK    5  A    between atoms: C_24  and  C_25
REMARK                            x       y       z     vdW  Elec       q    Type
REMARK                         _______ _______ _______ _____ _____    ______ ____
ROOT
ATOM      1  C   UNL     1       6.552   5.110  14.437  0.00  0.00    +0.000 C 
ATOM      2  C   UNL     1       5.745   5.065  15.705  0.00  0.00    +0.000 A 
ATOM      3  C   UNL     1       5.732   3.885  16.463  0.00  0.00    +0.000 A 
ATOM      4  C   UNL     1       4.988   3.779  17.636  0.00  0.00    +0.000 A 
ATOM      5  C   UNL     1       4.264   4.905  18.022  0.00  0.00    +0.000 A 
ATOM      6  C   UNL     1       4.246   6.116  17.322  0.00  0.00    +0.000 A 
ATOM      7  C   UNL     1       4.999   6.192  16.131  0.00  0.00    +0.000 A 
ATOM      8  N   UNL     1       3.431   7.068  17.966  0.00  0.00    +0.000 NA
ATOM      9  C   UNL     1       2.954   6.428  19.005  0.00  0.00    +0.000 A 
ATOM     10  N   UNL     1       3.445   5.155  19.058  0.00  0.00    +0.000 N 
ATOM     11  C   UNL     1       2.972   4.391  20.192  0.00  0.00    +0.000 C 
ATOM     12  C   UNL     1       1.851   5.294  20.708  0.00  0.00    +0.000 C 
ATOM     13  N   UNL     1       2.084   6.598  20.054  0.00  0.00    +0.000 N 
ATOM     14  C   UNL     1       1.427   7.721  20.481  0.00  0.00    +0.000 C 
ATOM     15  O   UNL     1       0.581   7.627  21.386  0.00  0.00    +0.000 OA
ENDROOT
BRANCH  14  16
ATOM     16  C   UNL     1       1.721   9.083  19.892  0.00  0.00    +0.000 C 
BRANCH  16  17
ATOM     17  C   UNL     1       0.746  10.107  20.357  0.00  0.00    +0.000 A 
ATOM     18  N   UNL     1       0.939  10.857  21.484  0.00  0.00    +0.000 NA
ATOM     19  C   UNL     1      -0.087  11.675  21.505  0.00  0.00    +0.000 A 
ATOM     20  N   UNL     1      -0.381  12.654  22.411  0.00  0.00    +0.000 NA
ATOM     21  C   UNL     1      -1.449  13.358  22.176  0.00  0.00    +0.000 A 
ATOM     22  C   UNL     1      -1.818  14.459  23.144  0.00  0.00    +0.000 C 
ATOM     23  C   UNL     1      -2.367  13.173  21.006  0.00  0.00    +0.000 A 
ATOM     24  C   UNL     1      -2.052  12.189  20.146  0.00  0.00    +0.000 A 
ATOM     25  C   UNL     1      -2.879  11.893  18.934  0.00  0.00    +0.000 C 
ATOM     26  N   UNL     1      -0.899  11.426  20.389  0.00  0.00    +0.000 N 
ATOM     27  N   UNL     1      -0.364  10.407  19.665  0.00  0.00    +0.000 NA
ENDBRANCH  16  17
ENDBRANCH  14  16
TORSDOF 2
ENDMDL
MODEL 3
REMARK VINA RESULT:      -7.5      0.829      1.840
REMARK  Name = 
REMARK  5 active torsions:
REMARK  status: ('A' for Active; 'I' for Inactive)
REMARK    1  A    between atoms: C_1  and  C_2
REMARK    2  A    between atoms: C_14  and  C_16
REMARK    3  A    between atoms: C_16  and  C_17
REMARK    4  A    between atoms: C_21  and  C_22
REMARK    5  A    between atoms: C_24  and  C_25
REMARK                            x       y       z     vdW  Elec       q    Type
REMARK                         _______ _______ _______ _____ _____    ______ ____
ROOT
ATOM      1  C   UNL     1       7.210   5.109  13.871  0.00  0.00    +0.000 C 
ATOM      2  C   UNL     1       6.443   5.099  15.164  0.00  0.00    +0.000 A 
ATOM      3  C   UNL     1       6.609   4.022  16.047  0.00  0.00    +0.000 A 
ATOM      4  C   UNL     1       5.911   3.950  17.251  0.00  0.00    +0.000 A 
ATOM      5  C   UNL     1       5.044   5.003  17.536  0.00  0.00    +0.000 A 
ATOM      6  C   UNL     1       4.843   6.113  16.708  0.00  0.00    +0.000 A 
ATOM      7  C   UNL     1       5.555   6.155  15.491  0.00  0.00    +0.000 A 
ATOM      8  N   UNL     1       3.917   7.012  17.273  0.00  0.00    +0.000 NA
ATOM      9  C   UNL     1       3.554   6.434  18.391  0.00  0.00    +0.000 A 
ATOM     10  N   UNL     1       4.219   5.255  18.567  0.00  0.00    +0.000 N 
ATOM     11  C   UNL     1       3.879   4.568  19.794  0.00  0.00    +0.000 C 
ATOM     12  C   UNL     1       2.654   5.362  20.246  0.00  0.00    +0.000 C 
ATOM     13  N   UNL     1       2.690   6.602  19.445  0.00  0.00    +0.000 N 
ATOM     14  C   UNL     1       1.891   7.667  19.769  0.00  0.00    +0.000 C 
ATOM     15  O   UNL     1       1.085   7.562  20.709  0.00  0.00    +0.000 OA
ENDROOT
BRANCH  14  16
ATOM     16  C   UNL     1       1.981   8.980  19.025  0.00  0.00    +0.000 C 
BRANCH  16  17
ATOM     17  C   UNL     1       0.707   9.747  19.103  0.00  0.00    +0.000 A 
ATOM     18  N   UNL     1       0.373  10.521  20.179  0.00  0.00    +0.000 NA
ATOM     19  C   UNL     1      -0.766  11.075  19.834  0.00  0.00    +0.000 A 
ATOM     20  N   UNL     1      -1.534  11.958  20.538  0.00  0.00    +0.000 NA
ATOM     21  C   UNL     1      -2.608  12.390  19.946  0.00  0.00    +0.000 A 
ATOM     22  C   UNL     1      -3.492  13.375  20.677  0.00  0.00    +0.000 C 
ATOM     23  C   UNL     1      -3.058  11.994  18.572  0.00  0.00    +0.000 A 
ATOM     24  C   UNL     1      -2.283  11.111  17.918  0.00  0.00    +0.000 A 
ATOM     25  C   UNL     1      -2.611  10.629  16.540  0.00  0.00    +0.000 C 
ATOM     26  N   UNL     1      -1.120  10.641  18.548  0.00  0.00    +0.000 N 
ATOM     27  N   UNL     1      -0.176   9.776  18.092  0.00  0.00    +0.000 NA
ENDBRANCH  16  17
ENDBRANCH  14  16
TORSDOF 2
ENDMDL
MODEL 4
REMARK VINA RESULT:      -7.5      1.832      2.645
REMARK  Name = 
REMARK  5 active torsions:
REMARK  status: ('A' for Active; 'I' for Inactive)
REMARK    1  A    between atoms: C_1  and  C_2
REMARK    2  A    between atoms: C_14  and  C_16
REMARK    3  A    between atoms: C_16  and  C_17
REMARK    4  A    between atoms: C_21  and  C_22
REMARK    5  A    between atoms: C_24  and  C_25
REMARK                            x       y       z     vdW  Elec       q    Type
REMARK                         _______ _______ _______ _____ _____    ______ ____
ROOT
ATOM      1  C   UNL     1       7.910   5.703  14.281  0.00  0.00    +0.000 C 
ATOM      2  C   UNL     1       6.753   5.136  15.056  0.00  0.00    +0.000 A 
ATOM      3  C   UNL     1       6.250   3.874  14.706  0.00  0.00    +0.000 A 
ATOM      4  C   UNL     1       5.169   3.307  15.377  0.00  0.00    +0.000 A 
ATOM      5  C   UNL     1       4.615   4.053  16.416  0.00  0.00    +0.000 A 
ATOM      6  C   UNL     1       5.077   5.308  16.826  0.00  0.00    +0.000 A 
ATOM      7  C   UNL     1       6.167   5.863  16.122  0.00  0.00    +0.000 A 
ATOM      8  N   UNL     1       4.322   5.803  17.908  0.00  0.00    +0.000 NA
ATOM      9  C   UNL     1       3.416   4.879  18.112  0.00  0.00    +0.000 A 
ATOM     10  N   UNL     1       3.584   3.835  17.249  0.00  0.00    +0.000 N 
ATOM     11  C   UNL     1       2.625   2.766  17.429  0.00  0.00    +0.000 C 
ATOM     12  C   UNL     1       1.617   3.430  18.367  0.00  0.00    +0.000 C 
ATOM     13  N   UNL     1       2.316   4.620  18.893  0.00  0.00    +0.000 N 
ATOM     14  C   UNL     1       1.811   5.312  19.962  0.00  0.00    +0.000 C 
ATOM     15  O   UNL     1       0.723   4.968  20.453  0.00  0.00    +0.000 OA
ENDROOT
BRANCH  14  16
ATOM     16  C   UNL     1       2.558   6.473  20.578  0.00  0.00    +0.000 C 
BRANCH  16  17
ATOM     17  C   UNL     1       1.806   7.750  20.437  0.00  0.00    +0.000 A 
ATOM     18  N   UNL     1       1.685   8.411  19.245  0.00  0.00    +0.000 NA
ATOM     19  C   UNL     1       0.905   9.430  19.522  0.00  0.00    +0.000 A 
ATOM     20  N   UNL     1       0.444  10.405  18.684  0.00  0.00    +0.000 NA
ATOM     21  C   UNL     1      -0.357  11.286  19.206  0.00  0.00    +0.000 A 
ATOM     22  C   UNL     1      -0.901  12.385  18.322  0.00  0.00    +0.000 C 
ATOM     23  C   UNL     1      -0.802  11.309  20.638  0.00  0.00    +0.000 A 
ATOM     24  C   UNL     1      -0.315  10.341  21.433  0.00  0.00    +0.000 A 
ATOM     25  C   UNL     1      -0.676  10.243  22.882  0.00  0.00    +0.000 C 
ATOM     26  N   UNL     1       0.549   9.385  20.878  0.00  0.00    +0.000 N 
ATOM     27  N   UNL     1       1.145   8.311  21.461  0.00  0.00    +0.000 NA
ENDBRANCH  16  17
ENDBRANCH  14  16
TORSDOF 2
ENDMDL
MODEL 5
REMARK VINA RESULT:      -7.4      3.806      5.564
REMARK  Name = 
REMARK  5 active torsions:
REMARK  status: ('A' for Active; 'I' for Inactive)
REMARK    1  A    between atoms: C_1  and  C_2
REMARK    2  A    between atoms: C_14  and  C_16
REMARK    3  A    between atoms: C_16  and  C_17
REMARK    4  A    between atoms: C_21  and  C_22
REMARK    5  A    between atoms: C_24  and  C_25
REMARK                            x       y       z     vdW  Elec       q    Type
REMARK                         _______ _______ _______ _____ _____    ______ ____
ROOT
ATOM      1  C   UNL     1       4.829   5.646  16.563  0.00  0.00    +0.000 C 
ATOM      2  C   UNL     1       3.942   6.256  17.612  0.00  0.00    +0.000 A 
ATOM      3  C   UNL     1       3.709   5.552  18.802  0.00  0.00    +0.000 A 
ATOM      4  C   UNL     1       2.881   6.060  19.801  0.00  0.00    +0.000 A 
ATOM      5  C   UNL     1       2.300   7.304  19.561  0.00  0.00    +0.000 A 
ATOM      6  C   UNL     1       2.503   8.065  18.404  0.00  0.00    +0.000 A 
ATOM      7  C   UNL     1       3.337   7.521  17.405  0.00  0.00    +0.000 A 
ATOM      8  N   UNL     1       1.791   9.279  18.459  0.00  0.00    +0.000 NA
ATOM      9  C   UNL     1       1.159   9.226  19.605  0.00  0.00    +0.000 A 
ATOM     10  N   UNL     1       1.458   8.073  20.272  0.00  0.00    +0.000 N 
ATOM     11  C   UNL     1       0.805   7.953  21.558  0.00  0.00    +0.000 C 
ATOM     12  C   UNL     1      -0.207   9.096  21.482  0.00  0.00    +0.000 C 
ATOM     13  N   UNL     1       0.254   9.935  20.357  0.00  0.00    +0.000 N 
ATOM     14  C   UNL     1      -0.263  11.188  20.163  0.00  0.00    +0.000 C 
ATOM     15  O   UNL     1      -1.173  11.595  20.905  0.00  0.00    +0.000 OA
ENDROOT
BRANCH  14  16
ATOM     16  C   UNL     1       0.261  12.102  19.078  0.00  0.00    +0.000 C 
BRANCH  16  17
ATOM     17  C   UNL     1       1.429  12.899  19.544  0.00  0.00    +0.000 A 
ATOM     18  N   UNL     1       1.815  12.951  20.855  0.00  0.00    +0.000 NA
ATOM     19  C   UNL     1       2.904  13.684  20.840  0.00  0.00    +0.000 A 
ATOM     20  N   UNL     1       3.710  14.038  21.884  0.00  0.00    +0.000 NA
ATOM     21  C   UNL     1       4.762  14.744  21.589  0.00  0.00    +0.000 A 
ATOM     22  C   UNL     1       5.692  15.159  22.707  0.00  0.00    +0.000 C 
ATOM     23  C   UNL     1       5.145  15.192  20.211  0.00  0.00    +0.000 A 
ATOM     24  C   UNL     1       4.318  14.836  19.213  0.00  0.00    +0.000 A 
ATOM     25  C   UNL     1       4.578  15.214  17.788  0.00  0.00    +0.000 C 
ATOM     26  N   UNL     1       3.181  14.072  19.520  0.00  0.00    +0.000 N 
ATOM     27  N   UNL     1       2.220  13.576  18.698  0.00  0.00    +0.000 NA
ENDBRANCH  16  17
ENDBRANCH  14  16
TORSDOF 2
ENDMDL
MODEL 6
REMARK VINA RESULT:      -7.3      3.719      7.946
REMARK  Name = 
REMARK  5 active torsions:
REMARK  status: ('A' for Active; 'I' for Inactive)
REMARK    1  A    between atoms: C_1  and  C_2
REMARK    2  A    between atoms: C_14  and  C_16
REMARK    3  A    between atoms: C_16  and  C_17
REMARK    4  A    between atoms: C_21  and  C_22
REMARK    5  A    between atoms: C_24  and  C_25
REMARK                            x       y       z     vdW  Elec       q    Type
REMARK                         _______ _______ _______ _____ _____    ______ ____
ROOT
ATOM      1  C   UNL     1       1.133  10.640  19.790  0.00  0.00    +0.000 C 
ATOM      2  C   UNL     1       1.244   9.153  19.983  0.00  0.00    +0.000 A 
ATOM      3  C   UNL     1       0.498   8.539  20.999  0.00  0.00    +0.000 A 
ATOM      4  C   UNL     1       0.574   7.168  21.237  0.00  0.00    +0.000 A 
ATOM      5  C   UNL     1       1.426   6.437  20.411  0.00  0.00    +0.000 A 
ATOM      6  C   UNL     1       2.186   6.983  19.370  0.00  0.00    +0.000 A 
ATOM      7  C   UNL     1       2.096   8.375  19.159  0.00  0.00    +0.000 A 
ATOM      8  N   UNL     1       2.937   5.991  18.710  0.00  0.00    +0.000 NA
ATOM      9  C   UNL     1       2.654   4.891  19.362  0.00  0.00    +0.000 A 
ATOM     10  N   UNL     1       1.755   5.135  20.360  0.00  0.00    +0.000 N 
ATOM     11  C   UNL     1       1.382   3.958  21.114  0.00  0.00    +0.000 C 
ATOM     12  C   UNL     1       2.423   2.952  20.622  0.00  0.00    +0.000 C 
ATOM     13  N   UNL     1       2.990   3.560  19.402  0.00  0.00    +0.000 N 
ATOM     14  C   UNL     1       3.767   2.820  18.549  0.00  0.00    +0.000 C 
ATOM     15  O   UNL     1       4.046   1.646  18.841  0.00  0.00    +0.000 OA
ENDROOT
BRANCH  14  16
ATOM     16  C   UNL     1       4.277   3.392  17.246  0.00  0.00    +0.000 C 
BRANCH  16  17
ATOM     17  C   UNL     1       5.297   4.453  17.470  0.00  0.00    +0.000 A 
ATOM     18  N   UNL     1       5.337   5.610  16.741  0.00  0.00    +0.000 NA
ATOM     19  C   UNL     1       6.315   6.297  17.284  0.00  0.00    +0.000 A 
ATOM     20  N   UNL     1       6.771   7.541  16.952  0.00  0.00    +0.000 NA
ATOM     21  C   UNL     1       7.736   8.016  17.681  0.00  0.00    +0.000 A 
ATOM     22  C   UNL     1       8.276   9.392  17.361  0.00  0.00    +0.000 C 
ATOM     23  C   UNL     1       8.375   7.310  18.839  0.00  0.00    +0.000 A 
ATOM     24  C   UNL     1       7.908   6.082  19.124  0.00  0.00    +0.000 A 
ATOM     25  C   UNL     1       8.453   5.263  20.252  0.00  0.00    +0.000 C 
ATOM     26  N   UNL     1       6.865   5.561  18.343  0.00  0.00    +0.000 N 
ATOM     27  N   UNL     1       6.215   4.371  18.446  0.00  0.00    +0.000 NA
ENDBRANCH  16  17
ENDBRANCH  14  16
TORSDOF 2
ENDMDL
MODEL 7
REMARK VINA RESULT:      -7.3      1.790      2.942
REMARK  Name = 
REMARK  5 active torsions:
REMARK  status: ('A' for Active; 'I' for Inactive)
REMARK    1  A    between atoms: C_1  and  C_2
REMARK    2  A    between atoms: C_14  and  C_16
REMARK    3  A    between atoms: C_16  and  C_17
REMARK    4  A    between atoms: C_21  and  C_22
REMARK    5  A    between atoms: C_24  and  C_25
REMARK                            x       y       z     vdW  Elec       q    Type
REMARK                         _______ _______ _______ _____ _____    ______ ____
ROOT
ATOM      1  C   UNL     1       7.489   5.391  13.664  0.00  0.00    +0.000 C 
ATOM      2  C   UNL     1       6.505   4.949  14.711  0.00  0.00    +0.000 A 
ATOM      3  C   UNL     1       6.193   3.586  14.822  0.00  0.00    +0.000 A 
ATOM      4  C   UNL     1       5.275   3.121  15.761  0.00  0.00    +0.000 A 
ATOM      5  C   UNL     1       4.687   4.076  16.589  0.00  0.00    +0.000 A 
ATOM      6  C   UNL     1       4.966   5.447  16.542  0.00  0.00    +0.000 A 
ATOM      7  C   UNL     1       5.891   5.891  15.574  0.00  0.00    +0.000 A 
ATOM      8  N   UNL     1       4.225   6.153  17.510  0.00  0.00    +0.000 NA
ATOM      9  C   UNL     1       3.502   5.229  18.094  0.00  0.00    +0.000 A 
ATOM     10  N   UNL     1       3.773   3.998  17.570  0.00  0.00    +0.000 N 
ATOM     11  C   UNL     1       3.021   2.923  18.181  0.00  0.00    +0.000 C 
ATOM     12  C   UNL     1       1.993   3.709  18.995  0.00  0.00    +0.000 C 
ATOM     13  N   UNL     1       2.524   5.086  19.047  0.00  0.00    +0.000 N 
ATOM     14  C   UNL     1       1.996   6.006  19.913  0.00  0.00    +0.000 C 
ATOM     15  O   UNL     1       1.020   5.694  20.616  0.00  0.00    +0.000 OA
ENDROOT
BRANCH  14  16
ATOM     16  C   UNL     1       2.585   7.392  20.053  0.00  0.00    +0.000 C 
BRANCH  16  17
ATOM     17  C   UNL     1       1.555   8.394  20.441  0.00  0.00    +0.000 A 
ATOM     18  N   UNL     1       1.305   8.736  21.741  0.00  0.00    +0.000 NA
ATOM     19  C   UNL     1       0.399   9.682  21.656  0.00  0.00    +0.000 A 
ATOM     20  N   UNL     1      -0.192  10.391  22.662  0.00  0.00    +0.000 NA
ATOM     21  C   UNL     1      -1.037  11.311  22.302  0.00  0.00    +0.000 A 
ATOM     22  C   UNL     1      -1.717  12.131  23.375  0.00  0.00    +0.000 C 
ATOM     23  C   UNL     1      -1.405  11.642  20.886  0.00  0.00    +0.000 A 
ATOM     24  C   UNL     1      -0.813  10.911  19.926  0.00  0.00    +0.000 A 
ATOM     25  C   UNL     1      -1.086  11.134  18.472  0.00  0.00    +0.000 C 
ATOM     26  N   UNL     1       0.103   9.917  20.305  0.00  0.00    +0.000 N 
ATOM     27  N   UNL     1       0.838   9.075  19.533  0.00  0.00    +0.000 NA
ENDBRANCH  16  17
ENDBRANCH  14  16
TORSDOF 2
ENDMDL
MODEL 8
REMARK VINA RESULT:      -7.3      1.043      1.185
REMARK  Name = 
REMARK  5 active torsions:
REMARK  status: ('A' for Active; 'I' for Inactive)
REMARK    1  A    between atoms: C_1  and  C_2
REMARK    2  A    between atoms: C_14  and  C_16
REMARK    3  A    between atoms: C_16  and  C_17
REMARK    4  A    between atoms: C_21  and  C_22
REMARK    5  A    between atoms: C_24  and  C_25
REMARK                            x       y       z     vdW  Elec       q    Type
REMARK                         _______ _______ _______ _____ _____    ______ ____
ROOT
ATOM      1  C   UNL     1       7.010   4.544  13.176  0.00  0.00    +0.000 C 
ATOM      2  C   UNL     1       6.374   4.716  14.527  0.00  0.00    +0.000 A 
ATOM      3  C   UNL     1       6.662   3.790  15.540  0.00  0.00    +0.000 A 
ATOM      4  C   UNL     1       6.088   3.888  16.805  0.00  0.00    +0.000 A 
ATOM      5  C   UNL     1       5.217   4.956  17.016  0.00  0.00    +0.000 A 
ATOM      6  C   UNL     1       4.899   5.923  16.056  0.00  0.00    +0.000 A 
ATOM      7  C   UNL     1       5.487   5.793  14.780  0.00  0.00    +0.000 A 
ATOM      8  N   UNL     1       4.003   6.880  16.571  0.00  0.00    +0.000 NA
ATOM      9  C   UNL     1       3.771   6.473  17.794  0.00  0.00    +0.000 A 
ATOM     10  N   UNL     1       4.489   5.347  18.076  0.00  0.00    +0.000 N 
ATOM     11  C   UNL     1       4.294   4.848  19.420  0.00  0.00    +0.000 C 
ATOM     12  C   UNL     1       3.093   5.679  19.871  0.00  0.00    +0.000 C 
ATOM     13  N   UNL     1       3.008   6.783  18.894  0.00  0.00    +0.000 N 
ATOM     14  C   UNL     1       2.209   7.870  19.134  0.00  0.00    +0.000 C 
ATOM     15  O   UNL     1       1.502   7.893  20.156  0.00  0.00    +0.000 OA
ENDROOT
BRANCH  14  16
ATOM     16  C   UNL     1       2.181   9.055  18.196  0.00  0.00    +0.000 C 
BRANCH  16  17
ATOM     17  C   UNL     1       0.964   9.890  18.397  0.00  0.00    +0.000 A 
ATOM     18  N   UNL     1      -0.232   9.613  17.796  0.00  0.00    +0.000 NA
ATOM     19  C   UNL     1      -1.050  10.520  18.276  0.00  0.00    +0.000 A 
ATOM     20  N   UNL     1      -2.381  10.692  18.021  0.00  0.00    +0.000 NA
ATOM     21  C   UNL     1      -2.974  11.652  18.666  0.00  0.00    +0.000 A 
ATOM     22  C   UNL     1      -4.449  11.882  18.426  0.00  0.00    +0.000 C 
ATOM     23  C   UNL     1      -2.315  12.570  19.651  0.00  0.00    +0.000 A 
ATOM     24  C   UNL     1      -1.001  12.379  19.862  0.00  0.00    +0.000 A 
ATOM     25  C   UNL     1      -0.217  13.221  20.818  0.00  0.00    +0.000 C 
ATOM     26  N   UNL     1      -0.352  11.343  19.173  0.00  0.00    +0.000 N 
ATOM     27  N   UNL     1       0.944  10.940  19.232  0.00  0.00    +0.000 NA
ENDBRANCH  16  17
ENDBRANCH  14  16
TORSDOF 2
ENDMDL
MODEL 9
REMARK VINA RESULT:      -7.1      3.059      4.836
REMARK  Name = 
REMARK  5 active torsions:
REMARK  status: ('A' for Active; 'I' for Inactive)
REMARK    1  A    between atoms: C_1  and  C_2
REMARK    2  A    between atoms: C_14  and  C_16
REMARK    3  A    between atoms: C_16  and  C_17
REMARK    4  A    between atoms: C_21  and  C_22
REMARK    5  A    between atoms: C_24  and  C_25
REMARK                            x       y       z     vdW  Elec       q    Type
REMARK                         _______ _______ _______ _____ _____    ______ ____
ROOT
ATOM      1  C   UNL     1       5.197   2.848  10.950  0.00  0.00    +0.000 C 
ATOM      2  C   UNL     1       5.678   3.488  12.222  0.00  0.00    +0.000 A 
ATOM      3  C   UNL     1       6.928   4.123  12.237  0.00  0.00    +0.000 A 
ATOM      4  C   UNL     1       7.433   4.717  13.392  0.00  0.00    +0.000 A 
ATOM      5  C   UNL     1       6.631   4.653  14.530  0.00  0.00    +0.000 A 
ATOM      6  C   UNL     1       5.369   4.050  14.580  0.00  0.00    +0.000 A 
ATOM      7  C   UNL     1       4.888   3.448  13.398  0.00  0.00    +0.000 A 
ATOM      8  N   UNL     1       4.801   4.158  15.865  0.00  0.00    +0.000 NA
ATOM      9  C   UNL     1       5.715   4.781  16.566  0.00  0.00    +0.000 A 
ATOM     10  N   UNL     1       6.795   5.090  15.790  0.00  0.00    +0.000 N 
ATOM     11  C   UNL     1       7.842   5.796  16.497  0.00  0.00    +0.000 C 
ATOM     12  C   UNL     1       7.381   5.631  17.945  0.00  0.00    +0.000 C 
ATOM     13  N   UNL     1       5.972   5.201  17.848  0.00  0.00    +0.000 N 
ATOM     14  C   UNL     1       5.161   5.209  18.952  0.00  0.00    +0.000 C 
ATOM     15  O   UNL     1       5.636   5.521  20.056  0.00  0.00    +0.000 OA
ENDROOT
BRANCH  14  16
ATOM     16  C   UNL     1       3.691   4.867  18.857  0.00  0.00    +0.000 C 
BRANCH  16  17
ATOM     17  C   UNL     1       2.831   6.001  19.296  0.00  0.00    +0.000 A 
ATOM     18  N   UNL     1       2.185   6.018  20.501  0.00  0.00    +0.000 NA
ATOM     19  C   UNL     1       1.605   7.195  20.537  0.00  0.00    +0.000 A 
ATOM     20  N   UNL     1       0.843   7.742  21.529  0.00  0.00    +0.000 NA
ATOM     21  C   UNL     1       0.417   8.954  21.331  0.00  0.00    +0.000 A 
ATOM     22  C   UNL     1      -0.428   9.610  22.400  0.00  0.00    +0.000 C 
ATOM     23  C   UNL     1       0.695   9.780  20.111  0.00  0.00    +0.000 A 
ATOM     24  C   UNL     1       1.437   9.201  19.151  0.00  0.00    +0.000 A 
ATOM     25  C   UNL     1       1.792   9.909  17.881  0.00  0.00    +0.000 C 
ATOM     26  N   UNL     1       1.903   7.893  19.357  0.00  0.00    +0.000 N 
ATOM     27  N   UNL     1       2.678   7.112  18.560  0.00  0.00    +0.000 NA
ENDBRANCH  16  17
ENDBRANCH  14  16
TORSDOF 2
ENDMDL
