MODEL 1
REMARK VINA RESULT:      -9.0      0.000      0.000
REMARK  Name = 
REMARK  11 active torsions:
REMARK  status: ('A' for Active; 'I' for Inactive)
REMARK    1  A    between atoms: C_1  and  O_2
REMARK    2  A    between atoms: O_2  and  C_3
REMARK    3  A    between atoms: C_5  and  O_6
REMARK    4  A    between atoms: O_6  and  C_7
REMARK    5  A    between atoms: C_13  and  C_14
REMARK    6  A    between atoms: C_18  and  S_19
REMARK    7  A    between atoms: S_19  and  C_22
REMARK    8  A    between atoms: C_22  and  C_23
REMARK    9  A    between atoms: C_23  and  C_24
REMARK   10  A    between atoms: C_24  and  C_25
REMARK   11  A    between atoms: C_25  and  O_27
REMARK                            x       y       z     vdW  Elec       q    Type
REMARK                         _______ _______ _______ _____ _____    ______ ____
ROOT
ATOM      1  C   UNL     1       2.344   6.908  19.568  0.00  0.00    +0.000 A 
ATOM      2  C   UNL     1       2.370   7.799  18.480  0.00  0.00    +0.000 A 
ATOM      3  C   UNL     1       1.739   9.046  18.543  0.00  0.00    +0.000 A 
ATOM      4  F   UNL     1       1.818   9.853  17.477  0.00  0.00    +0.000 F 
ATOM      5  C   UNL     1       1.050   9.436  19.679  0.00  0.00    +0.000 A 
ATOM      6  C   UNL     1       0.988   8.567  20.754  0.00  0.00    +0.000 A 
ATOM      7  F   UNL     1       0.333   8.874  21.880  0.00  0.00    +0.000 F 
ATOM      8  C   UNL     1       1.626   7.324  20.704  0.00  0.00    +0.000 A 
ENDROOT
BRANCH   1  15
ATOM      9  C   UNL     1       5.119   4.300  19.326  0.00  0.00    +0.000 A 
ATOM     10  C   UNL     1       4.409   3.109  19.440  0.00  0.00    +0.000 A 
ATOM     11  C   UNL     1       3.030   3.160  19.575  0.00  0.00    +0.000 A 
ATOM     12  F   UNL     1       2.342   2.011  19.652  0.00  0.00    +0.000 F 
ATOM     13  C   UNL     1       2.356   4.377  19.612  0.00  0.00    +0.000 A 
ATOM     14  F   UNL     1       1.016   4.353  19.694  0.00  0.00    +0.000 F 
ATOM     15  C   UNL     1       3.046   5.601  19.539  0.00  0.00    +0.000 A 
ATOM     16  C   UNL     1       4.449   5.528  19.406  0.00  0.00    +0.000 A 
BRANCH   9  17
ATOM     17  O   UNL     1       6.478   4.363  19.119  0.00  0.00    +0.000 OA
BRANCH  17  20
ATOM     18  C   UNL     1       6.671   5.722  15.966  0.00  0.00    +0.000 C 
ATOM     19  C   UNL     1       5.799   4.668  16.681  0.00  0.00    +0.000 C 
ATOM     20  C   UNL     1       6.913   4.603  17.762  0.00  0.00    +0.000 C 
ATOM     21  C   UNL     1       7.229   6.069  17.373  0.00  0.00    +0.000 C 
BRANCH  18  23
ATOM     22  C   UNL     1       7.114   4.820  13.747  0.00  0.00    +0.000 C 
ATOM     23  O   UNL     1       7.617   5.157  15.029  0.00  0.00    +0.000 OA
ENDBRANCH  18  23
ENDBRANCH  17  20
ENDBRANCH   9  17
ENDBRANCH   1  15
BRANCH   5  24
ATOM     24  S   UNL     1       0.372  11.049  19.768  0.00  0.00    +0.000 S 
ATOM     25  O   UNL     1       0.353  11.472  21.157  0.00  0.00    +0.000 OA
ATOM     26  O   UNL     1       1.065  11.854  18.781  0.00  0.00    +0.000 OA
BRANCH  24  27
ATOM     27  C   UNL     1      -1.335  10.895  19.269  0.00  0.00    +0.000 C 
BRANCH  27  28
ATOM     28  C   UNL     1      -1.424  10.273  17.871  0.00  0.00    +0.000 C 
BRANCH  28  29
ATOM     29  C   UNL     1      -2.852  10.024  17.405  0.00  0.00    +0.000 C 
BRANCH  29  30
ATOM     30  C   UNL     1      -3.242  10.952  16.287  0.00  0.00    +0.000 C 
ATOM     31  O   UNL     1      -2.898  10.785  15.125  0.00  0.00    +0.000 OA
BRANCH  30  32
ATOM     32  O   UNL     1      -4.056  11.957  16.668  0.00  0.00    +0.000 OA
ATOM     33  H   UNL     1      -3.616  12.822  16.761  0.00  0.00    +0.000 HD
ENDBRANCH  30  32
ENDBRANCH  29  30
ENDBRANCH  28  29
ENDBRANCH  27  28
ENDBRANCH  24  27
ENDBRANCH   5  24
TORSDOF 10
ENDMDL
MODEL 2
REMARK VINA RESULT:      -8.9      0.671      1.680
REMARK  Name = 
REMARK  11 active torsions:
REMARK  status: ('A' for Active; 'I' for Inactive)
REMARK    1  A    between atoms: C_1  and  O_2
REMARK    2  A    between atoms: O_2  and  C_3
REMARK    3  A    between atoms: C_5  and  O_6
REMARK    4  A    between atoms: O_6  and  C_7
REMARK    5  A    between atoms: C_13  and  C_14
REMARK    6  A    between atoms: C_18  and  S_19
REMARK    7  A    between atoms: S_19  and  C_22
REMARK    8  A    between atoms: C_22  and  C_23
REMARK    9  A    between atoms: C_23  and  C_24
REMARK   10  A    between atoms: C_24  and  C_25
REMARK   11  A    between atoms: C_25  and  O_27
REMARK                            x       y       z     vdW  Elec       q    Type
REMARK                         _______ _______ _______ _____ _____    ______ ____
ROOT
ATOM      1  C   UNL     1       2.122   7.160  19.781  0.00  0.00    +0.000 A 
ATOM      2  C   UNL     1       1.432   7.701  20.881  0.00  0.00    +0.000 A 
ATOM      3  C   UNL     1       0.852   8.973  20.824  0.00  0.00    +0.000 A 
ATOM      4  F   UNL     1       0.195   9.421  21.902  0.00  0.00    +0.000 F 
ATOM      5  C   UNL     1       0.956   9.750  19.682  0.00  0.00    +0.000 A 
ATOM      6  C   UNL     1       1.651   9.250  18.595  0.00  0.00    +0.000 A 
ATOM      7  F   UNL     1       1.797   9.948  17.462  0.00  0.00    +0.000 F 
ATOM      8  C   UNL     1       2.223   7.975  18.639  0.00  0.00    +0.000 A 
ENDROOT
BRANCH   1  15
ATOM      9  C   UNL     1       4.604   4.282  19.434  0.00  0.00    +0.000 A 
ATOM     10  C   UNL     1       3.829   3.185  19.799  0.00  0.00    +0.000 A 
ATOM     11  C   UNL     1       2.499   3.385  20.137  0.00  0.00    +0.000 A 
ATOM     12  F   UNL     1       1.744   2.324  20.457  0.00  0.00    +0.000 F 
ATOM     13  C   UNL     1       1.940   4.660  20.129  0.00  0.00    +0.000 A 
ATOM     14  F   UNL     1       0.634   4.776  20.418  0.00  0.00    +0.000 F 
ATOM     15  C   UNL     1       2.704   5.795  19.804  0.00  0.00    +0.000 A 
ATOM     16  C   UNL     1       4.056   5.571  19.467  0.00  0.00    +0.000 A 
BRANCH   9  17
ATOM     17  O   UNL     1       5.912   4.189  19.016  0.00  0.00    +0.000 OA
BRANCH  17  20
ATOM     18  C   UNL     1       7.023   4.197  15.761  0.00  0.00    +0.000 C 
ATOM     19  C   UNL     1       7.642   4.421  17.157  0.00  0.00    +0.000 C 
ATOM     20  C   UNL     1       6.191   4.640  17.672  0.00  0.00    +0.000 C 
ATOM     21  C   UNL     1       5.753   3.710  16.512  0.00  0.00    +0.000 C 
BRANCH  18  23
ATOM     22  C   UNL     1       7.267   5.342  13.625  0.00  0.00    +0.000 C 
ATOM     23  O   UNL     1       6.877   5.410  14.987  0.00  0.00    +0.000 OA
ENDBRANCH  18  23
ENDBRANCH  17  20
ENDBRANCH   9  17
ENDBRANCH   1  15
BRANCH   5  24
ATOM     24  S   UNL     1       0.119  11.287  19.604  0.00  0.00    +0.000 S 
ATOM     25  O   UNL     1       0.034  11.842  20.943  0.00  0.00    +0.000 OA
ATOM     26  O   UNL     1       0.744  12.056  18.545  0.00  0.00    +0.000 OA
BRANCH  24  27
ATOM     27  C   UNL     1      -1.555  10.911  19.111  0.00  0.00    +0.000 C 
BRANCH  27  28
ATOM     28  C   UNL     1      -1.556  10.121  17.798  0.00  0.00    +0.000 C 
BRANCH  28  29
ATOM     29  C   UNL     1      -2.950   9.888  17.228  0.00  0.00    +0.000 C 
BRANCH  29  30
ATOM     30  C   UNL     1      -3.316  10.935  16.211  0.00  0.00    +0.000 C 
ATOM     31  O   UNL     1      -3.040  10.841  15.022  0.00  0.00    +0.000 OA
BRANCH  30  32
ATOM     32  O   UNL     1      -4.029  11.962  16.714  0.00  0.00    +0.000 OA
ATOM     33  H   UNL     1      -3.557  12.816  16.726  0.00  0.00    +0.000 HD
ENDBRANCH  30  32
ENDBRANCH  29  30
ENDBRANCH  28  29
ENDBRANCH  27  28
ENDBRANCH  24  27
ENDBRANCH   5  24
TORSDOF 10
ENDMDL
MODEL 3
REMARK VINA RESULT:      -8.8      1.164      2.133
REMARK  Name = 
REMARK  11 active torsions:
REMARK  status: ('A' for Active; 'I' for Inactive)
REMARK    1  A    between atoms: C_1  and  O_2
REMARK    2  A    between atoms: O_2  and  C_3
REMARK    3  A    between atoms: C_5  and  O_6
REMARK    4  A    between atoms: O_6  and  C_7
REMARK    5  A    between atoms: C_13  and  C_14
REMARK    6  A    between atoms: C_18  and  S_19
REMARK    7  A    between atoms: S_19  and  C_22
REMARK    8  A    between atoms: C_22  and  C_23
REMARK    9  A    between atoms: C_23  and  C_24
REMARK   10  A    between atoms: C_24  and  C_25
REMARK   11  A    between atoms: C_25  and  O_27
REMARK                            x       y       z     vdW  Elec       q    Type
REMARK                         _______ _______ _______ _____ _____    ______ ____
ROOT
ATOM      1  C   UNL     1       2.008   7.012  19.887  0.00  0.00    +0.000 A 
ATOM      2  C   UNL     1       1.339   7.595  20.978  0.00  0.00    +0.000 A 
ATOM      3  C   UNL     1       0.842   8.901  20.916  0.00  0.00    +0.000 A 
ATOM      4  F   UNL     1       0.200   9.389  21.986  0.00  0.00    +0.000 F 
ATOM      5  C   UNL     1       1.012   9.672  19.778  0.00  0.00    +0.000 A 
ATOM      6  C   UNL     1       1.688   9.130  18.699  0.00  0.00    +0.000 A 
ATOM      7  F   UNL     1       1.895   9.819  17.571  0.00  0.00    +0.000 F 
ATOM      8  C   UNL     1       2.177   7.821  18.749  0.00  0.00    +0.000 A 
ENDROOT
BRANCH   1  15
ATOM      9  C   UNL     1       4.272   3.968  19.475  0.00  0.00    +0.000 A 
ATOM     10  C   UNL     1       3.451   2.935  19.918  0.00  0.00    +0.000 A 
ATOM     11  C   UNL     1       2.161   3.231  20.331  0.00  0.00    +0.000 A 
ATOM     12  F   UNL     1       1.360   2.231  20.727  0.00  0.00    +0.000 F 
ATOM     13  C   UNL     1       1.686   4.539  20.318  0.00  0.00    +0.000 A 
ATOM     14  F   UNL     1       0.411   4.749  20.683  0.00  0.00    +0.000 F 
ATOM     15  C   UNL     1       2.500   5.613  19.914  0.00  0.00    +0.000 A 
ATOM     16  C   UNL     1       3.812   5.291  19.503  0.00  0.00    +0.000 A 
BRANCH   9  17
ATOM     17  O   UNL     1       5.542   3.777  18.981  0.00  0.00    +0.000 OA
BRANCH  17  20
ATOM     18  C   UNL     1       7.958   6.006  17.967  0.00  0.00    +0.000 C 
ATOM     19  C   UNL     1       7.124   5.760  19.242  0.00  0.00    +0.000 C 
ATOM     20  C   UNL     1       6.166   4.919  18.353  0.00  0.00    +0.000 C 
ATOM     21  C   UNL     1       7.406   4.644  17.465  0.00  0.00    +0.000 C 
BRANCH  18  23
ATOM     22  C   UNL     1       8.015   8.425  17.691  0.00  0.00    +0.000 C 
ATOM     23  O   UNL     1       7.547   7.173  17.218  0.00  0.00    +0.000 OA
ENDBRANCH  18  23
ENDBRANCH  17  20
ENDBRANCH   9  17
ENDBRANCH   1  15
BRANCH   5  24
ATOM     24  S   UNL     1       0.276  11.260  19.691  0.00  0.00    +0.000 S 
ATOM     25  O   UNL     1       0.290  11.854  21.017  0.00  0.00    +0.000 OA
ATOM     26  O   UNL     1       0.903  11.956  18.584  0.00  0.00    +0.000 OA
BRANCH  24  27
ATOM     27  C   UNL     1      -1.440  10.986  19.284  0.00  0.00    +0.000 C 
BRANCH  27  28
ATOM     28  C   UNL     1      -1.555  10.034  18.088  0.00  0.00    +0.000 C 
BRANCH  28  29
ATOM     29  C   UNL     1      -2.973   9.902  17.548  0.00  0.00    +0.000 C 
BRANCH  29  30
ATOM     30  C   UNL     1      -3.370  11.101  16.731  0.00  0.00    +0.000 C 
ATOM     31  O   UNL     1      -4.458  11.652  16.832  0.00  0.00    +0.000 OA
BRANCH  30  32
ATOM     32  O   UNL     1      -2.397  11.555  15.916  0.00  0.00    +0.000 OA
ATOM     33  H   UNL     1      -1.885  10.856  15.468  0.00  0.00    +0.000 HD
ENDBRANCH  30  32
ENDBRANCH  29  30
ENDBRANCH  28  29
ENDBRANCH  27  28
ENDBRANCH  24  27
ENDBRANCH   5  24
TORSDOF 10
ENDMDL
MODEL 4
REMARK VINA RESULT:      -8.8      1.008      1.803
REMARK  Name = 
REMARK  11 active torsions:
REMARK  status: ('A' for Active; 'I' for Inactive)
REMARK    1  A    between atoms: C_1  and  O_2
REMARK    2  A    between atoms: O_2  and  C_3
REMARK    3  A    between atoms: C_5  and  O_6
REMARK    4  A    between atoms: O_6  and  C_7
REMARK    5  A    between atoms: C_13  and  C_14
REMARK    6  A    between atoms: C_18  and  S_19
REMARK    7  A    between atoms: S_19  and  C_22
REMARK    8  A    between atoms: C_22  and  C_23
REMARK    9  A    between atoms: C_23  and  C_24
REMARK   10  A    between atoms: C_24  and  C_25
REMARK   11  A    between atoms: C_25  and  O_27
REMARK                            x       y       z     vdW  Elec       q    Type
REMARK                         _______ _______ _______ _____ _____    ______ ____
ROOT
ATOM      1  C   UNL     1       2.107   7.339  19.729  0.00  0.00    +0.000 A 
ATOM      2  C   UNL     1       1.489   7.779  20.913  0.00  0.00    +0.000 A 
ATOM      3  C   UNL     1       0.829   9.012  20.976  0.00  0.00    +0.000 A 
ATOM      4  F   UNL     1       0.247   9.362  22.130  0.00  0.00    +0.000 F 
ATOM      5  C   UNL     1       0.781   9.848  19.873  0.00  0.00    +0.000 A 
ATOM      6  C   UNL     1       1.403   9.449  18.704  0.00  0.00    +0.000 A 
ATOM      7  F   UNL     1       1.403  10.209  17.602  0.00  0.00    +0.000 F 
ATOM      8  C   UNL     1       2.053   8.213  18.629  0.00  0.00    +0.000 A 
ENDROOT
BRANCH   1  15
ATOM      9  C   UNL     1       4.647   4.626  18.862  0.00  0.00    +0.000 A 
ATOM     10  C   UNL     1       4.042   3.486  19.380  0.00  0.00    +0.000 A 
ATOM     11  C   UNL     1       2.802   3.602  19.992  0.00  0.00    +0.000 A 
ATOM     12  F   UNL     1       2.205   2.497  20.463  0.00  0.00    +0.000 F 
ATOM     13  C   UNL     1       2.170   4.837  20.103  0.00  0.00    +0.000 A 
ATOM     14  F   UNL     1       0.950   4.870  20.662  0.00  0.00    +0.000 F 
ATOM     15  C   UNL     1       2.771   6.016  19.626  0.00  0.00    +0.000 A 
ATOM     16  C   UNL     1       4.034   5.876  19.011  0.00  0.00    +0.000 A 
BRANCH   9  17
ATOM     17  O   UNL     1       5.841   4.614  18.177  0.00  0.00    +0.000 OA
BRANCH  17  20
ATOM     18  C   UNL     1       6.387   4.854  14.790  0.00  0.00    +0.000 C 
ATOM     19  C   UNL     1       5.485   5.548  15.831  0.00  0.00    +0.000 C 
ATOM     20  C   UNL     1       5.768   4.335  16.761  0.00  0.00    +0.000 C 
ATOM     21  C   UNL     1       7.111   4.201  15.999  0.00  0.00    +0.000 C 
BRANCH  18  23
ATOM     22  C   UNL     1       6.304   3.645  12.677  0.00  0.00    +0.000 C 
ATOM     23  O   UNL     1       5.676   3.951  13.911  0.00  0.00    +0.000 OA
ENDBRANCH  18  23
ENDBRANCH  17  20
ENDBRANCH   9  17
ENDBRANCH   1  15
BRANCH   5  24
ATOM     24  S   UNL     1      -0.152  11.329  19.952  0.00  0.00    +0.000 S 
ATOM     25  O   UNL     1      -0.412  11.644  21.346  0.00  0.00    +0.000 OA
ATOM     26  O   UNL     1       0.521  12.298  19.109  0.00  0.00    +0.000 OA
BRANCH  24  27
ATOM     27  C   UNL     1      -1.737  10.952  19.221  0.00  0.00    +0.000 C 
BRANCH  27  28
ATOM     28  C   UNL     1      -1.729  11.306  17.730  0.00  0.00    +0.000 C 
BRANCH  28  29
ATOM     29  C   UNL     1      -2.086  10.134  16.824  0.00  0.00    +0.000 C 
BRANCH  29  30
ATOM     30  C   UNL     1      -2.842  10.585  15.603  0.00  0.00    +0.000 C 
ATOM     31  O   UNL     1      -2.877   9.945  14.561  0.00  0.00    +0.000 OA
BRANCH  30  32
ATOM     32  O   UNL     1      -3.528  11.733  15.777  0.00  0.00    +0.000 OA
ATOM     33  H   UNL     1      -4.259  11.867  15.146  0.00  0.00    +0.000 HD
ENDBRANCH  30  32
ENDBRANCH  29  30
ENDBRANCH  28  29
ENDBRANCH  27  28
ENDBRANCH  24  27
ENDBRANCH   5  24
TORSDOF 10
ENDMDL
MODEL 5
REMARK VINA RESULT:      -8.5      0.768      1.076
REMARK  Name = 
REMARK  11 active torsions:
REMARK  status: ('A' for Active; 'I' for Inactive)
REMARK    1  A    between atoms: C_1  and  O_2
REMARK    2  A    between atoms: O_2  and  C_3
REMARK    3  A    between atoms: C_5  and  O_6
REMARK    4  A    between atoms: O_6  and  C_7
REMARK    5  A    between atoms: C_13  and  C_14
REMARK    6  A    between atoms: C_18  and  S_19
REMARK    7  A    between atoms: S_19  and  C_22
REMARK    8  A    between atoms: C_22  and  C_23
REMARK    9  A    between atoms: C_23  and  C_24
REMARK   10  A    between atoms: C_24  and  C_25
REMARK   11  A    between atoms: C_25  and  O_27
REMARK                            x       y       z     vdW  Elec       q    Type
REMARK                         _______ _______ _______ _____ _____    ______ ____
ROOT
ATOM      1  C   UNL     1       2.105   7.086  19.834  0.00  0.00    +0.000 A 
ATOM      2  C   UNL     1       2.145   7.926  18.706  0.00  0.00    +0.000 A 
ATOM      3  C   UNL     1       1.614   9.220  18.742  0.00  0.00    +0.000 A 
ATOM      4  F   UNL     1       1.700   9.973  17.636  0.00  0.00    +0.000 F 
ATOM      5  C   UNL     1       1.014   9.710  19.890  0.00  0.00    +0.000 A 
ATOM      6  C   UNL     1       0.941   8.895  21.005  0.00  0.00    +0.000 A 
ATOM      7  F   UNL     1       0.370   9.300  22.146  0.00  0.00    +0.000 F 
ATOM      8  C   UNL     1       1.480   7.605  20.982  0.00  0.00    +0.000 A 
ENDROOT
BRANCH   1  15
ATOM      9  C   UNL     1       4.620   4.245  19.426  0.00  0.00    +0.000 A 
ATOM     10  C   UNL     1       3.861   3.134  19.781  0.00  0.00    +0.000 A 
ATOM     11  C   UNL     1       2.532   3.312  20.132  0.00  0.00    +0.000 A 
ATOM     12  F   UNL     1       1.793   2.237  20.442  0.00  0.00    +0.000 F 
ATOM     13  C   UNL     1       1.957   4.579  20.146  0.00  0.00    +0.000 A 
ATOM     14  F   UNL     1       0.652   4.674  20.447  0.00  0.00    +0.000 F 
ATOM     15  C   UNL     1       2.704   5.729  19.832  0.00  0.00    +0.000 A 
ATOM     16  C   UNL     1       4.057   5.526  19.481  0.00  0.00    +0.000 A 
BRANCH   9  17
ATOM     17  O   UNL     1       5.926   4.174  18.997  0.00  0.00    +0.000 OA
BRANCH  17  20
ATOM     18  C   UNL     1       6.961   4.175  15.717  0.00  0.00    +0.000 C 
ATOM     19  C   UNL     1       7.618   4.375  17.099  0.00  0.00    +0.000 C 
ATOM     20  C   UNL     1       6.186   4.627  17.649  0.00  0.00    +0.000 C 
ATOM     21  C   UNL     1       5.698   3.716  16.494  0.00  0.00    +0.000 C 
BRANCH  18  23
ATOM     22  C   UNL     1       7.351   5.378  13.635  0.00  0.00    +0.000 C 
ATOM     23  O   UNL     1       6.828   5.396  14.953  0.00  0.00    +0.000 OA
ENDBRANCH  18  23
ENDBRANCH  17  20
ENDBRANCH   9  17
ENDBRANCH   1  15
BRANCH   5  24
ATOM     24  S   UNL     1       0.466  11.374  19.936  0.00  0.00    +0.000 S 
ATOM     25  O   UNL     1       0.693  11.903  21.270  0.00  0.00    +0.000 OA
ATOM     26  O   UNL     1       1.048  12.042  18.788  0.00  0.00    +0.000 OA
BRANCH  24  27
ATOM     27  C   UNL     1      -1.304  11.316  19.715  0.00  0.00    +0.000 C 
BRANCH  27  28
ATOM     28  C   UNL     1      -1.650  10.616  18.396  0.00  0.00    +0.000 C 
BRANCH  28  29
ATOM     29  C   UNL     1      -2.227  11.552  17.343  0.00  0.00    +0.000 C 
BRANCH  29  30
ATOM     30  C   UNL     1      -3.334  10.897  16.563  0.00  0.00    +0.000 C 
ATOM     31  O   UNL     1      -4.464  11.359  16.483  0.00  0.00    +0.000 OA
BRANCH  30  32
ATOM     32  O   UNL     1      -2.956   9.781  15.907  0.00  0.00    +0.000 OA
ATOM     33  H   UNL     1      -3.588   9.041  15.969  0.00  0.00    +0.000 HD
ENDBRANCH  30  32
ENDBRANCH  29  30
ENDBRANCH  28  29
ENDBRANCH  27  28
ENDBRANCH  24  27
ENDBRANCH   5  24
TORSDOF 10
ENDMDL
MODEL 6
REMARK VINA RESULT:      -8.5      1.238      1.666
REMARK  Name = 
REMARK  11 active torsions:
REMARK  status: ('A' for Active; 'I' for Inactive)
REMARK    1  A    between atoms: C_1  and  O_2
REMARK    2  A    between atoms: O_2  and  C_3
REMARK    3  A    between atoms: C_5  and  O_6
REMARK    4  A    between atoms: O_6  and  C_7
REMARK    5  A    between atoms: C_13  and  C_14
REMARK    6  A    between atoms: C_18  and  S_19
REMARK    7  A    between atoms: S_19  and  C_22
REMARK    8  A    between atoms: C_22  and  C_23
REMARK    9  A    between atoms: C_23  and  C_24
REMARK   10  A    between atoms: C_24  and  C_25
REMARK   11  A    between atoms: C_25  and  O_27
REMARK                            x       y       z     vdW  Elec       q    Type
REMARK                         _______ _______ _______ _____ _____    ______ ____
ROOT
ATOM      1  C   UNL     1       1.960   6.989  19.952  0.00  0.00    +0.000 A 
ATOM      2  C   UNL     1       2.015   7.826  18.822  0.00  0.00    +0.000 A 
ATOM      3  C   UNL     1       1.566   9.150  18.873  0.00  0.00    +0.000 A 
ATOM      4  F   UNL     1       1.663   9.896  17.765  0.00  0.00    +0.000 F 
ATOM      5  C   UNL     1       1.035   9.675  20.039  0.00  0.00    +0.000 A 
ATOM      6  C   UNL     1       0.948   8.866  21.158  0.00  0.00    +0.000 A 
ATOM      7  F   UNL     1       0.439   9.304  22.315  0.00  0.00    +0.000 F 
ATOM      8  C   UNL     1       1.405   7.545  21.119  0.00  0.00    +0.000 A 
ENDROOT
BRANCH   1  15
ATOM      9  C   UNL     1       4.279   3.998  19.466  0.00  0.00    +0.000 A 
ATOM     10  C   UNL     1       3.467   2.936  19.849  0.00  0.00    +0.000 A 
ATOM     11  C   UNL     1       2.163   3.196  20.245  0.00  0.00    +0.000 A 
ATOM     12  F   UNL     1       1.370   2.169  20.583  0.00  0.00    +0.000 F 
ATOM     13  C   UNL     1       1.668   4.496  20.276  0.00  0.00    +0.000 A 
ATOM     14  F   UNL     1       0.383   4.672  20.621  0.00  0.00    +0.000 F 
ATOM     15  C   UNL     1       2.474   5.598  19.934  0.00  0.00    +0.000 A 
ATOM     16  C   UNL     1       3.798   5.312  19.538  0.00  0.00    +0.000 A 
BRANCH   9  17
ATOM     17  O   UNL     1       5.563   3.847  18.993  0.00  0.00    +0.000 OA
BRANCH  17  20
ATOM     18  C   UNL     1       7.941   6.106  17.956  0.00  0.00    +0.000 C 
ATOM     19  C   UNL     1       7.162   5.816  19.256  0.00  0.00    +0.000 C 
ATOM     20  C   UNL     1       6.164   5.009  18.379  0.00  0.00    +0.000 C 
ATOM     21  C   UNL     1       7.363   4.764  17.429  0.00  0.00    +0.000 C 
BRANCH  18  23
ATOM     22  C   UNL     1       8.082   8.522  17.691  0.00  0.00    +0.000 C 
ATOM     23  O   UNL     1       7.503   7.300  17.267  0.00  0.00    +0.000 OA
ENDBRANCH  18  23
ENDBRANCH  17  20
ENDBRANCH   9  17
ENDBRANCH   1  15
BRANCH   5  24
ATOM     24  S   UNL     1       0.593  11.370  20.101  0.00  0.00    +0.000 S 
ATOM     25  O   UNL     1       0.712  11.834  21.472  0.00  0.00    +0.000 OA
ATOM     26  O   UNL     1       1.332  12.038  19.048  0.00  0.00    +0.000 OA
BRANCH  24  27
ATOM     27  C   UNL     1      -1.145  11.440  19.699  0.00  0.00    +0.000 C 
BRANCH  27  28
ATOM     28  C   UNL     1      -1.332  11.684  18.197  0.00  0.00    +0.000 C 
BRANCH  28  29
ATOM     29  C   UNL     1      -1.747  10.438  17.424  0.00  0.00    +0.000 C 
BRANCH  29  30
ATOM     30  C   UNL     1      -3.243  10.322  17.320  0.00  0.00    +0.000 C 
ATOM     31  O   UNL     1      -3.945  11.159  16.769  0.00  0.00    +0.000 OA
BRANCH  30  32
ATOM     32  O   UNL     1      -3.741   9.181  17.838  0.00  0.00    +0.000 OA
ATOM     33  H   UNL     1      -3.406   8.366  17.420  0.00  0.00    +0.000 HD
ENDBRANCH  30  32
ENDBRANCH  29  30
ENDBRANCH  28  29
ENDBRANCH  27  28
ENDBRANCH  24  27
ENDBRANCH   5  24
TORSDOF 10
ENDMDL
MODEL 7
REMARK VINA RESULT:      -8.5      1.980      3.286
REMARK  Name = 
REMARK  11 active torsions:
REMARK  status: ('A' for Active; 'I' for Inactive)
REMARK    1  A    between atoms: C_1  and  O_2
REMARK    2  A    between atoms: O_2  and  C_3
REMARK    3  A    between atoms: C_5  and  O_6
REMARK    4  A    between atoms: O_6  and  C_7
REMARK    5  A    between atoms: C_13  and  C_14
REMARK    6  A    between atoms: C_18  and  S_19
REMARK    7  A    between atoms: S_19  and  C_22
REMARK    8  A    between atoms: C_22  and  C_23
REMARK    9  A    between atoms: C_23  and  C_24
REMARK   10  A    between atoms: C_24  and  C_25
REMARK   11  A    between atoms: C_25  and  O_27
REMARK                            x       y       z     vdW  Elec       q    Type
REMARK                         _______ _______ _______ _____ _____    ______ ____
ROOT
ATOM      1  C   UNL     1       2.177   7.159  19.742  0.00  0.00    +0.000 A 
ATOM      2  C   UNL     1       1.554   7.662  20.899  0.00  0.00    +0.000 A 
ATOM      3  C   UNL     1       0.897   8.897  20.894  0.00  0.00    +0.000 A 
ATOM      4  F   UNL     1       0.311   9.310  22.026  0.00  0.00    +0.000 F 
ATOM      5  C   UNL     1       0.855   9.675  19.749  0.00  0.00    +0.000 A 
ATOM      6  C   UNL     1       1.481   9.213  18.604  0.00  0.00    +0.000 A 
ATOM      7  F   UNL     1       1.487   9.914  17.465  0.00  0.00    +0.000 F 
ATOM      8  C   UNL     1       2.129   7.974  18.597  0.00  0.00    +0.000 A 
ENDROOT
BRANCH   1  15
ATOM      9  C   UNL     1       4.795   4.435  19.202  0.00  0.00    +0.000 A 
ATOM     10  C   UNL     1       4.111   3.292  19.606  0.00  0.00    +0.000 A 
ATOM     11  C   UNL     1       2.797   3.411  20.034  0.00  0.00    +0.000 A 
ATOM     12  F   UNL     1       2.129   2.305  20.393  0.00  0.00    +0.000 F 
ATOM     13  C   UNL     1       2.165   4.650  20.076  0.00  0.00    +0.000 A 
ATOM     14  F   UNL     1       0.877   4.686  20.452  0.00  0.00    +0.000 F 
ATOM     15  C   UNL     1       2.838   5.831  19.712  0.00  0.00    +0.000 A 
ATOM     16  C   UNL     1       4.176   5.689  19.284  0.00  0.00    +0.000 A 
BRANCH   9  17
ATOM     17  O   UNL     1       6.075   4.422  18.697  0.00  0.00    +0.000 OA
BRANCH  17  20
ATOM     18  C   UNL     1       5.918   4.749  15.276  0.00  0.00    +0.000 C 
ATOM     19  C   UNL     1       4.949   4.350  16.409  0.00  0.00    +0.000 C 
ATOM     20  C   UNL     1       6.209   4.118  17.291  0.00  0.00    +0.000 C 
ATOM     21  C   UNL     1       6.896   5.185  16.401  0.00  0.00    +0.000 C 
BRANCH  18  23
ATOM     22  C   UNL     1       6.246   3.808  13.054  0.00  0.00    +0.000 C 
ATOM     23  O   UNL     1       6.348   3.636  14.458  0.00  0.00    +0.000 OA
ENDBRANCH  18  23
ENDBRANCH  17  20
ENDBRANCH   9  17
ENDBRANCH   1  15
BRANCH   5  24
ATOM     24  S   UNL     1      -0.075  11.160  19.745  0.00  0.00    +0.000 S 
ATOM     25  O   UNL     1       0.007  11.759  18.425  0.00  0.00    +0.000 OA
ATOM     26  O   UNL     1      -1.371  10.847  20.315  0.00  0.00    +0.000 OA
BRANCH  24  27
ATOM     27  C   UNL     1       0.772  12.274  20.854  0.00  0.00    +0.000 C 
BRANCH  27  28
ATOM     28  C   UNL     1       2.168  12.600  20.312  0.00  0.00    +0.000 C 
BRANCH  28  29
ATOM     29  C   UNL     1       2.241  13.935  19.582  0.00  0.00    +0.000 C 
BRANCH  29  30
ATOM     30  C   UNL     1       3.006  13.822  18.292  0.00  0.00    +0.000 C 
ATOM     31  O   UNL     1       4.064  14.401  18.086  0.00  0.00    +0.000 OA
BRANCH  30  32
ATOM     32  O   UNL     1       2.454  12.977  17.399  0.00  0.00    +0.000 OA
ATOM     33  H   UNL     1       1.506  12.798  17.544  0.00  0.00    +0.000 HD
ENDBRANCH  30  32
ENDBRANCH  29  30
ENDBRANCH  28  29
ENDBRANCH  27  28
ENDBRANCH  24  27
ENDBRANCH   5  24
TORSDOF 10
ENDMDL
MODEL 8
REMARK VINA RESULT:      -8.5      1.887      2.706
REMARK  Name = 
REMARK  11 active torsions:
REMARK  status: ('A' for Active; 'I' for Inactive)
REMARK    1  A    between atoms: C_1  and  O_2
REMARK    2  A    between atoms: O_2  and  C_3
REMARK    3  A    between atoms: C_5  and  O_6
REMARK    4  A    between atoms: O_6  and  C_7
REMARK    5  A    between atoms: C_13  and  C_14
REMARK    6  A    between atoms: C_18  and  S_19
REMARK    7  A    between atoms: S_19  and  C_22
REMARK    8  A    between atoms: C_22  and  C_23
REMARK    9  A    between atoms: C_23  and  C_24
REMARK   10  A    between atoms: C_24  and  C_25
REMARK   11  A    between atoms: C_25  and  O_27
REMARK                            x       y       z     vdW  Elec       q    Type
REMARK                         _______ _______ _______ _____ _____    ______ ____
ROOT
ATOM      1  C   UNL     1       2.386   6.862  19.507  0.00  0.00    +0.000 A 
ATOM      2  C   UNL     1       2.359   7.719  18.392  0.00  0.00    +0.000 A 
ATOM      3  C   UNL     1       1.736   8.970  18.449  0.00  0.00    +0.000 A 
ATOM      4  F   UNL     1       1.762   9.743  17.355  0.00  0.00    +0.000 F 
ATOM      5  C   UNL     1       1.107   9.398  19.606  0.00  0.00    +0.000 A 
ATOM      6  C   UNL     1       1.098   8.563  20.709  0.00  0.00    +0.000 A 
ATOM      7  F   UNL     1       0.504   8.908  21.858  0.00  0.00    +0.000 F 
ATOM      8  C   UNL     1       1.730   7.316  20.665  0.00  0.00    +0.000 A 
ENDROOT
BRANCH   1  15
ATOM      9  C   UNL     1       5.145   4.238  19.246  0.00  0.00    +0.000 A 
ATOM     10  C   UNL     1       4.432   3.052  19.392  0.00  0.00    +0.000 A 
ATOM     11  C   UNL     1       3.056   3.111  19.555  0.00  0.00    +0.000 A 
ATOM     12  F   UNL     1       2.365   1.966  19.663  0.00  0.00    +0.000 F 
ATOM     13  C   UNL     1       2.389   4.332  19.587  0.00  0.00    +0.000 A 
ATOM     14  F   UNL     1       1.051   4.314  19.698  0.00  0.00    +0.000 F 
ATOM     15  C   UNL     1       3.082   5.551  19.483  0.00  0.00    +0.000 A 
ATOM     16  C   UNL     1       4.482   5.470  19.322  0.00  0.00    +0.000 A 
BRANCH   9  17
ATOM     17  O   UNL     1       6.500   4.292  19.012  0.00  0.00    +0.000 OA
BRANCH  17  20
ATOM     18  C   UNL     1       6.431   5.527  15.803  0.00  0.00    +0.000 C 
ATOM     19  C   UNL     1       5.874   4.291  16.539  0.00  0.00    +0.000 C 
ATOM     20  C   UNL     1       6.907   4.598  17.659  0.00  0.00    +0.000 C 
ATOM     21  C   UNL     1       6.796   6.077  17.208  0.00  0.00    +0.000 C 
BRANCH  18  23
ATOM     22  C   UNL     1       7.220   4.856  13.598  0.00  0.00    +0.000 C 
ATOM     23  O   UNL     1       7.543   5.232  14.927  0.00  0.00    +0.000 OA
ENDBRANCH  18  23
ENDBRANCH  17  20
ENDBRANCH   9  17
ENDBRANCH   1  15
BRANCH   5  24
ATOM     24  S   UNL     1       0.440  11.016  19.679  0.00  0.00    +0.000 S 
ATOM     25  O   UNL     1       1.421  11.950  19.156  0.00  0.00    +0.000 OA
ATOM     26  O   UNL     1      -0.882  10.956  19.087  0.00  0.00    +0.000 OA
BRANCH  24  27
ATOM     27  C   UNL     1       0.262  11.398  21.414  0.00  0.00    +0.000 C 
BRANCH  27  28
ATOM     28  C   UNL     1      -1.070  12.113  21.665  0.00  0.00    +0.000 C 
BRANCH  28  29
ATOM     29  C   UNL     1      -1.621  11.901  23.069  0.00  0.00    +0.000 C 
BRANCH  29  30
ATOM     30  C   UNL     1      -3.099  12.176  23.134  0.00  0.00    +0.000 C 
ATOM     31  O   UNL     1      -3.776  11.972  24.132  0.00  0.00    +0.000 OA
BRANCH  30  32
ATOM     32  O   UNL     1      -3.604  12.725  22.011  0.00  0.00    +0.000 OA
ATOM     33  H   UNL     1      -3.883  13.654  22.104  0.00  0.00    +0.000 HD
ENDBRANCH  30  32
ENDBRANCH  29  30
ENDBRANCH  28  29
ENDBRANCH  27  28
ENDBRANCH  24  27
ENDBRANCH   5  24
TORSDOF 10
ENDMDL
MODEL 9
REMARK VINA RESULT:      -8.4      1.850      2.398
REMARK  Name = 
REMARK  11 active torsions:
REMARK  status: ('A' for Active; 'I' for Inactive)
REMARK    1  A    between atoms: C_1  and  O_2
REMARK    2  A    between atoms: O_2  and  C_3
REMARK    3  A    between atoms: C_5  and  O_6
REMARK    4  A    between atoms: O_6  and  C_7
REMARK    5  A    between atoms: C_13  and  C_14
REMARK    6  A    between atoms: C_18  and  S_19
REMARK    7  A    between atoms: S_19  and  C_22
REMARK    8  A    between atoms: C_22  and  C_23
REMARK    9  A    between atoms: C_23  and  C_24
REMARK   10  A    between atoms: C_24  and  C_25
REMARK   11  A    between atoms: C_25  and  O_27
REMARK                            x       y       z     vdW  Elec       q    Type
REMARK                         _______ _______ _______ _____ _____    ______ ____
ROOT
ATOM      1  C   UNL     1       2.312   6.963  19.563  0.00  0.00    +0.000 A 
ATOM      2  C   UNL     1       2.281   7.802  18.434  0.00  0.00    +0.000 A 
ATOM      3  C   UNL     1       1.690   9.069  18.483  0.00  0.00    +0.000 A 
ATOM      4  F   UNL     1       1.710   9.822  17.376  0.00  0.00    +0.000 F 
ATOM      5  C   UNL     1       1.100   9.532  19.647  0.00  0.00    +0.000 A 
ATOM      6  C   UNL     1       1.096   8.717  20.765  0.00  0.00    +0.000 A 
ATOM      7  F   UNL     1       0.538   9.097  21.920  0.00  0.00    +0.000 F 
ATOM      8  C   UNL     1       1.695   7.454  20.728  0.00  0.00    +0.000 A 
ENDROOT
BRANCH   1  15
ATOM      9  C   UNL     1       5.008   4.271  19.343  0.00  0.00    +0.000 A 
ATOM     10  C   UNL     1       4.261   3.103  19.470  0.00  0.00    +0.000 A 
ATOM     11  C   UNL     1       2.885   3.197  19.606  0.00  0.00    +0.000 A 
ATOM     12  F   UNL     1       2.163   2.070  19.695  0.00  0.00    +0.000 F 
ATOM     13  C   UNL     1       2.248   4.434  19.631  0.00  0.00    +0.000 A 
ATOM     14  F   UNL     1       0.909   4.451  19.716  0.00  0.00    +0.000 F 
ATOM     15  C   UNL     1       2.975   5.636  19.547  0.00  0.00    +0.000 A 
ATOM     16  C   UNL     1       4.375   5.519  19.412  0.00  0.00    +0.000 A 
BRANCH   9  17
ATOM     17  O   UNL     1       6.368   4.290  19.135  0.00  0.00    +0.000 OA
BRANCH  17  20
ATOM     18  C   UNL     1       6.589   5.475  15.914  0.00  0.00    +0.000 C 
ATOM     19  C   UNL     1       5.695   4.480  16.683  0.00  0.00    +0.000 C 
ATOM     20  C   UNL     1       6.807   4.449  17.768  0.00  0.00    +0.000 C 
ATOM     21  C   UNL     1       7.154   5.885  17.301  0.00  0.00    +0.000 C 
BRANCH  18  23
ATOM     22  C   UNL     1       7.151   4.802  13.642  0.00  0.00    +0.000 C 
ATOM     23  O   UNL     1       7.523   4.841  15.009  0.00  0.00    +0.000 OA
ENDBRANCH  18  23
ENDBRANCH  17  20
ENDBRANCH   9  17
ENDBRANCH   1  15
BRANCH   5  24
ATOM     24  S   UNL     1       0.475  11.168  19.707  0.00  0.00    +0.000 S 
ATOM     25  O   UNL     1      -0.522  11.326  18.662  0.00  0.00    +0.000 OA
ATOM     26  O   UNL     1       0.119  11.435  21.087  0.00  0.00    +0.000 OA
BRANCH  24  27
ATOM     27  C   UNL     1       1.838  12.233  19.263  0.00  0.00    +0.000 C 
BRANCH  27  28
ATOM     28  C   UNL     1       1.333  13.425  18.443  0.00  0.00    +0.000 C 
BRANCH  28  29
ATOM     29  C   UNL     1       1.017  14.654  19.287  0.00  0.00    +0.000 C 
BRANCH  29  30
ATOM     30  C   UNL     1      -0.366  15.177  19.011  0.00  0.00    +0.000 C 
ATOM     31  O   UNL     1      -0.582  16.270  18.504  0.00  0.00    +0.000 OA
BRANCH  30  32
ATOM     32  O   UNL     1      -1.351  14.309  19.317  0.00  0.00    +0.000 OA
ATOM     33  H   UNL     1      -1.231  13.414  18.951  0.00  0.00    +0.000 HD
ENDBRANCH  30  32
ENDBRANCH  29  30
ENDBRANCH  28  29
ENDBRANCH  27  28
ENDBRANCH  24  27
ENDBRANCH   5  24
TORSDOF 10
ENDMDL
