MODEL 1
REMARK VINA RESULT:      -9.2      0.000      0.000
REMARK  Name = 
REMARK  9 active torsions:
REMARK  status: ('A' for Active; 'I' for Inactive)
REMARK    1  A    between atoms: C_1  and  C_2
REMARK    2  A    between atoms: C_2  and  N_3
REMARK    3  A    between atoms: C_2  and  C_20
REMARK    4  A    between atoms: C_4  and  C_6
REMARK    5  A    between atoms: C_6  and  N_7
REMARK    6  A    between atoms: N_10  and  C_11
REMARK    7  A    between atoms: C_14  and  C_15
REMARK    8  A    between atoms: C_23  and  O_24
REMARK    9  A    between atoms: O_24  and  C_25
REMARK                            x       y       z     vdW  Elec       q    Type
REMARK                         _______ _______ _______ _____ _____    ______ ____
ROOT
ATOM      1  N   UNL     1       4.693   6.093  18.245  0.00  0.00    +0.000 N 
ATOM      2  C   UNL     1       5.569   5.039  18.407  0.00  0.00    +0.000 C 
ATOM      3  O   UNL     1       5.293   4.019  19.034  0.00  0.00    +0.000 OA
ATOM      4  H   UNL     1       5.056   6.978  17.895  0.00  0.00    +0.000 HD
ENDROOT
BRANCH   1   6
ATOM      5  C   UNL     1       2.480   5.120  17.745  0.00  0.00    +0.000 C 
ATOM      6  C   UNL     1       3.313   5.996  18.693  0.00  0.00    +0.000 C 
BRANCH   6   7
ATOM      7  C   UNL     1       2.649   7.353  18.858  0.00  0.00    +0.000 A 
ATOM      8  C   UNL     1       1.952   7.653  20.041  0.00  0.00    +0.000 A 
ATOM      9  C   UNL     1       1.207   8.832  20.153  0.00  0.00    +0.000 A 
ATOM     10  C   UNL     1       1.154   9.731  19.090  0.00  0.00    +0.000 A 
ATOM     11  C   UNL     1       1.831   9.436  17.904  0.00  0.00    +0.000 A 
ATOM     12  C   UNL     1       2.608   8.280  17.806  0.00  0.00    +0.000 A 
BRANCH  10  13
ATOM     13  O   UNL     1       0.374  10.855  19.276  0.00  0.00    +0.000 OA
BRANCH  13  14
ATOM     14  C   UNL     1      -0.910  10.873  18.774  0.00  0.00    +0.000 A 
ATOM     15  C   UNL     1      -1.323  10.006  17.753  0.00  0.00    +0.000 A 
ATOM     16  C   UNL     1      -2.649  10.005  17.322  0.00  0.00    +0.000 A 
ATOM     17  C   UNL     1      -3.551  10.917  17.864  0.00  0.00    +0.000 A 
ATOM     18 CL   UNL     1      -5.189  10.898  17.341  0.00  0.00    +0.000 Cl
ATOM     19  C   UNL     1      -3.136  11.843  18.819  0.00  0.00    +0.000 A 
ATOM     20  C   UNL     1      -1.814  11.823  19.270  0.00  0.00    +0.000 A 
ATOM     21 CL   UNL     1      -1.337  12.991  20.450  0.00  0.00    +0.000 Cl
ENDBRANCH  13  14
ENDBRANCH  10  13
ENDBRANCH   6   7
ENDBRANCH   1   6
BRANCH   2  22
ATOM     22  C   UNL     1       6.960   5.240  17.795  0.00  0.00    +0.000 C 
BRANCH  22  23
ATOM     23  N   UNL     1       7.780   6.162  18.563  0.00  0.00    +0.000 N 
ATOM     24  C   UNL     1       7.783   7.489  18.198  0.00  0.00    +0.000 C 
ATOM     25  O   UNL     1       7.074   7.886  17.279  0.00  0.00    +0.000 OA
ATOM     26  N   UNL     1       8.675   8.233  18.937  0.00  0.00    +0.000 N 
ATOM     27  H   UNL     1       7.896   5.956  19.546  0.00  0.00    +0.000 HD
ATOM     28  H   UNL     1       9.353   7.706  19.472  0.00  0.00    +0.000 HD
BRANCH  26  29
ATOM     29  C   UNL     1       8.885   9.624  18.812  0.00  0.00    +0.000 A 
ATOM     30  C   UNL     1       8.392  10.372  17.740  0.00  0.00    +0.000 A 
ATOM     31  C   UNL     1       8.624  11.747  17.649  0.00  0.00    +0.000 A 
ATOM     32  C   UNL     1       9.346  12.407  18.641  0.00  0.00    +0.000 A 
ATOM     33  C   UNL     1       9.851  11.670  19.720  0.00  0.00    +0.000 A 
ATOM     34  C   UNL     1       9.612  10.289  19.811  0.00  0.00    +0.000 A 
BRANCH  32  35
ATOM     35  C   UNL     1       9.558  13.876  18.532  0.00  0.00    +0.000 C 
ATOM     36  N   UNL     1       9.453  14.680  19.541  0.00  0.00    +0.000 NA
ATOM     37  N   UNL     1       9.867  14.444  17.332  0.00  0.00    +0.000 N 
ATOM     38  H   UNL     1       9.162  14.184  20.386  0.00  0.00    +0.000 HD
ATOM     39  H   UNL     1      10.487  13.917  16.729  0.00  0.00    +0.000 HD
ATOM     40  H   UNL     1      10.163  15.407  17.453  0.00  0.00    +0.000 HD
ENDBRANCH  32  35
ENDBRANCH  26  29
ENDBRANCH  22  23
ENDBRANCH   2  22
TORSDOF 8
ENDMDL
MODEL 2
REMARK VINA RESULT:      -9.2      0.936      1.342
REMARK  Name = 
REMARK  9 active torsions:
REMARK  status: ('A' for Active; 'I' for Inactive)
REMARK    1  A    between atoms: C_1  and  C_2
REMARK    2  A    between atoms: C_2  and  N_3
REMARK    3  A    between atoms: C_2  and  C_20
REMARK    4  A    between atoms: C_4  and  C_6
REMARK    5  A    between atoms: C_6  and  N_7
REMARK    6  A    between atoms: N_10  and  C_11
REMARK    7  A    between atoms: C_14  and  C_15
REMARK    8  A    between atoms: C_23  and  O_24
REMARK    9  A    between atoms: O_24  and  C_25
REMARK                            x       y       z     vdW  Elec       q    Type
REMARK                         _______ _______ _______ _____ _____    ______ ____
ROOT
ATOM      1  N   UNL     1       5.038   6.036  18.208  0.00  0.00    +0.000 N 
ATOM      2  C   UNL     1       6.148   5.277  18.517  0.00  0.00    +0.000 C 
ATOM      3  O   UNL     1       6.113   4.294  19.254  0.00  0.00    +0.000 OA
ATOM      4  H   UNL     1       5.176   6.942  17.765  0.00  0.00    +0.000 HD
ENDROOT
BRANCH   1   6
ATOM      5  C   UNL     1       3.066   4.680  17.599  0.00  0.00    +0.000 C 
ATOM      6  C   UNL     1       3.708   5.624  18.627  0.00  0.00    +0.000 C 
BRANCH   6   7
ATOM      7  C   UNL     1       2.783   6.800  18.895  0.00  0.00    +0.000 A 
ATOM      8  C   UNL     1       2.649   7.819  17.938  0.00  0.00    +0.000 A 
ATOM      9  C   UNL     1       1.925   8.982  18.225  0.00  0.00    +0.000 A 
ATOM     10  C   UNL     1       1.318   9.138  19.471  0.00  0.00    +0.000 A 
ATOM     11  C   UNL     1       1.456   8.137  20.435  0.00  0.00    +0.000 A 
ATOM     12  C   UNL     1       2.144   6.960  20.134  0.00  0.00    +0.000 A 
BRANCH  10  13
ATOM     13  O   UNL     1       0.647  10.326  19.679  0.00  0.00    +0.000 OA
BRANCH  13  14
ATOM     14  C   UNL     1      -0.485  10.598  18.939  0.00  0.00    +0.000 A 
ATOM     15  C   UNL     1      -1.400   9.598  18.584  0.00  0.00    +0.000 A 
ATOM     16  C   UNL     1      -2.569   9.924  17.899  0.00  0.00    +0.000 A 
ATOM     17  C   UNL     1      -2.796  11.241  17.507  0.00  0.00    +0.000 A 
ATOM     18 CL   UNL     1      -4.249  11.639  16.678  0.00  0.00    +0.000 Cl
ATOM     19  C   UNL     1      -1.855  12.233  17.778  0.00  0.00    +0.000 A 
ATOM     20  C   UNL     1      -0.697  11.909  18.491  0.00  0.00    +0.000 A 
ATOM     21 CL   UNL     1       0.447  13.166  18.801  0.00  0.00    +0.000 Cl
ENDBRANCH  13  14
ENDBRANCH  10  13
ENDBRANCH   6   7
ENDBRANCH   1   6
BRANCH   2  22
ATOM     22  C   UNL     1       7.470   5.773  17.922  0.00  0.00    +0.000 C 
BRANCH  22  23
ATOM     23  N   UNL     1       8.157   6.713  18.792  0.00  0.00    +0.000 N 
ATOM     24  C   UNL     1       8.221   8.031  18.402  0.00  0.00    +0.000 C 
ATOM     25  O   UNL     1       7.673   8.406  17.371  0.00  0.00    +0.000 OA
ATOM     26  N   UNL     1       8.983   8.793  19.260  0.00  0.00    +0.000 N 
ATOM     27  H   UNL     1       8.110   6.530  19.786  0.00  0.00    +0.000 HD
ATOM     28  H   UNL     1       9.564   8.280  19.910  0.00  0.00    +0.000 HD
BRANCH  26  29
ATOM     29  C   UNL     1       9.214  10.182  19.138  0.00  0.00    +0.000 A 
ATOM     30  C   UNL     1       9.311  10.830  17.905  0.00  0.00    +0.000 A 
ATOM     31  C   UNL     1       9.544  12.205  17.826  0.00  0.00    +0.000 A 
ATOM     32  C   UNL     1       9.670  12.966  18.985  0.00  0.00    +0.000 A 
ATOM     33  C   UNL     1       9.579  12.331  20.231  0.00  0.00    +0.000 A 
ATOM     34  C   UNL     1       9.340  10.949  20.306  0.00  0.00    +0.000 A 
BRANCH  32  35
ATOM     35  C   UNL     1       9.893  14.434  18.873  0.00  0.00    +0.000 C 
ATOM     36  N   UNL     1      10.863  14.949  18.187  0.00  0.00    +0.000 NA
ATOM     37  N   UNL     1       9.070  15.310  19.516  0.00  0.00    +0.000 N 
ATOM     38  H   UNL     1      11.464  14.226  17.788  0.00  0.00    +0.000 HD
ATOM     39  H   UNL     1       8.087  15.068  19.545  0.00  0.00    +0.000 HD
ATOM     40  H   UNL     1       9.231  16.260  19.196  0.00  0.00    +0.000 HD
ENDBRANCH  32  35
ENDBRANCH  26  29
ENDBRANCH  22  23
ENDBRANCH   2  22
TORSDOF 8
ENDMDL
MODEL 3
REMARK VINA RESULT:      -9.1      2.196      3.044
REMARK  Name = 
REMARK  9 active torsions:
REMARK  status: ('A' for Active; 'I' for Inactive)
REMARK    1  A    between atoms: C_1  and  C_2
REMARK    2  A    between atoms: C_2  and  N_3
REMARK    3  A    between atoms: C_2  and  C_20
REMARK    4  A    between atoms: C_4  and  C_6
REMARK    5  A    between atoms: C_6  and  N_7
REMARK    6  A    between atoms: N_10  and  C_11
REMARK    7  A    between atoms: C_14  and  C_15
REMARK    8  A    between atoms: C_23  and  O_24
REMARK    9  A    between atoms: O_24  and  C_25
REMARK                            x       y       z     vdW  Elec       q    Type
REMARK                         _______ _______ _______ _____ _____    ______ ____
ROOT
ATOM      1  N   UNL     1       5.096   6.173  18.063  0.00  0.00    +0.000 N 
ATOM      2  C   UNL     1       6.242   5.750  18.704  0.00  0.00    +0.000 C 
ATOM      3  O   UNL     1       6.236   5.133  19.766  0.00  0.00    +0.000 OA
ATOM      4  H   UNL     1       5.183   6.847  17.304  0.00  0.00    +0.000 HD
ENDROOT
BRANCH   1   6
ATOM      5  C   UNL     1       3.164   4.692  17.652  0.00  0.00    +0.000 C 
ATOM      6  C   UNL     1       3.780   5.781  18.543  0.00  0.00    +0.000 C 
BRANCH   6   7
ATOM      7  C   UNL     1       2.821   6.953  18.662  0.00  0.00    +0.000 A 
ATOM      8  C   UNL     1       2.620   7.809  17.566  0.00  0.00    +0.000 A 
ATOM      9  C   UNL     1       1.862   8.978  17.699  0.00  0.00    +0.000 A 
ATOM     10  C   UNL     1       1.289   9.304  18.927  0.00  0.00    +0.000 A 
ATOM     11  C   UNL     1       1.495   8.468  20.027  0.00  0.00    +0.000 A 
ATOM     12  C   UNL     1       2.216   7.281  19.884  0.00  0.00    +0.000 A 
BRANCH  10  13
ATOM     13  O   UNL     1       0.582  10.488  18.977  0.00  0.00    +0.000 OA
BRANCH  13  14
ATOM     14  C   UNL     1       1.244  11.655  19.297  0.00  0.00    +0.000 A 
ATOM     15  C   UNL     1       2.146  12.265  18.415  0.00  0.00    +0.000 A 
ATOM     16  C   UNL     1       2.740  13.482  18.745  0.00  0.00    +0.000 A 
ATOM     17  C   UNL     1       2.486  14.061  19.986  0.00  0.00    +0.000 A 
ATOM     18 CL   UNL     1       3.208  15.571  20.379  0.00  0.00    +0.000 Cl
ATOM     19  C   UNL     1       1.659  13.424  20.909  0.00  0.00    +0.000 A 
ATOM     20  C   UNL     1       1.040  12.218  20.564  0.00  0.00    +0.000 A 
ATOM     21 CL   UNL     1       0.027  11.458  21.738  0.00  0.00    +0.000 Cl
ENDBRANCH  13  14
ENDBRANCH  10  13
ENDBRANCH   6   7
ENDBRANCH   1   6
BRANCH   2  22
ATOM     22  C   UNL     1       7.559   6.150  18.029  0.00  0.00    +0.000 C 
BRANCH  22  23
ATOM     23  N   UNL     1       8.318   7.111  18.811  0.00  0.00    +0.000 N 
ATOM     24  C   UNL     1       8.358   8.416  18.377  0.00  0.00    +0.000 C 
ATOM     25  O   UNL     1       7.730   8.763  17.382  0.00  0.00    +0.000 OA
ATOM     26  N   UNL     1       9.190   9.198  19.146  0.00  0.00    +0.000 N 
ATOM     27  H   UNL     1       8.351   6.958  19.811  0.00  0.00    +0.000 HD
ATOM     28  H   UNL     1       9.819   8.701  19.763  0.00  0.00    +0.000 HD
BRANCH  26  29
ATOM     29  C   UNL     1       9.417  10.581  18.964  0.00  0.00    +0.000 A 
ATOM     30  C   UNL     1       9.893  11.120  17.767  0.00  0.00    +0.000 A 
ATOM     31  C   UNL     1      10.109  12.493  17.626  0.00  0.00    +0.000 A 
ATOM     32  C   UNL     1       9.838  13.360  18.682  0.00  0.00    +0.000 A 
ATOM     33  C   UNL     1       9.364  12.835  19.891  0.00  0.00    +0.000 A 
ATOM     34  C   UNL     1       9.143  11.455  20.027  0.00  0.00    +0.000 A 
BRANCH  32  35
ATOM     35  C   UNL     1      10.053  14.822  18.497  0.00  0.00    +0.000 C 
ATOM     36  N   UNL     1      10.250  15.635  19.485  0.00  0.00    +0.000 NA
ATOM     37  N   UNL     1      10.039  15.371  17.250  0.00  0.00    +0.000 N 
ATOM     38  H   UNL     1      10.187  15.154  20.384  0.00  0.00    +0.000 HD
ATOM     39  H   UNL     1      10.456  14.822  16.509  0.00  0.00    +0.000 HD
ATOM     40  H   UNL     1      10.383  16.326  17.271  0.00  0.00    +0.000 HD
ENDBRANCH  32  35
ENDBRANCH  26  29
ENDBRANCH  22  23
ENDBRANCH   2  22
TORSDOF 8
ENDMDL
MODEL 4
REMARK VINA RESULT:      -9.0      1.637      2.504
REMARK  Name = 
REMARK  9 active torsions:
REMARK  status: ('A' for Active; 'I' for Inactive)
REMARK    1  A    between atoms: C_1  and  C_2
REMARK    2  A    between atoms: C_2  and  N_3
REMARK    3  A    between atoms: C_2  and  C_20
REMARK    4  A    between atoms: C_4  and  C_6
REMARK    5  A    between atoms: C_6  and  N_7
REMARK    6  A    between atoms: N_10  and  C_11
REMARK    7  A    between atoms: C_14  and  C_15
REMARK    8  A    between atoms: C_23  and  O_24
REMARK    9  A    between atoms: O_24  and  C_25
REMARK                            x       y       z     vdW  Elec       q    Type
REMARK                         _______ _______ _______ _____ _____    ______ ____
ROOT
ATOM      1  N   UNL     1       4.977   6.144  18.313  0.00  0.00    +0.000 N 
ATOM      2  C   UNL     1       5.995   5.228  18.479  0.00  0.00    +0.000 C 
ATOM      3  O   UNL     1       5.857   4.161  19.072  0.00  0.00    +0.000 OA
ATOM      4  H   UNL     1       5.213   7.082  17.996  0.00  0.00    +0.000 HD
ENDROOT
BRANCH   1   6
ATOM      5  C   UNL     1       2.913   4.956  17.659  0.00  0.00    +0.000 C 
ATOM      6  C   UNL     1       3.614   5.830  18.710  0.00  0.00    +0.000 C 
BRANCH   6   7
ATOM      7  C   UNL     1       2.779   7.069  18.991  0.00  0.00    +0.000 A 
ATOM      8  C   UNL     1       2.138   7.217  20.232  0.00  0.00    +0.000 A 
ATOM      9  C   UNL     1       1.245   8.270  20.456  0.00  0.00    +0.000 A 
ATOM     10  C   UNL     1       0.986   9.195  19.446  0.00  0.00    +0.000 A 
ATOM     11  C   UNL     1       1.607   9.050  18.203  0.00  0.00    +0.000 A 
ATOM     12  C   UNL     1       2.530   8.023  17.993  0.00  0.00    +0.000 A 
BRANCH  10  13
ATOM     13  O   UNL     1       0.072  10.186  19.743  0.00  0.00    +0.000 OA
BRANCH  13  14
ATOM     14  C   UNL     1       0.450  11.507  19.624  0.00  0.00    +0.000 A 
ATOM     15  C   UNL     1       1.475  12.062  20.403  0.00  0.00    +0.000 A 
ATOM     16  C   UNL     1       1.877  13.381  20.201  0.00  0.00    +0.000 A 
ATOM     17  C   UNL     1       1.212  14.171  19.267  0.00  0.00    +0.000 A 
ATOM     18 CL   UNL     1       1.726  15.792  19.011  0.00  0.00    +0.000 Cl
ATOM     19  C   UNL     1       0.135  13.660  18.545  0.00  0.00    +0.000 A 
ATOM     20  C   UNL     1      -0.247  12.328  18.727  0.00  0.00    +0.000 A 
ATOM     21 CL   UNL     1      -1.591  11.735  17.818  0.00  0.00    +0.000 Cl
ENDBRANCH  13  14
ENDBRANCH  10  13
ENDBRANCH   6   7
ENDBRANCH   1   6
BRANCH   2  22
ATOM     22  C   UNL     1       7.358   5.651  17.919  0.00  0.00    +0.000 C 
BRANCH  22  23
ATOM     23  N   UNL     1       7.989   6.692  18.713  0.00  0.00    +0.000 N 
ATOM     24  C   UNL     1       8.102   7.949  18.165  0.00  0.00    +0.000 C 
ATOM     25  O   UNL     1       7.639   8.192  17.056  0.00  0.00    +0.000 OA
ATOM     26  N   UNL     1       8.807   8.811  18.976  0.00  0.00    +0.000 N 
ATOM     27  H   UNL     1       7.865   6.637  19.716  0.00  0.00    +0.000 HD
ATOM     28  H   UNL     1       9.330   8.382  19.729  0.00  0.00    +0.000 HD
BRANCH  26  29
ATOM     29  C   UNL     1       9.066  10.172  18.698  0.00  0.00    +0.000 A 
ATOM     30  C   UNL     1       8.260  10.941  17.855  0.00  0.00    +0.000 A 
ATOM     31  C   UNL     1       8.551  12.283  17.602  0.00  0.00    +0.000 A 
ATOM     32  C   UNL     1       9.653  12.891  18.199  0.00  0.00    +0.000 A 
ATOM     33  C   UNL     1      10.474  12.132  19.044  0.00  0.00    +0.000 A 
ATOM     34  C   UNL     1      10.176  10.784  19.300  0.00  0.00    +0.000 A 
BRANCH  32  35
ATOM     35  C   UNL     1       9.927  14.329  17.932  0.00  0.00    +0.000 C 
ATOM     36  N   UNL     1      11.092  14.867  18.096  0.00  0.00    +0.000 NA
ATOM     37  N   UNL     1       8.930  15.155  17.503  0.00  0.00    +0.000 N 
ATOM     38  H   UNL     1      11.764  14.196  18.474  0.00  0.00    +0.000 HD
ATOM     39  H   UNL     1       8.264  14.759  16.852  0.00  0.00    +0.000 HD
ATOM     40  H   UNL     1       9.307  16.044  17.188  0.00  0.00    +0.000 HD
ENDBRANCH  32  35
ENDBRANCH  26  29
ENDBRANCH  22  23
ENDBRANCH   2  22
TORSDOF 8
ENDMDL
MODEL 5
REMARK VINA RESULT:      -8.9      0.987      1.046
REMARK  Name = 
REMARK  9 active torsions:
REMARK  status: ('A' for Active; 'I' for Inactive)
REMARK    1  A    between atoms: C_1  and  C_2
REMARK    2  A    between atoms: C_2  and  N_3
REMARK    3  A    between atoms: C_2  and  C_20
REMARK    4  A    between atoms: C_4  and  C_6
REMARK    5  A    between atoms: C_6  and  N_7
REMARK    6  A    between atoms: N_10  and  C_11
REMARK    7  A    between atoms: C_14  and  C_15
REMARK    8  A    between atoms: C_23  and  O_24
REMARK    9  A    between atoms: O_24  and  C_25
REMARK                            x       y       z     vdW  Elec       q    Type
REMARK                         _______ _______ _______ _____ _____    ______ ____
ROOT
ATOM      1  N   UNL     1       4.645   5.777  17.915  0.00  0.00    +0.000 N 
ATOM      2  C   UNL     1       5.728   4.993  18.259  0.00  0.00    +0.000 C 
ATOM      3  O   UNL     1       5.729   4.223  19.215  0.00  0.00    +0.000 OA
ATOM      4  H   UNL     1       4.784   6.531  17.245  0.00  0.00    +0.000 HD
ENDROOT
BRANCH   1   6
ATOM      5  C   UNL     1       2.409   4.739  17.781  0.00  0.00    +0.000 C 
ATOM      6  C   UNL     1       3.366   5.627  18.591  0.00  0.00    +0.000 C 
BRANCH   6   7
ATOM      7  C   UNL     1       2.701   6.958  18.898  0.00  0.00    +0.000 A 
ATOM      8  C   UNL     1       2.043   7.147  20.125  0.00  0.00    +0.000 A 
ATOM      9  C   UNL     1       1.296   8.305  20.367  0.00  0.00    +0.000 A 
ATOM     10  C   UNL     1       1.201   9.293  19.388  0.00  0.00    +0.000 A 
ATOM     11  C   UNL     1       1.838   9.110  18.159  0.00  0.00    +0.000 A 
ATOM     12  C   UNL     1       2.618   7.974  17.933  0.00  0.00    +0.000 A 
BRANCH  10  13
ATOM     13  O   UNL     1       0.422  10.389  19.700  0.00  0.00    +0.000 OA
BRANCH  13  14
ATOM     14  C   UNL     1      -0.735  10.617  18.984  0.00  0.00    +0.000 A 
ATOM     15  C   UNL     1      -1.013   9.947  17.785  0.00  0.00    +0.000 A 
ATOM     16  C   UNL     1      -2.226  10.151  17.129  0.00  0.00    +0.000 A 
ATOM     17  C   UNL     1      -3.138  11.075  17.634  0.00  0.00    +0.000 A 
ATOM     18 CL   UNL     1      -4.639  11.308  16.829  0.00  0.00    +0.000 Cl
ATOM     19  C   UNL     1      -2.839  11.813  18.778  0.00  0.00    +0.000 A 
ATOM     20  C   UNL     1      -1.635  11.585  19.451  0.00  0.00    +0.000 A 
ATOM     21 CL   UNL     1      -1.301  12.524  20.862  0.00  0.00    +0.000 Cl
ENDBRANCH  13  14
ENDBRANCH  10  13
ENDBRANCH   6   7
ENDBRANCH   1   6
BRANCH   2  22
ATOM     22  C   UNL     1       6.978   5.184  17.394  0.00  0.00    +0.000 C 
BRANCH  22  23
ATOM     23  N   UNL     1       7.151   6.560  16.958  0.00  0.00    +0.000 N 
ATOM     24  C   UNL     1       7.791   7.435  17.806  0.00  0.00    +0.000 C 
ATOM     25  O   UNL     1       8.243   7.049  18.879  0.00  0.00    +0.000 OA
ATOM     26  N   UNL     1       7.799   8.723  17.319  0.00  0.00    +0.000 N 
ATOM     27  H   UNL     1       7.274   6.710  15.965  0.00  0.00    +0.000 HD
ATOM     28  H   UNL     1       7.168   8.909  16.551  0.00  0.00    +0.000 HD
BRANCH  26  29
ATOM     29  C   UNL     1       8.401   9.835  17.950  0.00  0.00    +0.000 A 
ATOM     30  C   UNL     1       8.241  11.145  17.492  0.00  0.00    +0.000 A 
ATOM     31  C   UNL     1       8.855  12.219  18.141  0.00  0.00    +0.000 A 
ATOM     32  C   UNL     1       9.635  12.004  19.275  0.00  0.00    +0.000 A 
ATOM     33  C   UNL     1       9.809  10.695  19.744  0.00  0.00    +0.000 A 
ATOM     34  C   UNL     1       9.186   9.619  19.092  0.00  0.00    +0.000 A 
BRANCH  32  35
ATOM     35  C   UNL     1      10.259  13.168  19.962  0.00  0.00    +0.000 C 
ATOM     36  N   UNL     1       9.569  14.110  20.519  0.00  0.00    +0.000 NA
ATOM     37  N   UNL     1      11.615  13.292  20.019  0.00  0.00    +0.000 N 
ATOM     38  H   UNL     1       8.565  13.972  20.380  0.00  0.00    +0.000 HD
ATOM     39  H   UNL     1      12.142  12.437  20.148  0.00  0.00    +0.000 HD
ATOM     40  H   UNL     1      11.885  14.022  20.671  0.00  0.00    +0.000 HD
ENDBRANCH  32  35
ENDBRANCH  26  29
ENDBRANCH  22  23
ENDBRANCH   2  22
TORSDOF 8
ENDMDL
MODEL 6
REMARK VINA RESULT:      -8.8      1.880      2.818
REMARK  Name = 
REMARK  9 active torsions:
REMARK  status: ('A' for Active; 'I' for Inactive)
REMARK    1  A    between atoms: C_1  and  C_2
REMARK    2  A    between atoms: C_2  and  N_3
REMARK    3  A    between atoms: C_2  and  C_20
REMARK    4  A    between atoms: C_4  and  C_6
REMARK    5  A    between atoms: C_6  and  N_7
REMARK    6  A    between atoms: N_10  and  C_11
REMARK    7  A    between atoms: C_14  and  C_15
REMARK    8  A    between atoms: C_23  and  O_24
REMARK    9  A    between atoms: O_24  and  C_25
REMARK                            x       y       z     vdW  Elec       q    Type
REMARK                         _______ _______ _______ _____ _____    ______ ____
ROOT
ATOM      1  N   UNL     1       4.554   6.047  17.747  0.00  0.00    +0.000 N 
ATOM      2  C   UNL     1       5.804   5.807  18.279  0.00  0.00    +0.000 C 
ATOM      3  O   UNL     1       5.990   5.468  19.445  0.00  0.00    +0.000 OA
ATOM      4  H   UNL     1       4.491   6.517  16.846  0.00  0.00    +0.000 HD
ENDROOT
BRANCH   1   6
ATOM      5  C   UNL     1       2.387   4.866  17.722  0.00  0.00    +0.000 C 
ATOM      6  C   UNL     1       3.348   5.768  18.510  0.00  0.00    +0.000 C 
BRANCH   6   7
ATOM      7  C   UNL     1       2.625   7.028  18.955  0.00  0.00    +0.000 A 
ATOM      8  C   UNL     1       2.082   7.105  20.249  0.00  0.00    +0.000 A 
ATOM      9  C   UNL     1       1.284   8.190  20.627  0.00  0.00    +0.000 A 
ATOM     10  C   UNL     1       1.022   9.216  19.721  0.00  0.00    +0.000 A 
ATOM     11  C   UNL     1       1.544   9.143  18.427  0.00  0.00    +0.000 A 
ATOM     12  C   UNL     1       2.375   8.081  18.063  0.00  0.00    +0.000 A 
BRANCH  10  13
ATOM     13  O   UNL     1       0.203  10.233  20.168  0.00  0.00    +0.000 OA
BRANCH  13  14
ATOM     14  C   UNL     1       0.513  11.538  19.845  0.00  0.00    +0.000 A 
ATOM     15  C   UNL     1       1.503  12.259  20.526  0.00  0.00    +0.000 A 
ATOM     16  C   UNL     1       1.838  13.550  20.122  0.00  0.00    +0.000 A 
ATOM     17  C   UNL     1       1.139  14.151  19.078  0.00  0.00    +0.000 A 
ATOM     18 CL   UNL     1       1.571  15.737  18.573  0.00  0.00    +0.000 Cl
ATOM     19  C   UNL     1       0.094  13.479  18.446  0.00  0.00    +0.000 A 
ATOM     20  C   UNL     1      -0.220  12.173  18.833  0.00  0.00    +0.000 A 
ATOM     21 CL   UNL     1      -1.526  11.377  18.029  0.00  0.00    +0.000 Cl
ENDBRANCH  13  14
ENDBRANCH  10  13
ENDBRANCH   6   7
ENDBRANCH   1   6
BRANCH   2  22
ATOM     22  C   UNL     1       6.981   6.047  17.327  0.00  0.00    +0.000 C 
BRANCH  22  23
ATOM     23  N   UNL     1       7.178   7.455  17.027  0.00  0.00    +0.000 N 
ATOM     24  C   UNL     1       7.964   8.198  17.879  0.00  0.00    +0.000 C 
ATOM     25  O   UNL     1       8.518   7.670  18.837  0.00  0.00    +0.000 OA
ATOM     26  N   UNL     1       7.986   9.532  17.540  0.00  0.00    +0.000 N 
ATOM     27  H   UNL     1       7.189   7.714  16.049  0.00  0.00    +0.000 HD
ATOM     28  H   UNL     1       7.279   9.833  16.882  0.00  0.00    +0.000 HD
BRANCH  26  29
ATOM     29  C   UNL     1       8.722  10.536  18.208  0.00  0.00    +0.000 A 
ATOM     30  C   UNL     1       9.504  10.280  19.337  0.00  0.00    +0.000 A 
ATOM     31  C   UNL     1      10.214  11.301  19.973  0.00  0.00    +0.000 A 
ATOM     32  C   UNL     1      10.167  12.603  19.482  0.00  0.00    +0.000 A 
ATOM     33  C   UNL     1       9.384  12.878  18.353  0.00  0.00    +0.000 A 
ATOM     34  C   UNL     1       8.675  11.849  17.714  0.00  0.00    +0.000 A 
BRANCH  32  35
ATOM     35  C   UNL     1      10.953  13.668  20.164  0.00  0.00    +0.000 C 
ATOM     36  N   UNL     1      12.140  14.019  19.787  0.00  0.00    +0.000 NA
ATOM     37  N   UNL     1      10.440  14.320  21.247  0.00  0.00    +0.000 N 
ATOM     38  H   UNL     1      12.471  13.444  19.010  0.00  0.00    +0.000 HD
ATOM     39  H   UNL     1       9.449  14.523  21.224  0.00  0.00    +0.000 HD
ATOM     40  H   UNL     1      11.003  15.132  21.480  0.00  0.00    +0.000 HD
ENDBRANCH  32  35
ENDBRANCH  26  29
ENDBRANCH  22  23
ENDBRANCH   2  22
TORSDOF 8
ENDMDL
MODEL 7
REMARK VINA RESULT:      -8.7      1.125      1.594
REMARK  Name = 
REMARK  9 active torsions:
REMARK  status: ('A' for Active; 'I' for Inactive)
REMARK    1  A    between atoms: C_1  and  C_2
REMARK    2  A    between atoms: C_2  and  N_3
REMARK    3  A    between atoms: C_2  and  C_20
REMARK    4  A    between atoms: C_4  and  C_6
REMARK    5  A    between atoms: C_6  and  N_7
REMARK    6  A    between atoms: N_10  and  C_11
REMARK    7  A    between atoms: C_14  and  C_15
REMARK    8  A    between atoms: C_23  and  O_24
REMARK    9  A    between atoms: O_24  and  C_25
REMARK                            x       y       z     vdW  Elec       q    Type
REMARK                         _______ _______ _______ _____ _____    ______ ____
ROOT
ATOM      1  N   UNL     1       4.488   5.086  17.783  0.00  0.00    +0.000 N 
ATOM      2  C   UNL     1       5.676   4.676  18.352  0.00  0.00    +0.000 C 
ATOM      3  O   UNL     1       5.770   4.278  19.510  0.00  0.00    +0.000 OA
ATOM      4  H   UNL     1       4.521   5.591  16.899  0.00  0.00    +0.000 HD
ENDROOT
BRANCH   1   6
ATOM      5  C   UNL     1       2.262   4.021  17.712  0.00  0.00    +0.000 C 
ATOM      6  C   UNL     1       3.226   4.931  18.488  0.00  0.00    +0.000 C 
BRANCH   6   7
ATOM      7  C   UNL     1       2.551   6.259  18.791  0.00  0.00    +0.000 A 
ATOM      8  C   UNL     1       2.546   7.279  17.825  0.00  0.00    +0.000 A 
ATOM      9  C   UNL     1       2.067   8.557  18.135  0.00  0.00    +0.000 A 
ATOM     10  C   UNL     1       1.580   8.831  19.411  0.00  0.00    +0.000 A 
ATOM     11  C   UNL     1       1.593   7.828  20.384  0.00  0.00    +0.000 A 
ATOM     12  C   UNL     1       2.032   6.542  20.063  0.00  0.00    +0.000 A 
BRANCH  10  13
ATOM     13  O   UNL     1       1.153  10.124  19.639  0.00  0.00    +0.000 OA
BRANCH  13  14
ATOM     14  C   UNL     1      -0.097  10.506  19.198  0.00  0.00    +0.000 A 
ATOM     15  C   UNL     1      -0.664   9.989  18.025  0.00  0.00    +0.000 A 
ATOM     16  C   UNL     1      -1.959  10.345  17.652  0.00  0.00    +0.000 A 
ATOM     17  C   UNL     1      -2.667  11.271  18.413  0.00  0.00    +0.000 A 
ATOM     18 CL   UNL     1      -4.271  11.692  17.956  0.00  0.00    +0.000 Cl
ATOM     19  C   UNL     1      -2.085  11.860  19.534  0.00  0.00    +0.000 A 
ATOM     20  C   UNL     1      -0.798  11.479  19.924  0.00  0.00    +0.000 A 
ATOM     21 CL   UNL     1      -0.110  12.237  21.315  0.00  0.00    +0.000 Cl
ENDBRANCH  13  14
ENDBRANCH  10  13
ENDBRANCH   6   7
ENDBRANCH   1   6
BRANCH   2  22
ATOM     22  C   UNL     1       6.912   4.802  17.455  0.00  0.00    +0.000 C 
BRANCH  22  23
ATOM     23  N   UNL     1       7.116   6.157  16.971  0.00  0.00    +0.000 N 
ATOM     24  C   UNL     1       7.699   7.070  17.820  0.00  0.00    +0.000 C 
ATOM     25  O   UNL     1       8.077   6.732  18.937  0.00  0.00    +0.000 OA
ATOM     26  N   UNL     1       7.741   8.335  17.278  0.00  0.00    +0.000 N 
ATOM     27  H   UNL     1       7.305   6.263  15.983  0.00  0.00    +0.000 HD
ATOM     28  H   UNL     1       7.163   8.486  16.462  0.00  0.00    +0.000 HD
BRANCH  26  29
ATOM     29  C   UNL     1       8.301   9.475  17.898  0.00  0.00    +0.000 A 
ATOM     30  C   UNL     1       8.205  10.758  17.354  0.00  0.00    +0.000 A 
ATOM     31  C   UNL     1       8.775  11.861  17.995  0.00  0.00    +0.000 A 
ATOM     32  C   UNL     1       9.444  11.703  19.206  0.00  0.00    +0.000 A 
ATOM     33  C   UNL     1       9.553  10.422  19.763  0.00  0.00    +0.000 A 
ATOM     34  C   UNL     1       8.974   9.317  19.119  0.00  0.00    +0.000 A 
BRANCH  32  35
ATOM     35  C   UNL     1      10.022  12.898  19.881  0.00  0.00    +0.000 C 
ATOM     36  N   UNL     1      10.046  14.072  19.336  0.00  0.00    +0.000 NA
ATOM     37  N   UNL     1      10.571  12.793  21.124  0.00  0.00    +0.000 N 
ATOM     38  H   UNL     1       9.671  14.051  18.386  0.00  0.00    +0.000 HD
ATOM     39  H   UNL     1      10.106  12.168  21.772  0.00  0.00    +0.000 HD
ATOM     40  H   UNL     1      10.746  13.710  21.521  0.00  0.00    +0.000 HD
ENDBRANCH  32  35
ENDBRANCH  26  29
ENDBRANCH  22  23
ENDBRANCH   2  22
TORSDOF 8
ENDMDL
MODEL 8
REMARK VINA RESULT:      -8.5      2.157      2.971
REMARK  Name = 
REMARK  9 active torsions:
REMARK  status: ('A' for Active; 'I' for Inactive)
REMARK    1  A    between atoms: C_1  and  C_2
REMARK    2  A    between atoms: C_2  and  N_3
REMARK    3  A    between atoms: C_2  and  C_20
REMARK    4  A    between atoms: C_4  and  C_6
REMARK    5  A    between atoms: C_6  and  N_7
REMARK    6  A    between atoms: N_10  and  C_11
REMARK    7  A    between atoms: C_14  and  C_15
REMARK    8  A    between atoms: C_23  and  O_24
REMARK    9  A    between atoms: O_24  and  C_25
REMARK                            x       y       z     vdW  Elec       q    Type
REMARK                         _______ _______ _______ _____ _____    ______ ____
ROOT
ATOM      1  N   UNL     1       4.638   5.767  17.880  0.00  0.00    +0.000 N 
ATOM      2  C   UNL     1       5.725   5.004  18.254  0.00  0.00    +0.000 C 
ATOM      3  O   UNL     1       5.738   4.289  19.253  0.00  0.00    +0.000 OA
ATOM      4  H   UNL     1       4.768   6.483  17.167  0.00  0.00    +0.000 HD
ENDROOT
BRANCH   1   6
ATOM      5  C   UNL     1       2.412   4.699  17.854  0.00  0.00    +0.000 C 
ATOM      6  C   UNL     1       3.368   5.658  18.580  0.00  0.00    +0.000 C 
BRANCH   6   7
ATOM      7  C   UNL     1       2.690   7.002  18.788  0.00  0.00    +0.000 A 
ATOM      8  C   UNL     1       2.109   7.310  20.030  0.00  0.00    +0.000 A 
ATOM      9  C   UNL     1       1.350   8.473  20.197  0.00  0.00    +0.000 A 
ATOM     10  C   UNL     1       1.167   9.349  19.128  0.00  0.00    +0.000 A 
ATOM     11  C   UNL     1       1.728   9.046  17.885  0.00  0.00    +0.000 A 
ATOM     12  C   UNL     1       2.520   7.907  17.729  0.00  0.00    +0.000 A 
BRANCH  10  13
ATOM     13  O   UNL     1       0.382  10.458  19.373  0.00  0.00    +0.000 OA
BRANCH  13  14
ATOM     14  C   UNL     1       0.990  11.672  19.612  0.00  0.00    +0.000 A 
ATOM     15  C   UNL     1       1.872  12.258  18.693  0.00  0.00    +0.000 A 
ATOM     16  C   UNL     1       2.409  13.520  18.938  0.00  0.00    +0.000 A 
ATOM     17  C   UNL     1       2.120  14.174  20.133  0.00  0.00    +0.000 A 
ATOM     18 CL   UNL     1       2.772  15.739  20.420  0.00  0.00    +0.000 Cl
ATOM     19  C   UNL     1       1.314  13.568  21.095  0.00  0.00    +0.000 A 
ATOM     20  C   UNL     1       0.752  12.315  20.834  0.00  0.00    +0.000 A 
ATOM     21 CL   UNL     1      -0.237  11.596  22.055  0.00  0.00    +0.000 Cl
ENDBRANCH  13  14
ENDBRANCH  10  13
ENDBRANCH   6   7
ENDBRANCH   1   6
BRANCH   2  22
ATOM     22  C   UNL     1       6.964   5.143  17.363  0.00  0.00    +0.000 C 
BRANCH  22  23
ATOM     23  N   UNL     1       7.177   6.509  16.913  0.00  0.00    +0.000 N 
ATOM     24  C   UNL     1       7.778   7.392  17.781  0.00  0.00    +0.000 C 
ATOM     25  O   UNL     1       8.163   7.021  18.885  0.00  0.00    +0.000 OA
ATOM     26  N   UNL     1       7.828   8.671  17.273  0.00  0.00    +0.000 N 
ATOM     27  H   UNL     1       7.359   6.639  15.927  0.00  0.00    +0.000 HD
ATOM     28  H   UNL     1       7.244   8.850  16.467  0.00  0.00    +0.000 HD
BRANCH  26  29
ATOM     29  C   UNL     1       8.406   9.788  17.918  0.00  0.00    +0.000 A 
ATOM     30  C   UNL     1       9.198   9.677  19.062  0.00  0.00    +0.000 A 
ATOM     31  C   UNL     1       9.750  10.806  19.674  0.00  0.00    +0.000 A 
ATOM     32  C   UNL     1       9.529  12.074  19.141  0.00  0.00    +0.000 A 
ATOM     33  C   UNL     1       8.733  12.203  17.996  0.00  0.00    +0.000 A 
ATOM     34  C   UNL     1       8.185  11.065  17.381  0.00  0.00    +0.000 A 
BRANCH  32  35
ATOM     35  C   UNL     1      10.148  13.258  19.798  0.00  0.00    +0.000 C 
ATOM     36  N   UNL     1      11.176  13.173  20.580  0.00  0.00    +0.000 NA
ATOM     37  N   UNL     1       9.633  14.505  19.603  0.00  0.00    +0.000 N 
ATOM     38  H   UNL     1      11.461  12.202  20.719  0.00  0.00    +0.000 HD
ATOM     39  H   UNL     1       9.290  14.712  18.673  0.00  0.00    +0.000 HD
ATOM     40  H   UNL     1      10.264  15.217  19.956  0.00  0.00    +0.000 HD
ENDBRANCH  32  35
ENDBRANCH  26  29
ENDBRANCH  22  23
ENDBRANCH   2  22
TORSDOF 8
ENDMDL
MODEL 9
REMARK VINA RESULT:      -8.5      2.087      2.795
REMARK  Name = 
REMARK  9 active torsions:
REMARK  status: ('A' for Active; 'I' for Inactive)
REMARK    1  A    between atoms: C_1  and  C_2
REMARK    2  A    between atoms: C_2  and  N_3
REMARK    3  A    between atoms: C_2  and  C_20
REMARK    4  A    between atoms: C_4  and  C_6
REMARK    5  A    between atoms: C_6  and  N_7
REMARK    6  A    between atoms: N_10  and  C_11
REMARK    7  A    between atoms: C_14  and  C_15
REMARK    8  A    between atoms: C_23  and  O_24
REMARK    9  A    between atoms: O_24  and  C_25
REMARK                            x       y       z     vdW  Elec       q    Type
REMARK                         _______ _______ _______ _____ _____    ______ ____
ROOT
ATOM      1  N   UNL     1       5.099   5.992  18.040  0.00  0.00    +0.000 N 
ATOM      2  C   UNL     1       6.208   5.562  18.738  0.00  0.00    +0.000 C 
ATOM      3  O   UNL     1       6.148   5.035  19.847  0.00  0.00    +0.000 OA
ATOM      4  H   UNL     1       5.236   6.596  17.232  0.00  0.00    +0.000 HD
ENDROOT
BRANCH   1   6
ATOM      5  C   UNL     1       3.000   4.785  17.553  0.00  0.00    +0.000 C 
ATOM      6  C   UNL     1       3.755   5.710  18.520  0.00  0.00    +0.000 C 
BRANCH   6   7
ATOM      7  C   UNL     1       2.941   6.969  18.770  0.00  0.00    +0.000 A 
ATOM      8  C   UNL     1       2.315   7.164  20.013  0.00  0.00    +0.000 A 
ATOM      9  C   UNL     1       1.439   8.237  20.214  0.00  0.00    +0.000 A 
ATOM     10  C   UNL     1       1.183   9.134  19.178  0.00  0.00    +0.000 A 
ATOM     11  C   UNL     1       1.789   8.942  17.934  0.00  0.00    +0.000 A 
ATOM     12  C   UNL     1       2.695   7.896  17.746  0.00  0.00    +0.000 A 
BRANCH  10  13
ATOM     13  O   UNL     1       0.286  10.147  19.454  0.00  0.00    +0.000 OA
BRANCH  13  14
ATOM     14  C   UNL     1       0.764  11.407  19.744  0.00  0.00    +0.000 A 
ATOM     15  C   UNL     1       1.657  12.079  18.898  0.00  0.00    +0.000 A 
ATOM     16  C   UNL     1       2.060  13.381  19.189  0.00  0.00    +0.000 A 
ATOM     17  C   UNL     1       1.625  13.993  20.362  0.00  0.00    +0.000 A 
ATOM     18 CL   UNL     1       2.112  15.606  20.705  0.00  0.00    +0.000 Cl
ATOM     19  C   UNL     1       0.806  13.307  21.257  0.00  0.00    +0.000 A 
ATOM     20  C   UNL     1       0.379  12.012  20.949  0.00  0.00    +0.000 A 
ATOM     21 CL   UNL     1      -0.631  11.195  22.087  0.00  0.00    +0.000 Cl
ENDBRANCH  13  14
ENDBRANCH  10  13
ENDBRANCH   6   7
ENDBRANCH   1   6
BRANCH   2  22
ATOM     22  C   UNL     1       7.556   5.835  18.063  0.00  0.00    +0.000 C 
BRANCH  22  23
ATOM     23  N   UNL     1       8.370   6.784  18.805  0.00  0.00    +0.000 N 
ATOM     24  C   UNL     1       8.229   8.123  18.518  0.00  0.00    +0.000 C 
ATOM     25  O   UNL     1       7.406   8.503  17.693  0.00  0.00    +0.000 OA
ATOM     26  N   UNL     1       9.126   8.903  19.214  0.00  0.00    +0.000 N 
ATOM     27  H   UNL     1       8.596   6.540  19.760  0.00  0.00    +0.000 HD
ATOM     28  H   UNL     1       9.893   8.411  19.653  0.00  0.00    +0.000 HD
BRANCH  26  29
ATOM     29  C   UNL     1       9.209  10.312  19.151  0.00  0.00    +0.000 A 
ATOM     30  C   UNL     1       9.504  11.105  20.262  0.00  0.00    +0.000 A 
ATOM     31  C   UNL     1       9.575  12.497  20.160  0.00  0.00    +0.000 A 
ATOM     32  C   UNL     1       9.363  13.125  18.936  0.00  0.00    +0.000 A 
ATOM     33  C   UNL     1       9.061  12.345  17.812  0.00  0.00    +0.000 A 
ATOM     34  C   UNL     1       8.996  10.946  17.917  0.00  0.00    +0.000 A 
BRANCH  32  35
ATOM     35  C   UNL     1       9.467  14.608  18.850  0.00  0.00    +0.000 C 
ATOM     36  N   UNL     1       8.437  15.381  18.728  0.00  0.00    +0.000 NA
ATOM     37  N   UNL     1      10.686  15.219  18.885  0.00  0.00    +0.000 N 
ATOM     38  H   UNL     1       7.572  14.843  18.650  0.00  0.00    +0.000 HD
ATOM     39  H   UNL     1      11.375  14.817  19.508  0.00  0.00    +0.000 HD
ATOM     40  H   UNL     1      10.584  16.222  19.006  0.00  0.00    +0.000 HD
ENDBRANCH  32  35
ENDBRANCH  26  29
ENDBRANCH  22  23
ENDBRANCH   2  22
TORSDOF 8
ENDMDL
