MODEL 1
REMARK VINA RESULT:      -7.2      0.000      0.000
REMARK  Name = 
REMARK  13 active torsions:
REMARK  status: ('A' for Active; 'I' for Inactive)
REMARK    1  A    between atoms: C_1  and  C_2
REMARK    2  A    between atoms: C_2  and  C_3
REMARK    3  A    between atoms: C_2  and  O_4
REMARK    4  A    between atoms: O_4  and  C_5
REMARK    5  A    between atoms: N_7  and  C_8
REMARK    6  A    between atoms: C_8  and  C_9
REMARK    7  A    between atoms: C_12  and  N_13
REMARK    8  A    between atoms: N_13  and  C_14
REMARK    9  A    between atoms: C_14  and  C_15
REMARK   10  A    between atoms: N_18  and  C_19
REMARK   11  A    between atoms: C_19  and  C_20
REMARK   12  A    between atoms: C_19  and  C_21
REMARK   13  A    between atoms: C_19  and  C_22
REMARK                            x       y       z     vdW  Elec       q    Type
REMARK                         _______ _______ _______ _____ _____    ______ ____
ROOT
ATOM      1  C   UNL     1       8.000   6.986  18.281  0.00  0.00    +0.000 A 
ATOM      2  C   UNL     1       7.472   7.140  16.997  0.00  0.00    +0.000 A 
ATOM      3  C   UNL     1       6.867   6.060  16.351  0.00  0.00    +0.000 A 
ATOM      4  C   UNL     1       6.795   4.794  16.949  0.00  0.00    +0.000 A 
ATOM      5  C   UNL     1       7.328   4.649  18.233  0.00  0.00    +0.000 A 
ATOM      6  C   UNL     1       7.926   5.730  18.893  0.00  0.00    +0.000 A 
ENDROOT
BRANCH   4   7
ATOM      7  N   UNL     1       6.067   3.799  16.303  0.00  0.00    +0.000 N 
ATOM      8  H   UNL     1       6.340   2.862  16.586  0.00  0.00    +0.000 HD
BRANCH   7   9
ATOM      9  C   UNL     1       4.618   3.901  16.164  0.00  0.00    +0.000 C 
BRANCH   9  10
ATOM     10  C   UNL     1       3.898   3.398  17.368  0.00  0.00    +0.000 A 
ATOM     11  C   UNL     1       3.693   2.068  17.785  0.00  0.00    +0.000 A 
ATOM     12  N   UNL     1       2.978   1.988  18.909  0.00  0.00    +0.000 NA
ATOM     13  N   UNL     1       2.712   3.273  19.227  0.00  0.00    +0.000 N 
ATOM     14  C   UNL     1       3.240   4.150  18.319  0.00  0.00    +0.000 A 
BRANCH  13  15
ATOM     15  C   UNL     1       1.965   3.621  20.449  0.00  0.00    +0.000 C 
ATOM     16  C   UNL     1       2.404   2.758  21.651  0.00  0.00    +0.000 C 
ATOM     17  C   UNL     1       2.212   5.103  20.792  0.00  0.00    +0.000 C 
ATOM     18  C   UNL     1       0.455   3.400  20.230  0.00  0.00    +0.000 C 
ENDBRANCH  13  15
ENDBRANCH   9  10
ENDBRANCH   7   9
ENDBRANCH   4   7
BRANCH   1  19
ATOM     19  C   UNL     1       8.553   8.167  19.028  0.00  0.00    +0.000 C 
BRANCH  19  22
ATOM     20  C   UNL     1       9.075  10.509  18.612  0.00  0.00    +0.000 C 
ATOM     21  O   UNL     1       9.811  10.604  19.586  0.00  0.00    +0.000 OA
ATOM     22  N   UNL     1       8.423   9.374  18.255  0.00  0.00    +0.000 N 
ATOM     23  H   UNL     1       7.815   9.411  17.447  0.00  0.00    +0.000 HD
BRANCH  20  24
ATOM     24  O   UNL     1       8.794  11.509  17.741  0.00  0.00    +0.000 OA
BRANCH  24  26
ATOM     25  C   UNL     1      10.491  13.191  17.299  0.00  0.00    +0.000 C 
ATOM     26  C   UNL     1       9.272  12.811  18.135  0.00  0.00    +0.000 C 
ATOM     27  C   UNL     1       8.151  13.822  17.919  0.00  0.00    +0.000 C 
ENDBRANCH  24  26
ENDBRANCH  20  24
ENDBRANCH  19  22
ENDBRANCH   1  19
TORSDOF 8
ENDMDL
MODEL 2
REMARK VINA RESULT:      -7.1      3.247     10.090
REMARK  Name = 
REMARK  13 active torsions:
REMARK  status: ('A' for Active; 'I' for Inactive)
REMARK    1  A    between atoms: C_1  and  C_2
REMARK    2  A    between atoms: C_2  and  C_3
REMARK    3  A    between atoms: C_2  and  O_4
REMARK    4  A    between atoms: O_4  and  C_5
REMARK    5  A    between atoms: N_7  and  C_8
REMARK    6  A    between atoms: C_8  and  C_9
REMARK    7  A    between atoms: C_12  and  N_13
REMARK    8  A    between atoms: N_13  and  C_14
REMARK    9  A    between atoms: C_14  and  C_15
REMARK   10  A    between atoms: N_18  and  C_19
REMARK   11  A    between atoms: C_19  and  C_20
REMARK   12  A    between atoms: C_19  and  C_21
REMARK   13  A    between atoms: C_19  and  C_22
REMARK                            x       y       z     vdW  Elec       q    Type
REMARK                         _______ _______ _______ _____ _____    ______ ____
ROOT
ATOM      1  C   UNL     1       6.485   5.283  17.726  0.00  0.00    +0.000 A 
ATOM      2  C   UNL     1       7.369   5.280  18.809  0.00  0.00    +0.000 A 
ATOM      3  C   UNL     1       8.120   6.419  19.106  0.00  0.00    +0.000 A 
ATOM      4  C   UNL     1       8.037   7.579  18.323  0.00  0.00    +0.000 A 
ATOM      5  C   UNL     1       7.153   7.571  17.241  0.00  0.00    +0.000 A 
ATOM      6  C   UNL     1       6.386   6.438  16.942  0.00  0.00    +0.000 A 
ENDROOT
BRANCH   4   7
ATOM      7  N   UNL     1       8.717   8.715  18.751  0.00  0.00    +0.000 N 
ATOM      8  H   UNL     1       9.710   8.554  18.887  0.00  0.00    +0.000 HD
BRANCH   7   9
ATOM      9  C   UNL     1       8.479  10.011  18.123  0.00  0.00    +0.000 C 
BRANCH   9  10
ATOM     10  C   UNL     1       9.409  11.062  18.623  0.00  0.00    +0.000 A 
ATOM     11  C   UNL     1      10.264  11.027  19.742  0.00  0.00    +0.000 A 
ATOM     12  N   UNL     1      10.944  12.165  19.903  0.00  0.00    +0.000 NA
ATOM     13  N   UNL     1      10.529  12.947  18.884  0.00  0.00    +0.000 N 
ATOM     14  C   UNL     1       9.599  12.323  18.097  0.00  0.00    +0.000 A 
BRANCH  13  15
ATOM     15  C   UNL     1      11.085  14.297  18.679  0.00  0.00    +0.000 C 
ATOM     16  C   UNL     1      10.058  15.243  18.021  0.00  0.00    +0.000 C 
ATOM     17  C   UNL     1      11.496  14.891  20.041  0.00  0.00    +0.000 C 
ATOM     18  C   UNL     1      12.324  14.228  17.765  0.00  0.00    +0.000 C 
ENDBRANCH  13  15
ENDBRANCH   9  10
ENDBRANCH   7   9
ENDBRANCH   4   7
BRANCH   1  19
ATOM     19  C   UNL     1       5.593   4.104  17.465  0.00  0.00    +0.000 C 
BRANCH  19  22
ATOM     20  C   UNL     1       4.108   3.484  19.294  0.00  0.00    +0.000 C 
ATOM     21  O   UNL     1       4.896   2.677  19.771  0.00  0.00    +0.000 OA
ATOM     22  N   UNL     1       4.352   4.225  18.184  0.00  0.00    +0.000 N 
ATOM     23  H   UNL     1       3.620   4.843  17.857  0.00  0.00    +0.000 HD
BRANCH  20  24
ATOM     24  O   UNL     1       2.879   3.766  19.791  0.00  0.00    +0.000 OA
BRANCH  24  26
ATOM     25  C   UNL     1       1.383   2.804  21.447  0.00  0.00    +0.000 C 
ATOM     26  C   UNL     1       2.067   2.614  20.096  0.00  0.00    +0.000 C 
ATOM     27  C   UNL     1       1.023   2.455  18.996  0.00  0.00    +0.000 C 
ENDBRANCH  24  26
ENDBRANCH  20  24
ENDBRANCH  19  22
ENDBRANCH   1  19
TORSDOF 8
ENDMDL
MODEL 3
REMARK VINA RESULT:      -7.0      0.926      1.705
REMARK  Name = 
REMARK  13 active torsions:
REMARK  status: ('A' for Active; 'I' for Inactive)
REMARK    1  A    between atoms: C_1  and  C_2
REMARK    2  A    between atoms: C_2  and  C_3
REMARK    3  A    between atoms: C_2  and  O_4
REMARK    4  A    between atoms: O_4  and  C_5
REMARK    5  A    between atoms: N_7  and  C_8
REMARK    6  A    between atoms: C_8  and  C_9
REMARK    7  A    between atoms: C_12  and  N_13
REMARK    8  A    between atoms: N_13  and  C_14
REMARK    9  A    between atoms: C_14  and  C_15
REMARK   10  A    between atoms: N_18  and  C_19
REMARK   11  A    between atoms: C_19  and  C_20
REMARK   12  A    between atoms: C_19  and  C_21
REMARK   13  A    between atoms: C_19  and  C_22
REMARK                            x       y       z     vdW  Elec       q    Type
REMARK                         _______ _______ _______ _____ _____    ______ ____
ROOT
ATOM      1  C   UNL     1       8.076   7.505  18.389  0.00  0.00    +0.000 A 
ATOM      2  C   UNL     1       8.109   6.238  18.977  0.00  0.00    +0.000 A 
ATOM      3  C   UNL     1       7.549   5.142  18.318  0.00  0.00    +0.000 A 
ATOM      4  C   UNL     1       6.916   5.278  17.075  0.00  0.00    +0.000 A 
ATOM      5  C   UNL     1       6.886   6.549  16.495  0.00  0.00    +0.000 A 
ATOM      6  C   UNL     1       7.456   7.652  17.143  0.00  0.00    +0.000 A 
ENDROOT
BRANCH   4   7
ATOM      7  N   UNL     1       6.494   4.125  16.419  0.00  0.00    +0.000 N 
ATOM      8  H   UNL     1       6.800   3.273  16.880  0.00  0.00    +0.000 HD
BRANCH   7   9
ATOM      9  C   UNL     1       5.121   3.995  15.942  0.00  0.00    +0.000 C 
BRANCH   9  10
ATOM     10  C   UNL     1       4.122   4.204  17.027  0.00  0.00    +0.000 A 
ATOM     11  C   UNL     1       3.547   5.407  17.481  0.00  0.00    +0.000 A 
ATOM     12  N   UNL     1       2.698   5.219  18.495  0.00  0.00    +0.000 NA
ATOM     13  N   UNL     1       2.722   3.885  18.705  0.00  0.00    +0.000 N 
ATOM     14  C   UNL     1       3.572   3.241  17.849  0.00  0.00    +0.000 A 
BRANCH  13  15
ATOM     15  C   UNL     1       1.872   3.257  19.733  0.00  0.00    +0.000 C 
ATOM     16  C   UNL     1       0.886   2.242  19.114  0.00  0.00    +0.000 C 
ATOM     17  C   UNL     1       2.763   2.517  20.749  0.00  0.00    +0.000 C 
ATOM     18  C   UNL     1       1.049   4.331  20.472  0.00  0.00    +0.000 C 
ENDBRANCH  13  15
ENDBRANCH   9  10
ENDBRANCH   7   9
ENDBRANCH   4   7
BRANCH   1  19
ATOM     19  C   UNL     1       8.772   8.667  19.037  0.00  0.00    +0.000 C 
BRANCH  19  22
ATOM     20  C   UNL     1       9.366  10.977  18.542  0.00  0.00    +0.000 C 
ATOM     21  O   UNL     1      10.039  11.109  19.556  0.00  0.00    +0.000 OA
ATOM     22  N   UNL     1       8.716   9.836  18.199  0.00  0.00    +0.000 N 
ATOM     23  H   UNL     1       8.163   9.843  17.352  0.00  0.00    +0.000 HD
BRANCH  20  24
ATOM     24  O   UNL     1       9.162  11.937  17.606  0.00  0.00    +0.000 OA
BRANCH  24  26
ATOM     25  C   UNL     1       9.778  14.270  17.891  0.00  0.00    +0.000 C 
ATOM     26  C   UNL     1       8.711  13.204  18.123  0.00  0.00    +0.000 C 
ATOM     27  C   UNL     1       7.422  13.587  17.404  0.00  0.00    +0.000 C 
ENDBRANCH  24  26
ENDBRANCH  20  24
ENDBRANCH  19  22
ENDBRANCH   1  19
TORSDOF 8
ENDMDL
MODEL 4
REMARK VINA RESULT:      -7.0      5.649      8.041
REMARK  Name = 
REMARK  13 active torsions:
REMARK  status: ('A' for Active; 'I' for Inactive)
REMARK    1  A    between atoms: C_1  and  C_2
REMARK    2  A    between atoms: C_2  and  C_3
REMARK    3  A    between atoms: C_2  and  O_4
REMARK    4  A    between atoms: O_4  and  C_5
REMARK    5  A    between atoms: N_7  and  C_8
REMARK    6  A    between atoms: C_8  and  C_9
REMARK    7  A    between atoms: C_12  and  N_13
REMARK    8  A    between atoms: N_13  and  C_14
REMARK    9  A    between atoms: C_14  and  C_15
REMARK   10  A    between atoms: N_18  and  C_19
REMARK   11  A    between atoms: C_19  and  C_20
REMARK   12  A    between atoms: C_19  and  C_21
REMARK   13  A    between atoms: C_19  and  C_22
REMARK                            x       y       z     vdW  Elec       q    Type
REMARK                         _______ _______ _______ _____ _____    ______ ____
ROOT
ATOM      1  C   UNL     1       1.077  10.184  19.352  0.00  0.00    +0.000 A 
ATOM      2  C   UNL     1       1.708   9.447  18.346  0.00  0.00    +0.000 A 
ATOM      3  C   UNL     1       2.152   8.147  18.601  0.00  0.00    +0.000 A 
ATOM      4  C   UNL     1       2.007   7.556  19.864  0.00  0.00    +0.000 A 
ATOM      5  C   UNL     1       1.377   8.303  20.864  0.00  0.00    +0.000 A 
ATOM      6  C   UNL     1       0.918   9.602  20.615  0.00  0.00    +0.000 A 
ENDROOT
BRANCH   4   7
ATOM      7  N   UNL     1       2.355   6.217  20.010  0.00  0.00    +0.000 N 
ATOM      8  H   UNL     1       2.261   5.886  20.966  0.00  0.00    +0.000 HD
BRANCH   7   9
ATOM      9  C   UNL     1       1.886   5.213  19.061  0.00  0.00    +0.000 C 
BRANCH   9  10
ATOM     10  C   UNL     1       2.995   4.645  18.244  0.00  0.00    +0.000 A 
ATOM     11  C   UNL     1       3.341   3.295  18.037  0.00  0.00    +0.000 A 
ATOM     12  N   UNL     1       4.415   3.155  17.256  0.00  0.00    +0.000 NA
ATOM     13  N   UNL     1       4.773   4.421  16.953  0.00  0.00    +0.000 N 
ATOM     14  C   UNL     1       3.950   5.346  17.535  0.00  0.00    +0.000 A 
BRANCH  13  15
ATOM     15  C   UNL     1       5.911   4.701  16.059  0.00  0.00    +0.000 C 
ATOM     16  C   UNL     1       5.844   6.132  15.483  0.00  0.00    +0.000 C 
ATOM     17  C   UNL     1       7.228   4.551  16.846  0.00  0.00    +0.000 C 
ATOM     18  C   UNL     1       5.915   3.711  14.877  0.00  0.00    +0.000 C 
ENDBRANCH  13  15
ENDBRANCH   9  10
ENDBRANCH   7   9
ENDBRANCH   4   7
BRANCH   1  19
ATOM     19  C   UNL     1       0.498  11.538  19.057  0.00  0.00    +0.000 C 
BRANCH  19  22
ATOM     20  C   UNL     1      -1.766  11.859  18.220  0.00  0.00    +0.000 C 
ATOM     21  O   UNL     1      -2.185  12.304  19.281  0.00  0.00    +0.000 OA
ATOM     22  N   UNL     1      -0.485  11.464  18.010  0.00  0.00    +0.000 N 
ATOM     23  H   UNL     1      -0.250  11.083  17.102  0.00  0.00    +0.000 HD
BRANCH  20  24
ATOM     24  O   UNL     1      -2.504  11.691  17.094  0.00  0.00    +0.000 OA
BRANCH  24  26
ATOM     25  C   UNL     1      -3.360   9.437  17.400  0.00  0.00    +0.000 C 
ATOM     26  C   UNL     1      -2.486  10.356  16.551  0.00  0.00    +0.000 C 
ATOM     27  C   UNL     1      -3.015  10.410  15.122  0.00  0.00    +0.000 C 
ENDBRANCH  24  26
ENDBRANCH  20  24
ENDBRANCH  19  22
ENDBRANCH   1  19
TORSDOF 8
ENDMDL
MODEL 5
REMARK VINA RESULT:      -7.0      7.007      9.692
REMARK  Name = 
REMARK  13 active torsions:
REMARK  status: ('A' for Active; 'I' for Inactive)
REMARK    1  A    between atoms: C_1  and  C_2
REMARK    2  A    between atoms: C_2  and  C_3
REMARK    3  A    between atoms: C_2  and  O_4
REMARK    4  A    between atoms: O_4  and  C_5
REMARK    5  A    between atoms: N_7  and  C_8
REMARK    6  A    between atoms: C_8  and  C_9
REMARK    7  A    between atoms: C_12  and  N_13
REMARK    8  A    between atoms: N_13  and  C_14
REMARK    9  A    between atoms: C_14  and  C_15
REMARK   10  A    between atoms: N_18  and  C_19
REMARK   11  A    between atoms: C_19  and  C_20
REMARK   12  A    between atoms: C_19  and  C_21
REMARK   13  A    between atoms: C_19  and  C_22
REMARK                            x       y       z     vdW  Elec       q    Type
REMARK                         _______ _______ _______ _____ _____    ______ ____
ROOT
ATOM      1  C   UNL     1       2.824   7.281  18.498  0.00  0.00    +0.000 A 
ATOM      2  C   UNL     1       2.286   7.266  19.788  0.00  0.00    +0.000 A 
ATOM      3  C   UNL     1       1.431   8.289  20.205  0.00  0.00    +0.000 A 
ATOM      4  C   UNL     1       1.110   9.364  19.366  0.00  0.00    +0.000 A 
ATOM      5  C   UNL     1       1.654   9.371  18.078  0.00  0.00    +0.000 A 
ATOM      6  C   UNL     1       2.503   8.344  17.647  0.00  0.00    +0.000 A 
ENDROOT
BRANCH   4   7
ATOM      7  N   UNL     1       0.154  10.278  19.799  0.00  0.00    +0.000 N 
ATOM      8  H   UNL     1       0.363  10.664  20.716  0.00  0.00    +0.000 HD
BRANCH   7   9
ATOM      9  C   UNL     1      -0.359  11.309  18.903  0.00  0.00    +0.000 C 
BRANCH   9  10
ATOM     10  C   UNL     1      -1.783  11.079  18.531  0.00  0.00    +0.000 A 
ATOM     11  C   UNL     1      -2.335  10.061  17.728  0.00  0.00    +0.000 A 
ATOM     12  N   UNL     1      -3.658  10.179  17.590  0.00  0.00    +0.000 NA
ATOM     13  N   UNL     1      -3.971  11.280  18.305  0.00  0.00    +0.000 N 
ATOM     14  C   UNL     1      -2.870  11.855  18.879  0.00  0.00    +0.000 A 
BRANCH  13  15
ATOM     15  C   UNL     1      -5.367  11.733  18.442  0.00  0.00    +0.000 C 
ATOM     16  C   UNL     1      -6.329  10.550  18.682  0.00  0.00    +0.000 C 
ATOM     17  C   UNL     1      -5.473  12.702  19.637  0.00  0.00    +0.000 C 
ATOM     18  C   UNL     1      -5.817  12.462  17.161  0.00  0.00    +0.000 C 
ENDBRANCH  13  15
ENDBRANCH   9  10
ENDBRANCH   7   9
ENDBRANCH   4   7
BRANCH   1  19
ATOM     19  C   UNL     1       3.654   6.131  18.003  0.00  0.00    +0.000 C 
BRANCH  19  22
ATOM     20  C   UNL     1       3.735   3.945  19.074  0.00  0.00    +0.000 C 
ATOM     21  O   UNL     1       4.880   4.095  19.482  0.00  0.00    +0.000 OA
ATOM     22  N   UNL     1       3.054   4.871  18.353  0.00  0.00    +0.000 N 
ATOM     23  H   UNL     1       2.122   4.635  18.039  0.00  0.00    +0.000 HD
BRANCH  20  24
ATOM     24  O   UNL     1       2.969   2.844  19.273  0.00  0.00    +0.000 OA
BRANCH  24  26
ATOM     25  C   UNL     1       0.657   2.246  18.827  0.00  0.00    +0.000 C 
ATOM     26  C   UNL     1       1.605   3.113  19.651  0.00  0.00    +0.000 C 
ATOM     27  C   UNL     1       1.445   2.802  21.135  0.00  0.00    +0.000 C 
ENDBRANCH  24  26
ENDBRANCH  20  24
ENDBRANCH  19  22
ENDBRANCH   1  19
TORSDOF 8
ENDMDL
MODEL 6
REMARK VINA RESULT:      -6.9      4.894      7.687
REMARK  Name = 
REMARK  13 active torsions:
REMARK  status: ('A' for Active; 'I' for Inactive)
REMARK    1  A    between atoms: C_1  and  C_2
REMARK    2  A    between atoms: C_2  and  C_3
REMARK    3  A    between atoms: C_2  and  O_4
REMARK    4  A    between atoms: O_4  and  C_5
REMARK    5  A    between atoms: N_7  and  C_8
REMARK    6  A    between atoms: C_8  and  C_9
REMARK    7  A    between atoms: C_12  and  N_13
REMARK    8  A    between atoms: N_13  and  C_14
REMARK    9  A    between atoms: C_14  and  C_15
REMARK   10  A    between atoms: N_18  and  C_19
REMARK   11  A    between atoms: C_19  and  C_20
REMARK   12  A    between atoms: C_19  and  C_21
REMARK   13  A    between atoms: C_19  and  C_22
REMARK                            x       y       z     vdW  Elec       q    Type
REMARK                         _______ _______ _______ _____ _____    ______ ____
ROOT
ATOM      1  C   UNL     1       5.822   4.680  16.292  0.00  0.00    +0.000 A 
ATOM      2  C   UNL     1       4.737   3.896  16.695  0.00  0.00    +0.000 A 
ATOM      3  C   UNL     1       3.658   4.479  17.364  0.00  0.00    +0.000 A 
ATOM      4  C   UNL     1       3.639   5.846  17.675  0.00  0.00    +0.000 A 
ATOM      5  C   UNL     1       4.729   6.621  17.270  0.00  0.00    +0.000 A 
ATOM      6  C   UNL     1       5.810   6.048  16.589  0.00  0.00    +0.000 A 
ENDROOT
BRANCH   4   7
ATOM      7  N   UNL     1       2.479   6.381  18.227  0.00  0.00    +0.000 N 
ATOM      8  H   UNL     1       1.633   5.983  17.832  0.00  0.00    +0.000 HD
BRANCH   7   9
ATOM      9  C   UNL     1       2.349   6.557  19.670  0.00  0.00    +0.000 C 
BRANCH   9  10
ATOM     10  C   UNL     1       1.737   7.868  20.027  0.00  0.00    +0.000 A 
ATOM     11  C   UNL     1       1.145   8.266  21.241  0.00  0.00    +0.000 A 
ATOM     12  N   UNL     1       0.677   9.517  21.198  0.00  0.00    +0.000 NA
ATOM     13  N   UNL     1       0.965   9.936  19.947  0.00  0.00    +0.000 N 
ATOM     14  C   UNL     1       1.595   8.970  19.209  0.00  0.00    +0.000 A 
BRANCH  13  15
ATOM     15  C   UNL     1       0.644  11.305  19.505  0.00  0.00    +0.000 C 
ATOM     16  C   UNL     1       1.743  11.879  18.586  0.00  0.00    +0.000 C 
ATOM     17  C   UNL     1      -0.687  11.291  18.729  0.00  0.00    +0.000 C 
ATOM     18  C   UNL     1       0.507  12.238  20.725  0.00  0.00    +0.000 C 
ENDBRANCH  13  15
ENDBRANCH   9  10
ENDBRANCH   7   9
ENDBRANCH   4   7
BRANCH   1  19
ATOM     19  C   UNL     1       6.934   4.086  15.477  0.00  0.00    +0.000 C 
BRANCH  19  22
ATOM     20  C   UNL     1       6.983   4.498  13.077  0.00  0.00    +0.000 C 
ATOM     21  O   UNL     1       7.811   5.395  13.164  0.00  0.00    +0.000 OA
ATOM     22  N   UNL     1       6.497   3.802  14.136  0.00  0.00    +0.000 N 
ATOM     23  H   UNL     1       5.792   3.099  13.956  0.00  0.00    +0.000 HD
BRANCH  20  24
ATOM     24  O   UNL     1       6.421   4.058  11.924  0.00  0.00    +0.000 OA
BRANCH  24  26
ATOM     25  C   UNL     1       4.175   3.268  11.440  0.00  0.00    +0.000 C 
ATOM     26  C   UNL     1       5.524   2.940  12.073  0.00  0.00    +0.000 C 
ATOM     27  C   UNL     1       6.145   1.728  11.388  0.00  0.00    +0.000 C 
ENDBRANCH  24  26
ENDBRANCH  20  24
ENDBRANCH  19  22
ENDBRANCH   1  19
TORSDOF 8
ENDMDL
MODEL 7
REMARK VINA RESULT:      -6.9      3.640      9.405
REMARK  Name = 
REMARK  13 active torsions:
REMARK  status: ('A' for Active; 'I' for Inactive)
REMARK    1  A    between atoms: C_1  and  C_2
REMARK    2  A    between atoms: C_2  and  C_3
REMARK    3  A    between atoms: C_2  and  O_4
REMARK    4  A    between atoms: O_4  and  C_5
REMARK    5  A    between atoms: N_7  and  C_8
REMARK    6  A    between atoms: C_8  and  C_9
REMARK    7  A    between atoms: C_12  and  N_13
REMARK    8  A    between atoms: N_13  and  C_14
REMARK    9  A    between atoms: C_14  and  C_15
REMARK   10  A    between atoms: N_18  and  C_19
REMARK   11  A    between atoms: C_19  and  C_20
REMARK   12  A    between atoms: C_19  and  C_21
REMARK   13  A    between atoms: C_19  and  C_22
REMARK                            x       y       z     vdW  Elec       q    Type
REMARK                         _______ _______ _______ _____ _____    ______ ____
ROOT
ATOM      1  C   UNL     1       4.844   4.498  16.826  0.00  0.00    +0.000 A 
ATOM      2  C   UNL     1       5.448   5.043  15.689  0.00  0.00    +0.000 A 
ATOM      3  C   UNL     1       6.279   6.160  15.802  0.00  0.00    +0.000 A 
ATOM      4  C   UNL     1       6.508   6.782  17.037  0.00  0.00    +0.000 A 
ATOM      5  C   UNL     1       5.898   6.232  18.167  0.00  0.00    +0.000 A 
ATOM      6  C   UNL     1       5.073   5.104  18.066  0.00  0.00    +0.000 A 
ENDROOT
BRANCH   4   7
ATOM      7  N   UNL     1       7.445   7.810  17.094  0.00  0.00    +0.000 N 
ATOM      8  H   UNL     1       7.099   8.683  16.705  0.00  0.00    +0.000 HD
BRANCH   7   9
ATOM      9  C   UNL     1       8.219   8.051  18.307  0.00  0.00    +0.000 C 
BRANCH   9  10
ATOM     10  C   UNL     1       8.623   9.478  18.448  0.00  0.00    +0.000 A 
ATOM     11  C   UNL     1       8.303  10.574  17.622  0.00  0.00    +0.000 A 
ATOM     12  N   UNL     1       8.861  11.712  18.042  0.00  0.00    +0.000 NA
ATOM     13  N   UNL     1       9.550  11.357  19.147  0.00  0.00    +0.000 N 
ATOM     14  C   UNL     1       9.440  10.021  19.419  0.00  0.00    +0.000 A 
BRANCH  13  15
ATOM     15  C   UNL     1      10.285  12.355  19.945  0.00  0.00    +0.000 C 
ATOM     16  C   UNL     1      10.114  13.779  19.373  0.00  0.00    +0.000 C 
ATOM     17  C   UNL     1       9.755  12.341  21.392  0.00  0.00    +0.000 C 
ATOM     18  C   UNL     1      11.790  12.023  19.956  0.00  0.00    +0.000 C 
ENDBRANCH  13  15
ENDBRANCH   9  10
ENDBRANCH   7   9
ENDBRANCH   4   7
BRANCH   1  19
ATOM     19  C   UNL     1       4.040   3.233  16.732  0.00  0.00    +0.000 C 
BRANCH  19  22
ATOM     20  C   UNL     1       2.831   2.160  18.554  0.00  0.00    +0.000 C 
ATOM     21  O   UNL     1       3.547   1.167  18.555  0.00  0.00    +0.000 OA
ATOM     22  N   UNL     1       2.988   3.214  17.714  0.00  0.00    +0.000 N 
ATOM     23  H   UNL     1       2.322   3.973  17.776  0.00  0.00    +0.000 HD
BRANCH  20  24
ATOM     24  O   UNL     1       1.776   2.368  19.380  0.00  0.00    +0.000 OA
BRANCH  24  26
ATOM     25  C   UNL     1       1.133   4.492  20.369  0.00  0.00    +0.000 C 
ATOM     26  C   UNL     1       2.033   3.264  20.479  0.00  0.00    +0.000 C 
ATOM     27  C   UNL     1       1.753   2.523  21.782  0.00  0.00    +0.000 C 
ENDBRANCH  24  26
ENDBRANCH  20  24
ENDBRANCH  19  22
ENDBRANCH   1  19
TORSDOF 8
ENDMDL
MODEL 8
REMARK VINA RESULT:      -6.8      3.321      9.716
REMARK  Name = 
REMARK  13 active torsions:
REMARK  status: ('A' for Active; 'I' for Inactive)
REMARK    1  A    between atoms: C_1  and  C_2
REMARK    2  A    between atoms: C_2  and  C_3
REMARK    3  A    between atoms: C_2  and  O_4
REMARK    4  A    between atoms: O_4  and  C_5
REMARK    5  A    between atoms: N_7  and  C_8
REMARK    6  A    between atoms: C_8  and  C_9
REMARK    7  A    between atoms: C_12  and  N_13
REMARK    8  A    between atoms: N_13  and  C_14
REMARK    9  A    between atoms: C_14  and  C_15
REMARK   10  A    between atoms: N_18  and  C_19
REMARK   11  A    between atoms: C_19  and  C_20
REMARK   12  A    between atoms: C_19  and  C_21
REMARK   13  A    between atoms: C_19  and  C_22
REMARK                            x       y       z     vdW  Elec       q    Type
REMARK                         _______ _______ _______ _____ _____    ______ ____
ROOT
ATOM      1  C   UNL     1       6.445   5.269  17.264  0.00  0.00    +0.000 A 
ATOM      2  C   UNL     1       7.375   5.076  18.290  0.00  0.00    +0.000 A 
ATOM      3  C   UNL     1       8.111   6.156  18.784  0.00  0.00    +0.000 A 
ATOM      4  C   UNL     1       7.965   7.446  18.256  0.00  0.00    +0.000 A 
ATOM      5  C   UNL     1       7.034   7.628  17.229  0.00  0.00    +0.000 A 
ATOM      6  C   UNL     1       6.283   6.554  16.736  0.00  0.00    +0.000 A 
ENDROOT
BRANCH   4   7
ATOM      7  N   UNL     1       8.634   8.495  18.880  0.00  0.00    +0.000 N 
ATOM      8  H   UNL     1       9.525   8.213  19.279  0.00  0.00    +0.000 HD
BRANCH   7   9
ATOM      9  C   UNL     1       8.737   9.803  18.242  0.00  0.00    +0.000 C 
BRANCH   9  10
ATOM     10  C   UNL     1       9.172  10.864  19.193  0.00  0.00    +0.000 A 
ATOM     11  C   UNL     1       9.433  10.762  20.573  0.00  0.00    +0.000 A 
ATOM     12  N   UNL     1       9.784  11.931  21.116  0.00  0.00    +0.000 NA
ATOM     13  N   UNL     1       9.751  12.800  20.084  0.00  0.00    +0.000 N 
ATOM     14  C   UNL     1       9.379  12.199  18.912  0.00  0.00    +0.000 A 
BRANCH  13  15
ATOM     15  C   UNL     1      10.124  14.216  20.262  0.00  0.00    +0.000 C 
ATOM     16  C   UNL     1      11.567  14.489  19.787  0.00  0.00    +0.000 C 
ATOM     17  C   UNL     1       9.162  15.102  19.447  0.00  0.00    +0.000 C 
ATOM     18  C   UNL     1      10.029  14.606  21.750  0.00  0.00    +0.000 C 
ENDBRANCH  13  15
ENDBRANCH   9  10
ENDBRANCH   7   9
ENDBRANCH   4   7
BRANCH   1  19
ATOM     19  C   UNL     1       5.571   4.138  16.803  0.00  0.00    +0.000 C 
BRANCH  19  22
ATOM     20  C   UNL     1       3.772   3.716  18.391  0.00  0.00    +0.000 C 
ATOM     21  O   UNL     1       4.462   3.004  19.110  0.00  0.00    +0.000 OA
ATOM     22  N   UNL     1       4.217   4.313  17.255  0.00  0.00    +0.000 N 
ATOM     23  H   UNL     1       3.556   4.859  16.718  0.00  0.00    +0.000 HD
BRANCH  20  24
ATOM     24  O   UNL     1       2.470   4.023  18.607  0.00  0.00    +0.000 OA
BRANCH  24  26
ATOM     25  C   UNL     1       1.198   4.078  20.677  0.00  0.00    +0.000 C 
ATOM     26  C   UNL     1       1.807   3.200  19.587  0.00  0.00    +0.000 C 
ATOM     27  C   UNL     1       0.714   2.400  18.886  0.00  0.00    +0.000 C 
ENDBRANCH  24  26
ENDBRANCH  20  24
ENDBRANCH  19  22
ENDBRANCH   1  19
TORSDOF 8
ENDMDL
MODEL 9
REMARK VINA RESULT:      -6.8      3.538      9.379
REMARK  Name = 
REMARK  13 active torsions:
REMARK  status: ('A' for Active; 'I' for Inactive)
REMARK    1  A    between atoms: C_1  and  C_2
REMARK    2  A    between atoms: C_2  and  C_3
REMARK    3  A    between atoms: C_2  and  O_4
REMARK    4  A    between atoms: O_4  and  C_5
REMARK    5  A    between atoms: N_7  and  C_8
REMARK    6  A    between atoms: C_8  and  C_9
REMARK    7  A    between atoms: C_12  and  N_13
REMARK    8  A    between atoms: N_13  and  C_14
REMARK    9  A    between atoms: C_14  and  C_15
REMARK   10  A    between atoms: N_18  and  C_19
REMARK   11  A    between atoms: C_19  and  C_20
REMARK   12  A    between atoms: C_19  and  C_21
REMARK   13  A    between atoms: C_19  and  C_22
REMARK                            x       y       z     vdW  Elec       q    Type
REMARK                         _______ _______ _______ _____ _____    ______ ____
ROOT
ATOM      1  C   UNL     1       4.929   4.606  17.096  0.00  0.00    +0.000 A 
ATOM      2  C   UNL     1       4.388   5.895  17.112  0.00  0.00    +0.000 A 
ATOM      3  C   UNL     1       5.226   7.007  17.223  0.00  0.00    +0.000 A 
ATOM      4  C   UNL     1       6.615   6.871  17.350  0.00  0.00    +0.000 A 
ATOM      5  C   UNL     1       7.146   5.578  17.336  0.00  0.00    +0.000 A 
ATOM      6  C   UNL     1       6.315   4.457  17.213  0.00  0.00    +0.000 A 
ENDROOT
BRANCH   4   7
ATOM      7  N   UNL     1       7.396   8.022  17.329  0.00  0.00    +0.000 N 
ATOM      8  H   UNL     1       6.856   8.864  17.154  0.00  0.00    +0.000 HD
BRANCH   7   9
ATOM      9  C   UNL     1       8.413   8.256  18.349  0.00  0.00    +0.000 C 
BRANCH   9  10
ATOM     10  C   UNL     1       8.759   9.699  18.482  0.00  0.00    +0.000 A 
ATOM     11  C   UNL     1       8.277  10.797  17.743  0.00  0.00    +0.000 A 
ATOM     12  N   UNL     1       8.827  11.953  18.123  0.00  0.00    +0.000 NA
ATOM     13  N   UNL     1       9.674  11.607  19.116  0.00  0.00    +0.000 N 
ATOM     14  C   UNL     1       9.669  10.260  19.356  0.00  0.00    +0.000 A 
BRANCH  13  15
ATOM     15  C   UNL     1      10.457  12.622  19.843  0.00  0.00    +0.000 C 
ATOM     16  C   UNL     1      11.941  12.215  19.969  0.00  0.00    +0.000 C 
ATOM     17  C   UNL     1      10.379  13.964  19.088  0.00  0.00    +0.000 C 
ATOM     18  C   UNL     1       9.892  12.811  21.265  0.00  0.00    +0.000 C 
ENDBRANCH  13  15
ENDBRANCH   9  10
ENDBRANCH   7   9
ENDBRANCH   4   7
BRANCH   1  19
ATOM     19  C   UNL     1       4.049   3.411  16.866  0.00  0.00    +0.000 C 
BRANCH  19  22
ATOM     20  C   UNL     1       2.428   2.948  18.625  0.00  0.00    +0.000 C 
ATOM     21  O   UNL     1       3.174   2.185  19.225  0.00  0.00    +0.000 OA
ATOM     22  N   UNL     1       2.759   3.593  17.477  0.00  0.00    +0.000 N 
ATOM     23  H   UNL     1       2.057   4.180  17.045  0.00  0.00    +0.000 HD
BRANCH  20  24
ATOM     24  O   UNL     1       1.167   3.272  19.002  0.00  0.00    +0.000 OA
BRANCH  24  26
ATOM     25  C   UNL     1       1.372   2.819  21.380  0.00  0.00    +0.000 C 
ATOM     26  C   UNL     1       1.058   3.863  20.312  0.00  0.00    +0.000 C 
ATOM     27  C   UNL     1       2.045   5.021  20.403  0.00  0.00    +0.000 C 
ENDBRANCH  24  26
ENDBRANCH  20  24
ENDBRANCH  19  22
ENDBRANCH   1  19
TORSDOF 8
ENDMDL
