MODEL 1
REMARK VINA RESULT:      -7.0      0.000      0.000
REMARK  Name = 
REMARK  7 active torsions:
REMARK  status: ('A' for Active; 'I' for Inactive)
REMARK    1  A    between atoms: C_1  and  C_2
REMARK    2  A    between atoms: C_5  and  C_6
REMARK    3  A    between atoms: C_7  and  C_8
REMARK    4  A    between atoms: C_8  and  N_9
REMARK    5  A    between atoms: N_9  and  C_10
REMARK    6  A    between atoms: N_13  and  C_14
REMARK    7  A    between atoms: C_17  and  O_18
REMARK                            x       y       z     vdW  Elec       q    Type
REMARK                         _______ _______ _______ _____ _____    ______ ____
ROOT
ATOM      1  N   UNL     1       3.284   3.905  17.641  0.00  0.00    +0.000 N 
ATOM      2  C   UNL     1       3.031   2.492  17.872  0.00  0.00    +0.000 C 
ATOM      3  C   UNL     1       2.461   4.789  18.332  0.00  0.00    +0.000 C 
ATOM      4  O   UNL     1       1.657   4.416  19.181  0.00  0.00    +0.000 OA
ATOM      5  N   UNL     1       2.598   6.100  17.974  0.00  0.00    +0.000 N 
ATOM      6  H   UNL     1       3.499   6.348  17.599  0.00  0.00    +0.000 HD
ENDROOT
BRANCH   5   7
ATOM      7  C   UNL     1       1.880   7.207  18.586  0.00  0.00    +0.000 C 
ATOM      8  C   UNL     1       2.175   7.443  20.072  0.00  0.00    +0.000 C 
ATOM      9  C   UNL     1       1.152   8.435  20.635  0.00  0.00    +0.000 C 
ATOM     10  C   UNL     1       1.115   9.746  19.840  0.00  0.00    +0.000 C 
ATOM     11  C   UNL     1       1.010   9.532  18.328  0.00  0.00    +0.000 C 
ATOM     12  C   UNL     1       2.031   8.522  17.813  0.00  0.00    +0.000 C 
BRANCH  10  13
ATOM     13  O   UNL     1       0.008  10.527  20.279  0.00  0.00    +0.000 OA
ATOM     14  H   UNL     1      -0.228  10.238  21.181  0.00  0.00    +0.000 HD
ENDBRANCH  10  13
ENDBRANCH   5   7
BRANCH   1  15
ATOM     15  C   UNL     1       4.074   4.248  16.461  0.00  0.00    +0.000 C 
BRANCH  15  22
ATOM     16  C   UNL     1       6.455   3.986  14.328  0.00  0.00    +0.000 C 
ATOM     17  C   UNL     1       6.572   4.317  15.769  0.00  0.00    +0.000 A 
ATOM     18  N   UNL     1       7.779   4.542  16.294  0.00  0.00    +0.000 NA
ATOM     19  O   UNL     1       7.562   4.807  17.624  0.00  0.00    +0.000 OA
ATOM     20  C   UNL     1       6.231   4.752  17.899  0.00  0.00    +0.000 A 
ATOM     21  C   UNL     1       5.893   5.031  19.309  0.00  0.00    +0.000 C 
ATOM     22  C   UNL     1       5.530   4.444  16.747  0.00  0.00    +0.000 A 
ENDBRANCH  15  22
ENDBRANCH   1  15
TORSDOF 4
ENDMDL
MODEL 2
REMARK VINA RESULT:      -6.9      1.027      2.050
REMARK  Name = 
REMARK  7 active torsions:
REMARK  status: ('A' for Active; 'I' for Inactive)
REMARK    1  A    between atoms: C_1  and  C_2
REMARK    2  A    between atoms: C_5  and  C_6
REMARK    3  A    between atoms: C_7  and  C_8
REMARK    4  A    between atoms: C_8  and  N_9
REMARK    5  A    between atoms: N_9  and  C_10
REMARK    6  A    between atoms: N_13  and  C_14
REMARK    7  A    between atoms: C_17  and  O_18
REMARK                            x       y       z     vdW  Elec       q    Type
REMARK                         _______ _______ _______ _____ _____    ______ ____
ROOT
ATOM      1  N   UNL     1       3.708   5.154  17.679  0.00  0.00    +0.000 N 
ATOM      2  C   UNL     1       3.591   3.711  17.536  0.00  0.00    +0.000 C 
ATOM      3  C   UNL     1       2.643   5.788  18.311  0.00  0.00    +0.000 C 
ATOM      4  O   UNL     1       1.720   5.169  18.832  0.00  0.00    +0.000 OA
ATOM      5  N   UNL     1       2.690   7.153  18.284  0.00  0.00    +0.000 N 
ATOM      6  H   UNL     1       3.614   7.547  18.208  0.00  0.00    +0.000 HD
ENDROOT
BRANCH   5   7
ATOM      7  C   UNL     1       1.716   8.030  18.914  0.00  0.00    +0.000 C 
ATOM      8  C   UNL     1       1.793   8.109  20.443  0.00  0.00    +0.000 C 
ATOM      9  C   UNL     1       0.548   8.828  20.972  0.00  0.00    +0.000 C 
ATOM     10  C   UNL     1       0.360  10.210  20.333  0.00  0.00    +0.000 C 
ATOM     11  C   UNL     1       0.468  10.189  18.806  0.00  0.00    +0.000 C 
ATOM     12  C   UNL     1       1.709   9.444  18.323  0.00  0.00    +0.000 C 
BRANCH  10  13
ATOM     13  O   UNL     1      -0.914  10.727  20.704  0.00  0.00    +0.000 OA
ATOM     14  H   UNL     1      -1.561  10.452  20.027  0.00  0.00    +0.000 HD
ENDBRANCH  10  13
ENDBRANCH   5   7
BRANCH   1  15
ATOM     15  C   UNL     1       4.696   5.821  16.835  0.00  0.00    +0.000 C 
BRANCH  15  22
ATOM     16  C   UNL     1       6.658   5.513  19.354  0.00  0.00    +0.000 C 
ATOM     17  C   UNL     1       6.889   5.029  17.971  0.00  0.00    +0.000 A 
ATOM     18  N   UNL     1       8.023   4.385  17.683  0.00  0.00    +0.000 NA
ATOM     19  O   UNL     1       7.946   4.080  16.346  0.00  0.00    +0.000 OA
ATOM     20  C   UNL     1       6.769   4.528  15.832  0.00  0.00    +0.000 A 
ATOM     21  C   UNL     1       6.589   4.240  14.395  0.00  0.00    +0.000 C 
ATOM     22  C   UNL     1       6.034   5.148  16.825  0.00  0.00    +0.000 A 
ENDBRANCH  15  22
ENDBRANCH   1  15
TORSDOF 4
ENDMDL
MODEL 3
REMARK VINA RESULT:      -6.8      1.228      2.028
REMARK  Name = 
REMARK  7 active torsions:
REMARK  status: ('A' for Active; 'I' for Inactive)
REMARK    1  A    between atoms: C_1  and  C_2
REMARK    2  A    between atoms: C_5  and  C_6
REMARK    3  A    between atoms: C_7  and  C_8
REMARK    4  A    between atoms: C_8  and  N_9
REMARK    5  A    between atoms: N_9  and  C_10
REMARK    6  A    between atoms: N_13  and  C_14
REMARK    7  A    between atoms: C_17  and  O_18
REMARK                            x       y       z     vdW  Elec       q    Type
REMARK                         _______ _______ _______ _____ _____    ______ ____
ROOT
ATOM      1  N   UNL     1       4.000   3.881  18.374  0.00  0.00    +0.000 N 
ATOM      2  C   UNL     1       3.745   2.594  17.745  0.00  0.00    +0.000 C 
ATOM      3  C   UNL     1       2.960   4.802  18.311  0.00  0.00    +0.000 C 
ATOM      4  O   UNL     1       1.850   4.517  17.871  0.00  0.00    +0.000 OA
ATOM      5  N   UNL     1       3.277   6.056  18.753  0.00  0.00    +0.000 N 
ATOM      6  H   UNL     1       4.022   6.094  19.429  0.00  0.00    +0.000 HD
ENDROOT
BRANCH   5   7
ATOM      7  C   UNL     1       2.345   7.171  18.825  0.00  0.00    +0.000 C 
ATOM      8  C   UNL     1       2.064   7.704  20.235  0.00  0.00    +0.000 C 
ATOM      9  C   UNL     1       0.870   8.663  20.179  0.00  0.00    +0.000 C 
ATOM     10  C   UNL     1       1.082   9.796  19.167  0.00  0.00    +0.000 C 
ATOM     11  C   UNL     1       1.549   9.301  17.795  0.00  0.00    +0.000 C 
ATOM     12  C   UNL     1       2.723   8.331  17.898  0.00  0.00    +0.000 C 
BRANCH  10  13
ATOM     13  O   UNL     1      -0.135  10.518  19.012  0.00  0.00    +0.000 OA
ATOM     14  H   UNL     1      -0.496  10.319  18.127  0.00  0.00    +0.000 HD
ENDBRANCH  10  13
ENDBRANCH   5   7
BRANCH   1  15
ATOM     15  C   UNL     1       5.396   4.213  18.650  0.00  0.00    +0.000 C 
BRANCH  15  22
ATOM     16  C   UNL     1       7.846   6.258  18.972  0.00  0.00    +0.000 C 
ATOM     17  C   UNL     1       7.164   5.865  17.715  0.00  0.00    +0.000 A 
ATOM     18  N   UNL     1       7.572   6.387  16.556  0.00  0.00    +0.000 NA
ATOM     19  O   UNL     1       6.753   5.846  15.596  0.00  0.00    +0.000 OA
ATOM     20  C   UNL     1       5.861   4.994  16.170  0.00  0.00    +0.000 A 
ATOM     21  C   UNL     1       4.936   4.354  15.214  0.00  0.00    +0.000 C 
ATOM     22  C   UNL     1       6.070   4.953  17.537  0.00  0.00    +0.000 A 
ENDBRANCH  15  22
ENDBRANCH   1  15
TORSDOF 4
ENDMDL
MODEL 4
REMARK VINA RESULT:      -6.7      1.037      1.120
REMARK  Name = 
REMARK  7 active torsions:
REMARK  status: ('A' for Active; 'I' for Inactive)
REMARK    1  A    between atoms: C_1  and  C_2
REMARK    2  A    between atoms: C_5  and  C_6
REMARK    3  A    between atoms: C_7  and  C_8
REMARK    4  A    between atoms: C_8  and  N_9
REMARK    5  A    between atoms: N_9  and  C_10
REMARK    6  A    between atoms: N_13  and  C_14
REMARK    7  A    between atoms: C_17  and  O_18
REMARK                            x       y       z     vdW  Elec       q    Type
REMARK                         _______ _______ _______ _____ _____    ______ ____
ROOT
ATOM      1  N   UNL     1       3.691   5.328  17.654  0.00  0.00    +0.000 N 
ATOM      2  C   UNL     1       3.558   3.893  17.462  0.00  0.00    +0.000 C 
ATOM      3  C   UNL     1       2.608   5.962  18.255  0.00  0.00    +0.000 C 
ATOM      4  O   UNL     1       1.651   5.344  18.713  0.00  0.00    +0.000 OA
ATOM      5  N   UNL     1       2.678   7.327  18.272  0.00  0.00    +0.000 N 
ATOM      6  H   UNL     1       3.611   7.706  18.251  0.00  0.00    +0.000 HD
ENDROOT
BRANCH   5   7
ATOM      7  C   UNL     1       1.690   8.202  18.882  0.00  0.00    +0.000 C 
ATOM      8  C   UNL     1       1.758   8.308  20.410  0.00  0.00    +0.000 C 
ATOM      9  C   UNL     1       0.500   9.019  20.920  0.00  0.00    +0.000 C 
ATOM     10  C   UNL     1       0.298  10.388  20.257  0.00  0.00    +0.000 C 
ATOM     11  C   UNL     1       0.413  10.341  18.731  0.00  0.00    +0.000 C 
ATOM     12  C   UNL     1       1.666   9.604  18.266  0.00  0.00    +0.000 C 
BRANCH  10  13
ATOM     13  O   UNL     1      -0.985  10.894  20.613  0.00  0.00    +0.000 OA
ATOM     14  H   UNL     1      -1.003  11.021  21.580  0.00  0.00    +0.000 HD
ENDBRANCH  10  13
ENDBRANCH   5   7
BRANCH   1  15
ATOM     15  C   UNL     1       4.728   6.003  16.878  0.00  0.00    +0.000 C 
BRANCH  15  22
ATOM     16  C   UNL     1       6.244   4.491  14.489  0.00  0.00    +0.000 C 
ATOM     17  C   UNL     1       6.721   4.676  15.881  0.00  0.00    +0.000 A 
ATOM     18  N   UNL     1       7.908   4.180  16.238  0.00  0.00    +0.000 NA
ATOM     19  O   UNL     1       8.060   4.498  17.565  0.00  0.00    +0.000 OA
ATOM     20  C   UNL     1       6.975   5.191  18.005  0.00  0.00    +0.000 A 
ATOM     21  C   UNL     1       7.047   5.588  19.426  0.00  0.00    +0.000 C 
ATOM     22  C   UNL     1       6.071   5.347  16.970  0.00  0.00    +0.000 A 
ENDBRANCH  15  22
ENDBRANCH   1  15
TORSDOF 4
ENDMDL
MODEL 5
REMARK VINA RESULT:      -6.6      1.244      2.330
REMARK  Name = 
REMARK  7 active torsions:
REMARK  status: ('A' for Active; 'I' for Inactive)
REMARK    1  A    between atoms: C_1  and  C_2
REMARK    2  A    between atoms: C_5  and  C_6
REMARK    3  A    between atoms: C_7  and  C_8
REMARK    4  A    between atoms: C_8  and  N_9
REMARK    5  A    between atoms: N_9  and  C_10
REMARK    6  A    between atoms: N_13  and  C_14
REMARK    7  A    between atoms: C_17  and  O_18
REMARK                            x       y       z     vdW  Elec       q    Type
REMARK                         _______ _______ _______ _____ _____    ______ ____
ROOT
ATOM      1  N   UNL     1       4.041   3.938  18.248  0.00  0.00    +0.000 N 
ATOM      2  C   UNL     1       3.558   2.746  17.570  0.00  0.00    +0.000 C 
ATOM      3  C   UNL     1       3.141   4.996  18.330  0.00  0.00    +0.000 C 
ATOM      4  O   UNL     1       1.971   4.897  17.971  0.00  0.00    +0.000 OA
ATOM      5  N   UNL     1       3.666   6.160  18.815  0.00  0.00    +0.000 N 
ATOM      6  H   UNL     1       4.459   6.048  19.425  0.00  0.00    +0.000 HD
ENDROOT
BRANCH   5   7
ATOM      7  C   UNL     1       2.911   7.384  19.033  0.00  0.00    +0.000 C 
ATOM      8  C   UNL     1       2.260   7.988  17.783  0.00  0.00    +0.000 C 
ATOM      9  C   UNL     1       1.756   9.397  18.111  0.00  0.00    +0.000 C 
ATOM     10  C   UNL     1       0.808   9.409  19.317  0.00  0.00    +0.000 C 
ATOM     11  C   UNL     1       1.359   8.646  20.525  0.00  0.00    +0.000 C 
ATOM     12  C   UNL     1       1.871   7.258  20.150  0.00  0.00    +0.000 C 
BRANCH  10  13
ATOM     13  O   UNL     1       0.550  10.758  19.695  0.00  0.00    +0.000 OA
ATOM     14  H   UNL     1      -0.133  11.115  19.097  0.00  0.00    +0.000 HD
ENDBRANCH  10  13
ENDBRANCH   5   7
BRANCH   1  15
ATOM     15  C   UNL     1       5.487   4.056  18.422  0.00  0.00    +0.000 C 
BRANCH  15  22
ATOM     16  C   UNL     1       7.757   6.267  18.922  0.00  0.00    +0.000 C 
ATOM     17  C   UNL     1       7.167   5.863  17.623  0.00  0.00    +0.000 A 
ATOM     18  N   UNL     1       7.589   6.450  16.500  0.00  0.00    +0.000 NA
ATOM     19  O   UNL     1       6.860   5.881  15.486  0.00  0.00    +0.000 OA
ATOM     20  C   UNL     1       6.009   4.947  15.990  0.00  0.00    +0.000 A 
ATOM     21  C   UNL     1       5.182   4.270  14.972  0.00  0.00    +0.000 C 
ATOM     22  C   UNL     1       6.155   4.879  17.364  0.00  0.00    +0.000 A 
ENDBRANCH  15  22
ENDBRANCH   1  15
TORSDOF 4
ENDMDL
MODEL 6
REMARK VINA RESULT:      -6.6      1.043      1.534
REMARK  Name = 
REMARK  7 active torsions:
REMARK  status: ('A' for Active; 'I' for Inactive)
REMARK    1  A    between atoms: C_1  and  C_2
REMARK    2  A    between atoms: C_5  and  C_6
REMARK    3  A    between atoms: C_7  and  C_8
REMARK    4  A    between atoms: C_8  and  N_9
REMARK    5  A    between atoms: N_9  and  C_10
REMARK    6  A    between atoms: N_13  and  C_14
REMARK    7  A    between atoms: C_17  and  O_18
REMARK                            x       y       z     vdW  Elec       q    Type
REMARK                         _______ _______ _______ _____ _____    ______ ____
ROOT
ATOM      1  N   UNL     1       4.161   4.076  18.507  0.00  0.00    +0.000 N 
ATOM      2  C   UNL     1       4.254   2.817  19.229  0.00  0.00    +0.000 C 
ATOM      3  C   UNL     1       3.507   5.109  19.172  0.00  0.00    +0.000 C 
ATOM      4  O   UNL     1       3.141   5.016  20.339  0.00  0.00    +0.000 OA
ATOM      5  N   UNL     1       3.280   6.224  18.416  0.00  0.00    +0.000 N 
ATOM      6  H   UNL     1       3.927   6.365  17.657  0.00  0.00    +0.000 HD
ENDROOT
BRANCH   5   7
ATOM      7  C   UNL     1       2.655   7.444  18.903  0.00  0.00    +0.000 C 
ATOM      8  C   UNL     1       1.962   8.301  17.837  0.00  0.00    +0.000 C 
ATOM      9  C   UNL     1       1.612   9.665  18.440  0.00  0.00    +0.000 C 
ATOM     10  C   UNL     1       0.767   9.537  19.714  0.00  0.00    +0.000 C 
ATOM     11  C   UNL     1       1.343   8.539  20.722  0.00  0.00    +0.000 C 
ATOM     12  C   UNL     1       1.699   7.203  20.076  0.00  0.00    +0.000 C 
BRANCH  10  13
ATOM     13  O   UNL     1       0.659  10.815  20.333  0.00  0.00    +0.000 OA
ATOM     14  H   UNL     1      -0.182  11.220  20.048  0.00  0.00    +0.000 HD
ENDBRANCH  10  13
ENDBRANCH   5   7
BRANCH   1  15
ATOM     15  C   UNL     1       4.398   4.028  17.066  0.00  0.00    +0.000 C 
BRANCH  15  22
ATOM     16  C   UNL     1       5.536   4.151  14.069  0.00  0.00    +0.000 C 
ATOM     17  C   UNL     1       6.201   4.635  15.303  0.00  0.00    +0.000 A 
ATOM     18  N   UNL     1       7.410   5.196  15.219  0.00  0.00    +0.000 NA
ATOM     19  O   UNL     1       7.757   5.525  16.506  0.00  0.00    +0.000 OA
ATOM     20  C   UNL     1       6.759   5.175  17.362  0.00  0.00    +0.000 A 
ATOM     21  C   UNL     1       7.036   5.496  18.777  0.00  0.00    +0.000 C 
ATOM     22  C   UNL     1       5.720   4.598  16.654  0.00  0.00    +0.000 A 
ENDBRANCH  15  22
ENDBRANCH   1  15
TORSDOF 4
ENDMDL
MODEL 7
REMARK VINA RESULT:      -6.4      1.220      2.479
REMARK  Name = 
REMARK  7 active torsions:
REMARK  status: ('A' for Active; 'I' for Inactive)
REMARK    1  A    between atoms: C_1  and  C_2
REMARK    2  A    between atoms: C_5  and  C_6
REMARK    3  A    between atoms: C_7  and  C_8
REMARK    4  A    between atoms: C_8  and  N_9
REMARK    5  A    between atoms: N_9  and  C_10
REMARK    6  A    between atoms: N_13  and  C_14
REMARK    7  A    between atoms: C_17  and  O_18
REMARK                            x       y       z     vdW  Elec       q    Type
REMARK                         _______ _______ _______ _____ _____    ______ ____
ROOT
ATOM      1  N   UNL     1       3.910   5.587  17.596  0.00  0.00    +0.000 N 
ATOM      2  C   UNL     1       3.674   4.164  17.412  0.00  0.00    +0.000 C 
ATOM      3  C   UNL     1       2.867   6.304  18.173  0.00  0.00    +0.000 C 
ATOM      4  O   UNL     1       1.859   5.763  18.618  0.00  0.00    +0.000 OA
ATOM      5  N   UNL     1       3.038   7.660  18.180  0.00  0.00    +0.000 N 
ATOM      6  H   UNL     1       3.997   7.968  18.174  0.00  0.00    +0.000 HD
ENDROOT
BRANCH   5   7
ATOM      7  C   UNL     1       2.108   8.612  18.767  0.00  0.00    +0.000 C 
ATOM      8  C   UNL     1       0.942   9.034  17.866  0.00  0.00    +0.000 C 
ATOM      9  C   UNL     1       0.227  10.232  18.499  0.00  0.00    +0.000 C 
ATOM     10  C   UNL     1      -0.231   9.943  19.935  0.00  0.00    +0.000 C 
ATOM     11  C   UNL     1       0.872   9.340  20.809  0.00  0.00    +0.000 C 
ATOM     12  C   UNL     1       1.573   8.166  20.132  0.00  0.00    +0.000 C 
BRANCH  10  13
ATOM     13  O   UNL     1      -0.691  11.152  20.531  0.00  0.00    +0.000 OA
ATOM     14  H   UNL     1      -1.654  11.214  20.385  0.00  0.00    +0.000 HD
ENDBRANCH  10  13
ENDBRANCH   5   7
BRANCH   1  15
ATOM     15  C   UNL     1       5.008   6.176  16.834  0.00  0.00    +0.000 C 
BRANCH  15  22
ATOM     16  C   UNL     1       6.861   5.552  19.377  0.00  0.00    +0.000 C 
ATOM     17  C   UNL     1       7.060   5.084  17.984  0.00  0.00    +0.000 A 
ATOM     18  N   UNL     1       8.112   4.313  17.696  0.00  0.00    +0.000 NA
ATOM     19  O   UNL     1       8.028   4.059  16.349  0.00  0.00    +0.000 OA
ATOM     20  C   UNL     1       6.927   4.664  15.828  0.00  0.00    +0.000 A 
ATOM     21  C   UNL     1       6.744   4.443  14.379  0.00  0.00    +0.000 C 
ATOM     22  C   UNL     1       6.252   5.342  16.827  0.00  0.00    +0.000 A 
ENDBRANCH  15  22
ENDBRANCH   1  15
TORSDOF 4
ENDMDL
MODEL 8
REMARK VINA RESULT:      -6.4      1.655      1.726
REMARK  Name = 
REMARK  7 active torsions:
REMARK  status: ('A' for Active; 'I' for Inactive)
REMARK    1  A    between atoms: C_1  and  C_2
REMARK    2  A    between atoms: C_5  and  C_6
REMARK    3  A    between atoms: C_7  and  C_8
REMARK    4  A    between atoms: C_8  and  N_9
REMARK    5  A    between atoms: N_9  and  C_10
REMARK    6  A    between atoms: N_13  and  C_14
REMARK    7  A    between atoms: C_17  and  O_18
REMARK                            x       y       z     vdW  Elec       q    Type
REMARK                         _______ _______ _______ _____ _____    ______ ____
ROOT
ATOM      1  N   UNL     1       4.414   4.264  19.075  0.00  0.00    +0.000 N 
ATOM      2  C   UNL     1       4.481   3.007  19.804  0.00  0.00    +0.000 C 
ATOM      3  C   UNL     1       3.380   5.121  19.440  0.00  0.00    +0.000 C 
ATOM      4  O   UNL     1       2.646   4.900  20.398  0.00  0.00    +0.000 OA
ATOM      5  N   UNL     1       3.229   6.214  18.634  0.00  0.00    +0.000 N 
ATOM      6  H   UNL     1       4.066   6.511  18.158  0.00  0.00    +0.000 HD
ENDROOT
BRANCH   5   7
ATOM      7  C   UNL     1       2.250   7.269  18.841  0.00  0.00    +0.000 C 
ATOM      8  C   UNL     1       2.114   7.768  20.284  0.00  0.00    +0.000 C 
ATOM      9  C   UNL     1       0.869   8.654  20.393  0.00  0.00    +0.000 C 
ATOM     10  C   UNL     1       0.888   9.809  19.384  0.00  0.00    +0.000 C 
ATOM     11  C   UNL     1       1.210   9.359  17.956  0.00  0.00    +0.000 C 
ATOM     12  C   UNL     1       2.442   8.460  17.896  0.00  0.00    +0.000 C 
BRANCH  10  13
ATOM     13  O   UNL     1      -0.380  10.459  19.393  0.00  0.00    +0.000 OA
ATOM     14  H   UNL     1      -0.241  11.392  19.644  0.00  0.00    +0.000 HD
ENDBRANCH  10  13
ENDBRANCH   5   7
BRANCH   1  15
ATOM     15  C   UNL     1       5.156   4.337  17.819  0.00  0.00    +0.000 C 
BRANCH  15  22
ATOM     16  C   UNL     1       5.171   6.594  15.540  0.00  0.00    +0.000 C 
ATOM     17  C   UNL     1       6.080   6.490  16.706  0.00  0.00    +0.000 A 
ATOM     18  N   UNL     1       7.031   7.411  16.881  0.00  0.00    +0.000 NA
ATOM     19  O   UNL     1       7.702   7.040  18.020  0.00  0.00    +0.000 OA
ATOM     20  C   UNL     1       7.154   5.908  18.537  0.00  0.00    +0.000 A 
ATOM     21  C   UNL     1       7.805   5.431  19.774  0.00  0.00    +0.000 C 
ATOM     22  C   UNL     1       6.098   5.497  17.743  0.00  0.00    +0.000 A 
ENDBRANCH  15  22
ENDBRANCH   1  15
TORSDOF 4
ENDMDL
MODEL 9
REMARK VINA RESULT:      -6.3      1.566      2.165
REMARK  Name = 
REMARK  7 active torsions:
REMARK  status: ('A' for Active; 'I' for Inactive)
REMARK    1  A    between atoms: C_1  and  C_2
REMARK    2  A    between atoms: C_5  and  C_6
REMARK    3  A    between atoms: C_7  and  C_8
REMARK    4  A    between atoms: C_8  and  N_9
REMARK    5  A    between atoms: N_9  and  C_10
REMARK    6  A    between atoms: N_13  and  C_14
REMARK    7  A    between atoms: C_17  and  O_18
REMARK                            x       y       z     vdW  Elec       q    Type
REMARK                         _______ _______ _______ _____ _____    ______ ____
ROOT
ATOM      1  N   UNL     1       4.012   4.735  19.756  0.00  0.00    +0.000 N 
ATOM      2  C   UNL     1       3.885   3.289  19.846  0.00  0.00    +0.000 C 
ATOM      3  C   UNL     1       2.817   5.447  19.730  0.00  0.00    +0.000 C 
ATOM      4  O   UNL     1       1.725   4.913  19.899  0.00  0.00    +0.000 OA
ATOM      5  N   UNL     1       2.951   6.783  19.474  0.00  0.00    +0.000 N 
ATOM      6  H   UNL     1       3.837   7.181  19.738  0.00  0.00    +0.000 HD
ENDROOT
BRANCH   5   7
ATOM      7  C   UNL     1       1.853   7.736  19.441  0.00  0.00    +0.000 C 
ATOM      8  C   UNL     1       1.489   8.369  20.789  0.00  0.00    +0.000 C 
ATOM      9  C   UNL     1       0.157   9.113  20.650  0.00  0.00    +0.000 C 
ATOM     10  C   UNL     1       0.185  10.148  19.518  0.00  0.00    +0.000 C 
ATOM     11  C   UNL     1       0.726   9.585  18.200  0.00  0.00    +0.000 C 
ATOM     12  C   UNL     1       2.040   8.832  18.387  0.00  0.00    +0.000 C 
BRANCH  10  13
ATOM     13  O   UNL     1      -1.133  10.645  19.307  0.00  0.00    +0.000 OA
ATOM     14  H   UNL     1      -1.482  10.951  20.165  0.00  0.00    +0.000 HD
ENDBRANCH  10  13
ENDBRANCH   5   7
BRANCH   1  15
ATOM     15  C   UNL     1       5.305   5.256  19.322  0.00  0.00    +0.000 C 
BRANCH  15  22
ATOM     16  C   UNL     1       7.453   7.004  17.701  0.00  0.00    +0.000 C 
ATOM     17  C   UNL     1       6.452   6.064  17.140  0.00  0.00    +0.000 A 
ATOM     18  N   UNL     1       6.391   5.883  15.818  0.00  0.00    +0.000 NA
ATOM     19  O   UNL     1       5.377   4.980  15.613  0.00  0.00    +0.000 OA
ATOM     20  C   UNL     1       4.835   4.610  16.804  0.00  0.00    +0.000 A 
ATOM     21  C   UNL     1       3.735   3.631  16.689  0.00  0.00    +0.000 C 
ATOM     22  C   UNL     1       5.482   5.268  17.835  0.00  0.00    +0.000 A 
ENDBRANCH  15  22
ENDBRANCH   1  15
TORSDOF 4
ENDMDL
