MODEL 1
REMARK VINA RESULT:      -6.4      0.000      0.000
REMARK  Name = 
REMARK  3 active torsions:
REMARK  status: ('A' for Active; 'I' for Inactive)
REMARK    1  A    between atoms: N_1  and  C_2
REMARK    2  A    between atoms: C_2  and  C_3
REMARK    3  A    between atoms: C_3  and  O_4
REMARK                            x       y       z     vdW  Elec       q    Type
REMARK                         _______ _______ _______ _____ _____    ______ ____
ROOT
ATOM      1  C   UNL     1       3.644   2.817  19.733  0.00  0.00    +0.000 C 
ATOM      2  C   UNL     1       2.868   2.741  21.063  0.00  0.00    +0.000 C 
ATOM      3  C   UNL     1       1.494   3.384  20.951  0.00  0.00    +0.000 C 
ATOM      4  C   UNL     1       1.640   4.871  20.646  0.00  0.00    +0.000 C 
ATOM      5  C   UNL     1       2.627   5.162  19.542  0.00  0.00    +0.000 A 
ATOM      6  C   UNL     1       2.578   6.418  18.918  0.00  0.00    +0.000 A 
ATOM      7  C   UNL     1       3.475   6.746  17.903  0.00  0.00    +0.000 A 
ATOM      8  C   UNL     1       4.455   5.836  17.522  0.00  0.00    +0.000 A 
ATOM      9  C   UNL     1       4.535   4.594  18.153  0.00  0.00    +0.000 A 
ATOM     10  C   UNL     1       3.620   4.234  19.161  0.00  0.00    +0.000 A 
ENDROOT
BRANCH   1  11
ATOM     11  O   UNL     1       4.996   2.443  20.038  0.00  0.00    +0.000 OA
ATOM     12  H   UNL     1       5.384   2.172  19.184  0.00  0.00    +0.000 HD
ENDBRANCH   1  11
BRANCH   1  13
ATOM     13  C   UNL     1       3.105   1.855  18.621  0.00  0.00    +0.000 C 
BRANCH  13  14
ATOM     14  N   UNL     1       4.022   0.777  18.206  0.00  0.00    +0.000 NA
ATOM     15  H   UNL     1       4.161   0.164  19.006  0.00  0.00    +0.000 HD
ATOM     16  H   UNL     1       4.938   1.179  18.014  0.00  0.00    +0.000 HD
ENDBRANCH  13  14
ENDBRANCH   1  13
TORSDOF 3
ENDMDL
MODEL 2
REMARK VINA RESULT:      -6.2      2.197      3.105
REMARK  Name = 
REMARK  3 active torsions:
REMARK  status: ('A' for Active; 'I' for Inactive)
REMARK    1  A    between atoms: N_1  and  C_2
REMARK    2  A    between atoms: C_2  and  C_3
REMARK    3  A    between atoms: C_3  and  O_4
REMARK                            x       y       z     vdW  Elec       q    Type
REMARK                         _______ _______ _______ _____ _____    ______ ____
ROOT
ATOM      1  C   UNL     1       1.624   3.179  19.756  0.00  0.00    +0.000 C 
ATOM      2  C   UNL     1       1.570   2.143  18.616  0.00  0.00    +0.000 C 
ATOM      3  C   UNL     1       2.849   2.143  17.793  0.00  0.00    +0.000 C 
ATOM      4  C   UNL     1       3.026   3.494  17.110  0.00  0.00    +0.000 C 
ATOM      5  C   UNL     1       2.803   4.667  18.034  0.00  0.00    +0.000 A 
ATOM      6  C   UNL     1       3.292   5.923  17.646  0.00  0.00    +0.000 A 
ATOM      7  C   UNL     1       3.101   7.044  18.452  0.00  0.00    +0.000 A 
ATOM      8  C   UNL     1       2.390   6.929  19.642  0.00  0.00    +0.000 A 
ATOM      9  C   UNL     1       1.872   5.692  20.026  0.00  0.00    +0.000 A 
ATOM     10  C   UNL     1       2.079   4.544  19.238  0.00  0.00    +0.000 A 
ENDROOT
BRANCH   1  11
ATOM     11  O   UNL     1       0.287   3.279  20.267  0.00  0.00    +0.000 OA
ATOM     12  H   UNL     1      -0.166   2.471  19.959  0.00  0.00    +0.000 HD
ENDBRANCH   1  11
BRANCH   1  13
ATOM     13  C   UNL     1       2.576   2.786  20.936  0.00  0.00    +0.000 C 
BRANCH  13  14
ATOM     14  N   UNL     1       1.936   2.651  22.257  0.00  0.00    +0.000 NA
ATOM     15  H   UNL     1       1.113   2.062  22.145  0.00  0.00    +0.000 HD
ATOM     16  H   UNL     1       1.579   3.560  22.546  0.00  0.00    +0.000 HD
ENDBRANCH  13  14
ENDBRANCH   1  13
TORSDOF 3
ENDMDL
MODEL 3
REMARK VINA RESULT:      -6.1      3.378      5.011
REMARK  Name = 
REMARK  3 active torsions:
REMARK  status: ('A' for Active; 'I' for Inactive)
REMARK    1  A    between atoms: N_1  and  C_2
REMARK    2  A    between atoms: C_2  and  C_3
REMARK    3  A    between atoms: C_3  and  O_4
REMARK                            x       y       z     vdW  Elec       q    Type
REMARK                         _______ _______ _______ _____ _____    ______ ____
ROOT
ATOM      1  C   UNL     1       6.148   5.745  16.373  0.00  0.00    +0.000 C 
ATOM      2  C   UNL     1       6.951   6.734  17.240  0.00  0.00    +0.000 C 
ATOM      3  C   UNL     1       7.641   6.033  18.401  0.00  0.00    +0.000 C 
ATOM      4  C   UNL     1       6.599   5.423  19.332  0.00  0.00    +0.000 C 
ATOM      5  C   UNL     1       5.524   4.653  18.605  0.00  0.00    +0.000 A 
ATOM      6  C   UNL     1       4.741   3.748  19.339  0.00  0.00    +0.000 A 
ATOM      7  C   UNL     1       3.724   3.022  18.722  0.00  0.00    +0.000 A 
ATOM      8  C   UNL     1       3.454   3.215  17.372  0.00  0.00    +0.000 A 
ATOM      9  C   UNL     1       4.205   4.132  16.637  0.00  0.00    +0.000 A 
ATOM     10  C   UNL     1       5.254   4.855  17.235  0.00  0.00    +0.000 A 
ENDROOT
BRANCH   1  11
ATOM     11  O   UNL     1       5.335   6.547  15.503  0.00  0.00    +0.000 OA
ATOM     12  H   UNL     1       4.716   7.017  16.094  0.00  0.00    +0.000 HD
ENDBRANCH   1  11
BRANCH   1  13
ATOM     13  C   UNL     1       7.033   4.802  15.489  0.00  0.00    +0.000 C 
BRANCH  13  14
ATOM     14  N   UNL     1       7.705   5.442  14.343  0.00  0.00    +0.000 NA
ATOM     15  H   UNL     1       7.437   6.424  14.336  0.00  0.00    +0.000 HD
ATOM     16  H   UNL     1       7.327   5.054  13.481  0.00  0.00    +0.000 HD
ENDBRANCH  13  14
ENDBRANCH   1  13
TORSDOF 3
ENDMDL
MODEL 4
REMARK VINA RESULT:      -6.1      2.415      3.931
REMARK  Name = 
REMARK  3 active torsions:
REMARK  status: ('A' for Active; 'I' for Inactive)
REMARK    1  A    between atoms: N_1  and  C_2
REMARK    2  A    between atoms: C_2  and  C_3
REMARK    3  A    between atoms: C_3  and  O_4
REMARK                            x       y       z     vdW  Elec       q    Type
REMARK                         _______ _______ _______ _____ _____    ______ ____
ROOT
ATOM      1  C   UNL     1       4.961   4.660  17.146  0.00  0.00    +0.000 C 
ATOM      2  C   UNL     1       4.685   6.116  16.723  0.00  0.00    +0.000 C 
ATOM      3  C   UNL     1       3.854   6.856  17.760  0.00  0.00    +0.000 C 
ATOM      4  C   UNL     1       2.484   6.201  17.892  0.00  0.00    +0.000 C 
ATOM      5  C   UNL     1       2.547   4.698  18.008  0.00  0.00    +0.000 A 
ATOM      6  C   UNL     1       1.423   4.019  18.504  0.00  0.00    +0.000 A 
ATOM      7  C   UNL     1       1.421   2.630  18.618  0.00  0.00    +0.000 A 
ATOM      8  C   UNL     1       2.530   1.899  18.207  0.00  0.00    +0.000 A 
ATOM      9  C   UNL     1       3.643   2.557  17.685  0.00  0.00    +0.000 A 
ATOM     10  C   UNL     1       3.675   3.961  17.588  0.00  0.00    +0.000 A 
ENDROOT
BRANCH   1  11
ATOM     11  O   UNL     1       5.493   4.002  15.988  0.00  0.00    +0.000 OA
ATOM     12  H   UNL     1       5.172   4.524  15.228  0.00  0.00    +0.000 HD
ENDBRANCH   1  11
BRANCH   1  13
ATOM     13  C   UNL     1       5.995   4.517  18.314  0.00  0.00    +0.000 C 
BRANCH  13  14
ATOM     14  N   UNL     1       7.400   4.330  17.907  0.00  0.00    +0.000 NA
ATOM     15  H   UNL     1       7.701   5.180  17.434  0.00  0.00    +0.000 HD
ATOM     16  H   UNL     1       7.443   3.599  17.199  0.00  0.00    +0.000 HD
ENDBRANCH  13  14
ENDBRANCH   1  13
TORSDOF 3
ENDMDL
MODEL 5
REMARK VINA RESULT:      -6.1      1.653      3.636
REMARK  Name = 
REMARK  3 active torsions:
REMARK  status: ('A' for Active; 'I' for Inactive)
REMARK    1  A    between atoms: N_1  and  C_2
REMARK    2  A    between atoms: C_2  and  C_3
REMARK    3  A    between atoms: C_3  and  O_4
REMARK                            x       y       z     vdW  Elec       q    Type
REMARK                         _______ _______ _______ _____ _____    ______ ____
ROOT
ATOM      1  C   UNL     1       4.694   4.385  18.090  0.00  0.00    +0.000 C 
ATOM      2  C   UNL     1       4.269   5.463  17.073  0.00  0.00    +0.000 C 
ATOM      3  C   UNL     1       3.724   6.704  17.763  0.00  0.00    +0.000 C 
ATOM      4  C   UNL     1       2.460   6.353  18.540  0.00  0.00    +0.000 C 
ATOM      5  C   UNL     1       2.599   5.106  19.378  0.00  0.00    +0.000 A 
ATOM      6  C   UNL     1       1.671   4.887  20.408  0.00  0.00    +0.000 A 
ATOM      7  C   UNL     1       1.743   3.745  21.203  0.00  0.00    +0.000 A 
ATOM      8  C   UNL     1       2.724   2.790  20.959  0.00  0.00    +0.000 A 
ATOM      9  C   UNL     1       3.636   2.980  19.921  0.00  0.00    +0.000 A 
ATOM     10  C   UNL     1       3.596   4.140  19.124  0.00  0.00    +0.000 A 
ENDROOT
BRANCH   1  11
ATOM     11  O   UNL     1       4.918   3.188  17.331  0.00  0.00    +0.000 OA
ATOM     12  H   UNL     1       4.290   2.535  17.695  0.00  0.00    +0.000 HD
ENDBRANCH   1  11
BRANCH   1  13
ATOM     13  C   UNL     1       6.007   4.726  18.874  0.00  0.00    +0.000 C 
BRANCH  13  14
ATOM     14  N   UNL     1       7.267   4.347  18.208  0.00  0.00    +0.000 NA
ATOM     15  H   UNL     1       7.545   5.119  17.606  0.00  0.00    +0.000 HD
ATOM     16  H   UNL     1       7.086   3.567  17.578  0.00  0.00    +0.000 HD
ENDBRANCH  13  14
ENDBRANCH   1  13
TORSDOF 3
ENDMDL
MODEL 6
REMARK VINA RESULT:      -6.1      0.955      1.395
REMARK  Name = 
REMARK  3 active torsions:
REMARK  status: ('A' for Active; 'I' for Inactive)
REMARK    1  A    between atoms: N_1  and  C_2
REMARK    2  A    between atoms: C_2  and  C_3
REMARK    3  A    between atoms: C_3  and  O_4
REMARK                            x       y       z     vdW  Elec       q    Type
REMARK                         _______ _______ _______ _____ _____    ______ ____
ROOT
ATOM      1  C   UNL     1       3.988   3.255  19.123  0.00  0.00    +0.000 C 
ATOM      2  C   UNL     1       3.083   3.655  20.304  0.00  0.00    +0.000 C 
ATOM      3  C   UNL     1       1.917   4.521  19.852  0.00  0.00    +0.000 C 
ATOM      4  C   UNL     1       2.438   5.831  19.272  0.00  0.00    +0.000 C 
ATOM      5  C   UNL     1       3.575   5.645  18.297  0.00  0.00    +0.000 A 
ATOM      6  C   UNL     1       3.886   6.701  17.426  0.00  0.00    +0.000 A 
ATOM      7  C   UNL     1       4.935   6.589  16.515  0.00  0.00    +0.000 A 
ATOM      8  C   UNL     1       5.708   5.434  16.486  0.00  0.00    +0.000 A 
ATOM      9  C   UNL     1       5.429   4.388  17.366  0.00  0.00    +0.000 A 
ATOM     10  C   UNL     1       4.356   4.471  18.273  0.00  0.00    +0.000 A 
ENDROOT
BRANCH   1  11
ATOM     11  O   UNL     1       5.176   2.694  19.703  0.00  0.00    +0.000 OA
ATOM     12  H   UNL     1       4.923   2.448  20.613  0.00  0.00    +0.000 HD
ENDBRANCH   1  11
BRANCH   1  13
ATOM     13  C   UNL     1       3.357   2.189  18.164  0.00  0.00    +0.000 C 
BRANCH  13  14
ATOM     14  N   UNL     1       3.937   0.835  18.241  0.00  0.00    +0.000 NA
ATOM     15  H   UNL     1       3.226   0.214  18.624  0.00  0.00    +0.000 HD
ATOM     16  H   UNL     1       4.689   0.836  18.927  0.00  0.00    +0.000 HD
ENDBRANCH  13  14
ENDBRANCH   1  13
TORSDOF 3
ENDMDL
MODEL 7
REMARK VINA RESULT:      -6.0      1.729      2.989
REMARK  Name = 
REMARK  3 active torsions:
REMARK  status: ('A' for Active; 'I' for Inactive)
REMARK    1  A    between atoms: N_1  and  C_2
REMARK    2  A    between atoms: C_2  and  C_3
REMARK    3  A    between atoms: C_3  and  O_4
REMARK                            x       y       z     vdW  Elec       q    Type
REMARK                         _______ _______ _______ _____ _____    ______ ____
ROOT
ATOM      1  C   UNL     1       4.227   3.801  18.483  0.00  0.00    +0.000 C 
ATOM      2  C   UNL     1       3.849   4.922  19.471  0.00  0.00    +0.000 C 
ATOM      3  C   UNL     1       3.077   6.039  18.787  0.00  0.00    +0.000 C 
ATOM      4  C   UNL     1       3.952   6.703  17.730  0.00  0.00    +0.000 C 
ATOM      5  C   UNL     1       4.667   5.717  16.839  0.00  0.00    +0.000 A 
ATOM      6  C   UNL     1       5.188   6.177  15.619  0.00  0.00    +0.000 A 
ATOM      7  C   UNL     1       5.871   5.314  14.765  0.00  0.00    +0.000 A 
ATOM      8  C   UNL     1       6.072   3.988  15.133  0.00  0.00    +0.000 A 
ATOM      9  C   UNL     1       5.585   3.524  16.355  0.00  0.00    +0.000 A 
ATOM     10  C   UNL     1       4.869   4.374  17.219  0.00  0.00    +0.000 A 
ENDROOT
BRANCH   1  11
ATOM     11  O   UNL     1       5.172   2.967  19.168  0.00  0.00    +0.000 OA
ATOM     12  H   UNL     1       4.711   2.117  19.304  0.00  0.00    +0.000 HD
ENDBRANCH   1  11
BRANCH   1  13
ATOM     13  C   UNL     1       3.019   2.911  18.031  0.00  0.00    +0.000 C 
BRANCH  13  14
ATOM     14  N   UNL     1       3.135   1.473  18.335  0.00  0.00    +0.000 NA
ATOM     15  H   UNL     1       3.507   1.384  19.279  0.00  0.00    +0.000 HD
ATOM     16  H   UNL     1       3.841   1.062  17.728  0.00  0.00    +0.000 HD
ENDBRANCH  13  14
ENDBRANCH   1  13
TORSDOF 3
ENDMDL
MODEL 8
REMARK VINA RESULT:      -5.8      2.260      2.919
REMARK  Name = 
REMARK  3 active torsions:
REMARK  status: ('A' for Active; 'I' for Inactive)
REMARK    1  A    between atoms: N_1  and  C_2
REMARK    2  A    between atoms: C_2  and  C_3
REMARK    3  A    between atoms: C_3  and  O_4
REMARK                            x       y       z     vdW  Elec       q    Type
REMARK                         _______ _______ _______ _____ _____    ______ ____
ROOT
ATOM      1  C   UNL     1       2.750   4.154  20.062  0.00  0.00    +0.000 C 
ATOM      2  C   UNL     1       1.333   4.013  19.472  0.00  0.00    +0.000 C 
ATOM      3  C   UNL     1       1.291   2.991  18.347  0.00  0.00    +0.000 C 
ATOM      4  C   UNL     1       2.172   3.454  17.191  0.00  0.00    +0.000 C 
ATOM      5  C   UNL     1       3.533   3.936  17.631  0.00  0.00    +0.000 A 
ATOM      6  C   UNL     1       4.550   4.028  16.669  0.00  0.00    +0.000 A 
ATOM      7  C   UNL     1       5.822   4.481  17.017  0.00  0.00    +0.000 A 
ATOM      8  C   UNL     1       6.083   4.880  18.323  0.00  0.00    +0.000 A 
ATOM      9  C   UNL     1       5.074   4.821  19.284  0.00  0.00    +0.000 A 
ATOM     10  C   UNL     1       3.791   4.340  18.958  0.00  0.00    +0.000 A 
ENDROOT
BRANCH   1  11
ATOM     11  O   UNL     1       2.720   5.320  20.898  0.00  0.00    +0.000 OA
ATOM     12  H   UNL     1       3.009   6.054  20.322  0.00  0.00    +0.000 HD
ENDBRANCH   1  11
BRANCH   1  13
ATOM     13  C   UNL     1       3.206   2.934  20.933  0.00  0.00    +0.000 C 
BRANCH  13  14
ATOM     14  N   UNL     1       2.396   2.668  22.136  0.00  0.00    +0.000 NA
ATOM     15  H   UNL     1       2.823   1.888  22.631  0.00  0.00    +0.000 HD
ATOM     16  H   UNL     1       1.478   2.333  21.848  0.00  0.00    +0.000 HD
ENDBRANCH  13  14
ENDBRANCH   1  13
TORSDOF 3
ENDMDL
MODEL 9
REMARK VINA RESULT:      -5.8      3.107      5.024
REMARK  Name = 
REMARK  3 active torsions:
REMARK  status: ('A' for Active; 'I' for Inactive)
REMARK    1  A    between atoms: N_1  and  C_2
REMARK    2  A    between atoms: C_2  and  C_3
REMARK    3  A    between atoms: C_3  and  O_4
REMARK                            x       y       z     vdW  Elec       q    Type
REMARK                         _______ _______ _______ _____ _____    ______ ____
ROOT
ATOM      1  C   UNL     1       6.879   4.937  17.366  0.00  0.00    +0.000 C 
ATOM      2  C   UNL     1       7.211   4.655  15.887  0.00  0.00    +0.000 C 
ATOM      3  C   UNL     1       6.067   5.051  14.967  0.00  0.00    +0.000 C 
ATOM      4  C   UNL     1       4.835   4.208  15.278  0.00  0.00    +0.000 C 
ATOM      5  C   UNL     1       4.530   4.115  16.753  0.00  0.00    +0.000 A 
ATOM      6  C   UNL     1       3.247   3.701  17.144  0.00  0.00    +0.000 A 
ATOM      7  C   UNL     1       2.915   3.582  18.492  0.00  0.00    +0.000 A 
ATOM      8  C   UNL     1       3.871   3.843  19.468  0.00  0.00    +0.000 A 
ATOM      9  C   UNL     1       5.159   4.227  19.094  0.00  0.00    +0.000 A 
ATOM     10  C   UNL     1       5.505   4.379  17.738  0.00  0.00    +0.000 A 
ENDROOT
BRANCH   1  11
ATOM     11  O   UNL     1       7.893   4.276  18.136  0.00  0.00    +0.000 OA
ATOM     12  H   UNL     1       7.418   3.600  18.656  0.00  0.00    +0.000 HD
ENDBRANCH   1  11
BRANCH   1  13
ATOM     13  C   UNL     1       6.883   6.458  17.745  0.00  0.00    +0.000 C 
BRANCH  13  14
ATOM     14  N   UNL     1       7.767   7.317  16.935  0.00  0.00    +0.000 NA
ATOM     15  H   UNL     1       8.069   8.092  17.522  0.00  0.00    +0.000 HD
ATOM     16  H   UNL     1       7.220   7.742  16.189  0.00  0.00    +0.000 HD
ENDBRANCH  13  14
ENDBRANCH   1  13
TORSDOF 3
ENDMDL
