MODEL 1
REMARK VINA RESULT:      -8.1      0.000      0.000
REMARK  Name = 
REMARK  5 active torsions:
REMARK  status: ('A' for Active; 'I' for Inactive)
REMARK    1  A    between atoms: C_1  and  N_2
REMARK    2  A    between atoms: N_5  and  C_6
REMARK    3  A    between atoms: C_6  and  C_7
REMARK    4  A    between atoms: N_14  and  S_15
REMARK    5  A    between atoms: S_15  and  C_18
REMARK                            x       y       z     vdW  Elec       q    Type
REMARK                         _______ _______ _______ _____ _____    ______ ____
ROOT
ATOM      1  C   UNL     1       1.494   8.202  19.971  0.00  0.00    +0.000 A 
ATOM      2  C   UNL     1       2.224   8.024  18.791  0.00  0.00    +0.000 A 
ATOM      3  C   UNL     1       2.733   6.773  18.418  0.00  0.00    +0.000 A 
ATOM      4  C   UNL     1       2.509   5.680  19.271  0.00  0.00    +0.000 A 
ATOM      5  C   UNL     1       1.810   5.834  20.479  0.00  0.00    +0.000 A 
ATOM      6  C   UNL     1       1.775   4.567  21.127  0.00  0.00    +0.000 A 
ATOM      7  C   UNL     1       2.441   3.669  20.328  0.00  0.00    +0.000 A 
ATOM      8  N   UNL     1       2.847   4.338  19.197  0.00  0.00    +0.000 N 
ATOM      9  C   UNL     1       1.302   7.105  20.826  0.00  0.00    +0.000 A 
ENDROOT
BRANCH   8  10
ATOM     10  S   UNL     1       3.853   3.613  18.023  0.00  0.00    +0.000 S 
ATOM     11  O   UNL     1       4.040   2.250  18.496  0.00  0.00    +0.000 OA
ATOM     12  O   UNL     1       3.245   3.912  16.742  0.00  0.00    +0.000 OA
BRANCH  10  13
ATOM     13  C   UNL     1       5.426   4.430  18.097  0.00  0.00    +0.000 A 
ATOM     14  C   UNL     1       5.887   4.984  19.301  0.00  0.00    +0.000 A 
ATOM     15  C   UNL     1       7.095   5.682  19.338  0.00  0.00    +0.000 A 
ATOM     16  C   UNL     1       7.854   5.827  18.181  0.00  0.00    +0.000 A 
ATOM     17  C   UNL     1       7.417   5.251  16.989  0.00  0.00    +0.000 A 
ATOM     18  C   UNL     1       6.207   4.547  16.940  0.00  0.00    +0.000 A 
ATOM     19 BR   UNL     1       5.745   3.795  15.257  0.00  0.00    +0.000 Br
ENDBRANCH  10  13
ENDBRANCH   8  10
BRANCH   1  20
ATOM     20  C   UNL     1       0.891   9.555  20.303  0.00  0.00    +0.000 C 
BRANCH  20  25
ATOM     21  C   UNL     1      -2.157  13.277  20.503  0.00  0.00    +0.000 C 
ATOM     22  N   UNL     1      -1.131  12.635  19.686  0.00  0.00    +0.000 NA
ATOM     23  C   UNL     1      -1.546  11.278  19.283  0.00  0.00    +0.000 C 
ATOM     24  C   UNL     1      -0.447  10.537  18.485  0.00  0.00    +0.000 C 
ATOM     25  N   UNL     1       0.873  10.478  19.154  0.00  0.00    +0.000 NA
ATOM     26  C   UNL     1       1.242  11.854  19.552  0.00  0.00    +0.000 C 
ATOM     27  C   UNL     1       0.165  12.596  20.381  0.00  0.00    +0.000 C 
ENDBRANCH  20  25
ENDBRANCH   1  20
TORSDOF 4
ENDMDL
MODEL 2
REMARK VINA RESULT:      -8.0      1.378      1.719
REMARK  Name = 
REMARK  5 active torsions:
REMARK  status: ('A' for Active; 'I' for Inactive)
REMARK    1  A    between atoms: C_1  and  N_2
REMARK    2  A    between atoms: N_5  and  C_6
REMARK    3  A    between atoms: C_6  and  C_7
REMARK    4  A    between atoms: N_14  and  S_15
REMARK    5  A    between atoms: S_15  and  C_18
REMARK                            x       y       z     vdW  Elec       q    Type
REMARK                         _______ _______ _______ _____ _____    ______ ____
ROOT
ATOM      1  C   UNL     1       1.389   8.072  20.011  0.00  0.00    +0.000 A 
ATOM      2  C   UNL     1       2.123   7.938  18.827  0.00  0.00    +0.000 A 
ATOM      3  C   UNL     1       2.705   6.720  18.453  0.00  0.00    +0.000 A 
ATOM      4  C   UNL     1       2.552   5.616  19.308  0.00  0.00    +0.000 A 
ATOM      5  C   UNL     1       1.849   5.728  20.518  0.00  0.00    +0.000 A 
ATOM      6  C   UNL     1       1.894   4.462  21.167  0.00  0.00    +0.000 A 
ATOM      7  C   UNL     1       2.610   3.605  20.365  0.00  0.00    +0.000 A 
ATOM      8  N   UNL     1       2.969   4.297  19.233  0.00  0.00    +0.000 N 
ATOM      9  C   UNL     1       1.267   6.966  20.867  0.00  0.00    +0.000 A 
ENDROOT
BRANCH   8  10
ATOM     10  S   UNL     1       4.013   3.633  18.055  0.00  0.00    +0.000 S 
ATOM     11  O   UNL     1       4.340   2.310  18.563  0.00  0.00    +0.000 OA
ATOM     12  O   UNL     1       3.350   3.833  16.782  0.00  0.00    +0.000 OA
BRANCH  10  13
ATOM     13  C   UNL     1       5.502   4.597  18.064  0.00  0.00    +0.000 A 
ATOM     14  C   UNL     1       6.056   5.045  19.273  0.00  0.00    +0.000 A 
ATOM     15  C   UNL     1       7.191   5.858  19.270  0.00  0.00    +0.000 A 
ATOM     16  C   UNL     1       7.785   6.223  18.066  0.00  0.00    +0.000 A 
ATOM     17  C   UNL     1       7.259   5.755  16.863  0.00  0.00    +0.000 A 
ATOM     18  C   UNL     1       6.120   4.938  16.854  0.00  0.00    +0.000 A 
ATOM     19 BR   UNL     1       5.526   4.353  15.146  0.00  0.00    +0.000 Br
ENDBRANCH  10  13
ENDBRANCH   8  10
BRANCH   1  20
ATOM     20  C   UNL     1       0.706   9.386  20.345  0.00  0.00    +0.000 C 
BRANCH  20  25
ATOM     21  C   UNL     1      -2.210  11.894  23.241  0.00  0.00    +0.000 C 
ATOM     22  N   UNL     1      -0.822  11.498  23.021  0.00  0.00    +0.000 NA
ATOM     23  C   UNL     1      -0.317  12.024  21.739  0.00  0.00    +0.000 C 
ATOM     24  C   UNL     1       1.125  11.552  21.435  0.00  0.00    +0.000 C 
ATOM     25  N   UNL     1       1.323  10.085  21.485  0.00  0.00    +0.000 NA
ATOM     26  C   UNL     1       0.791   9.600  22.778  0.00  0.00    +0.000 C 
ATOM     27  C   UNL     1      -0.664  10.036  23.081  0.00  0.00    +0.000 C 
ENDBRANCH  20  25
ENDBRANCH   1  20
TORSDOF 4
ENDMDL
MODEL 3
REMARK VINA RESULT:      -7.8      0.967      1.340
REMARK  Name = 
REMARK  5 active torsions:
REMARK  status: ('A' for Active; 'I' for Inactive)
REMARK    1  A    between atoms: C_1  and  N_2
REMARK    2  A    between atoms: N_5  and  C_6
REMARK    3  A    between atoms: C_6  and  C_7
REMARK    4  A    between atoms: N_14  and  S_15
REMARK    5  A    between atoms: S_15  and  C_18
REMARK                            x       y       z     vdW  Elec       q    Type
REMARK                         _______ _______ _______ _____ _____    ______ ____
ROOT
ATOM      1  C   UNL     1       1.808   8.514  18.965  0.00  0.00    +0.000 A 
ATOM      2  C   UNL     1       2.741   8.087  18.014  0.00  0.00    +0.000 A 
ATOM      3  C   UNL     1       3.303   6.805  18.055  0.00  0.00    +0.000 A 
ATOM      4  C   UNL     1       2.920   5.940  19.095  0.00  0.00    +0.000 A 
ATOM      5  C   UNL     1       2.012   6.353  20.083  0.00  0.00    +0.000 A 
ATOM      6  C   UNL     1       1.852   5.279  21.004  0.00  0.00    +0.000 A 
ATOM      7  C   UNL     1       2.649   4.242  20.580  0.00  0.00    +0.000 A 
ATOM      8  N   UNL     1       3.258   4.635  19.412  0.00  0.00    +0.000 N 
ATOM      9  C   UNL     1       1.456   7.648  20.013  0.00  0.00    +0.000 A 
ENDROOT
BRANCH   8  10
ATOM     10  S   UNL     1       4.459   3.689  18.650  0.00  0.00    +0.000 S 
ATOM     11  O   UNL     1       4.885   2.748  19.675  0.00  0.00    +0.000 OA
ATOM     12  O   UNL     1       3.883   3.257  17.393  0.00  0.00    +0.000 OA
BRANCH  10  13
ATOM     13  C   UNL     1       5.830   4.758  18.296  0.00  0.00    +0.000 A 
ATOM     14  C   UNL     1       6.590   5.314  19.337  0.00  0.00    +0.000 A 
ATOM     15  C   UNL     1       7.625   6.206  19.055  0.00  0.00    +0.000 A 
ATOM     16  C   UNL     1       7.916   6.544  17.737  0.00  0.00    +0.000 A 
ATOM     17  C   UNL     1       7.186   5.971  16.697  0.00  0.00    +0.000 A 
ATOM     18  C   UNL     1       6.144   5.074  16.968  0.00  0.00    +0.000 A 
ATOM     19 BR   UNL     1       5.249   4.351  15.456  0.00  0.00    +0.000 Br
ENDBRANCH  10  13
ENDBRANCH   8  10
BRANCH   1  20
ATOM     20  C   UNL     1       1.160   9.882  18.844  0.00  0.00    +0.000 C 
BRANCH  20  25
ATOM     21  C   UNL     1      -0.536  14.356  19.383  0.00  0.00    +0.000 C 
ATOM     22  N   UNL     1      -0.717  12.968  19.798  0.00  0.00    +0.000 NA
ATOM     23  C   UNL     1       0.472  12.468  20.513  0.00  0.00    +0.000 C 
ATOM     24  C   UNL     1       0.347  10.974  20.894  0.00  0.00    +0.000 C 
ATOM     25  N   UNL     1       0.026  10.069  19.766  0.00  0.00    +0.000 NA
ATOM     26  C   UNL     1      -1.160  10.615  19.071  0.00  0.00    +0.000 C 
ATOM     27  C   UNL     1      -1.036  12.101  18.653  0.00  0.00    +0.000 C 
ENDBRANCH  20  25
ENDBRANCH   1  20
TORSDOF 4
ENDMDL
MODEL 4
REMARK VINA RESULT:      -7.7      4.498      8.826
REMARK  Name = 
REMARK  5 active torsions:
REMARK  status: ('A' for Active; 'I' for Inactive)
REMARK    1  A    between atoms: C_1  and  N_2
REMARK    2  A    between atoms: N_5  and  C_6
REMARK    3  A    between atoms: C_6  and  C_7
REMARK    4  A    between atoms: N_14  and  S_15
REMARK    5  A    between atoms: S_15  and  C_18
REMARK                            x       y       z     vdW  Elec       q    Type
REMARK                         _______ _______ _______ _____ _____    ______ ____
ROOT
ATOM      1  C   UNL     1       2.603   6.986  18.467  0.00  0.00    +0.000 A 
ATOM      2  C   UNL     1       2.281   8.050  17.618  0.00  0.00    +0.000 A 
ATOM      3  C   UNL     1       1.636   9.201  18.088  0.00  0.00    +0.000 A 
ATOM      4  C   UNL     1       1.295   9.267  19.450  0.00  0.00    +0.000 A 
ATOM      5  C   UNL     1       1.575   8.200  20.319  0.00  0.00    +0.000 A 
ATOM      6  C   UNL     1       1.088   8.550  21.610  0.00  0.00    +0.000 A 
ATOM      7  C   UNL     1       0.524   9.801  21.520  0.00  0.00    +0.000 A 
ATOM      8  N   UNL     1       0.687  10.239  20.227  0.00  0.00    +0.000 N 
ATOM      9  C   UNL     1       2.233   7.055  19.819  0.00  0.00    +0.000 A 
ENDROOT
BRANCH   8  10
ATOM     10  S   UNL     1      -0.023  11.686  19.662  0.00  0.00    +0.000 S 
ATOM     11  O   UNL     1      -0.322  12.441  20.869  0.00  0.00    +0.000 OA
ATOM     12  O   UNL     1       0.868  12.188  18.635  0.00  0.00    +0.000 OA
BRANCH  10  13
ATOM     13  C   UNL     1      -1.565  11.256  18.899  0.00  0.00    +0.000 A 
ATOM     14  C   UNL     1      -1.629  10.229  17.944  0.00  0.00    +0.000 A 
ATOM     15  C   UNL     1      -2.832   9.940  17.299  0.00  0.00    +0.000 A 
ATOM     16  C   UNL     1      -3.981  10.663  17.606  0.00  0.00    +0.000 A 
ATOM     17  C   UNL     1      -3.932  11.662  18.577  0.00  0.00    +0.000 A 
ATOM     18  C   UNL     1      -2.729  11.961  19.231  0.00  0.00    +0.000 A 
ATOM     19 BR   UNL     1      -2.813  13.328  20.548  0.00  0.00    +0.000 Br
ENDBRANCH  10  13
ENDBRANCH   8  10
BRANCH   1  20
ATOM     20  C   UNL     1       3.373   5.790  17.937  0.00  0.00    +0.000 C 
BRANCH  20  25
ATOM     21  C   UNL     1       6.078   4.165  14.301  0.00  0.00    +0.000 C 
ATOM     22  N   UNL     1       6.125   4.824  15.602  0.00  0.00    +0.000 NA
ATOM     23  C   UNL     1       5.592   3.947  16.661  0.00  0.00    +0.000 C 
ATOM     24  C   UNL     1       5.550   4.646  18.041  0.00  0.00    +0.000 C 
ATOM     25  N   UNL     1       4.834   5.942  18.060  0.00  0.00    +0.000 NA
ATOM     26  C   UNL     1       5.389   6.782  16.976  0.00  0.00    +0.000 C 
ATOM     27  C   UNL     1       5.407   6.108  15.582  0.00  0.00    +0.000 C 
ENDBRANCH  20  25
ENDBRANCH   1  20
TORSDOF 4
ENDMDL
MODEL 5
REMARK VINA RESULT:      -7.7      1.686      2.374
REMARK  Name = 
REMARK  5 active torsions:
REMARK  status: ('A' for Active; 'I' for Inactive)
REMARK    1  A    between atoms: C_1  and  N_2
REMARK    2  A    between atoms: N_5  and  C_6
REMARK    3  A    between atoms: C_6  and  C_7
REMARK    4  A    between atoms: N_14  and  S_15
REMARK    5  A    between atoms: S_15  and  C_18
REMARK                            x       y       z     vdW  Elec       q    Type
REMARK                         _______ _______ _______ _____ _____    ______ ____
ROOT
ATOM      1  C   UNL     1       1.849   8.515  18.512  0.00  0.00    +0.000 A 
ATOM      2  C   UNL     1       3.066   8.285  17.861  0.00  0.00    +0.000 A 
ATOM      3  C   UNL     1       3.839   7.145  18.119  0.00  0.00    +0.000 A 
ATOM      4  C   UNL     1       3.372   6.224  19.072  0.00  0.00    +0.000 A 
ATOM      5  C   UNL     1       2.171   6.444  19.765  0.00  0.00    +0.000 A 
ATOM      6  C   UNL     1       1.988   5.363  20.673  0.00  0.00    +0.000 A 
ATOM      7  C   UNL     1       3.056   4.510  20.530  0.00  0.00    +0.000 A 
ATOM      8  N   UNL     1       3.864   5.016  19.539  0.00  0.00    +0.000 N 
ATOM      9  C   UNL     1       1.409   7.598  19.480  0.00  0.00    +0.000 A 
ENDROOT
BRANCH   8  10
ATOM     10  S   UNL     1       5.386   4.335  19.170  0.00  0.00    +0.000 S 
ATOM     11  O   UNL     1       6.346   5.220  19.811  0.00  0.00    +0.000 OA
ATOM     12  O   UNL     1       5.282   2.929  19.508  0.00  0.00    +0.000 OA
BRANCH  10  13
ATOM     13  C   UNL     1       5.616   4.470  17.417  0.00  0.00    +0.000 A 
ATOM     14  C   UNL     1       6.768   5.075  16.891  0.00  0.00    +0.000 A 
ATOM     15  C   UNL     1       6.912   5.237  15.513  0.00  0.00    +0.000 A 
ATOM     16  C   UNL     1       5.917   4.792  14.648  0.00  0.00    +0.000 A 
ATOM     17  C   UNL     1       4.784   4.161  15.162  0.00  0.00    +0.000 A 
ATOM     18  C   UNL     1       4.629   3.992  16.544  0.00  0.00    +0.000 A 
ATOM     19 BR   UNL     1       3.050   3.095  17.103  0.00  0.00    +0.000 Br
ENDBRANCH  10  13
ENDBRANCH   8  10
BRANCH   1  20
ATOM     20  C   UNL     1       1.001   9.720  18.149  0.00  0.00    +0.000 C 
BRANCH  20  25
ATOM     21  C   UNL     1      -0.089  14.379  18.690  0.00  0.00    +0.000 C 
ATOM     22  N   UNL     1      -0.378  13.035  19.182  0.00  0.00    +0.000 NA
ATOM     23  C   UNL     1       0.824  12.417  19.775  0.00  0.00    +0.000 C 
ATOM     24  C   UNL     1       0.573  10.960  20.231  0.00  0.00    +0.000 C 
ATOM     25  N   UNL     1       0.016  10.069  19.188  0.00  0.00    +0.000 NA
ATOM     26  C   UNL     1      -1.175  10.732  18.614  0.00  0.00    +0.000 C 
ATOM     27  C   UNL     1      -0.931  12.180  18.120  0.00  0.00    +0.000 C 
ENDBRANCH  20  25
ENDBRANCH   1  20
TORSDOF 4
ENDMDL
MODEL 6
REMARK VINA RESULT:      -7.6      4.616      8.909
REMARK  Name = 
REMARK  5 active torsions:
REMARK  status: ('A' for Active; 'I' for Inactive)
REMARK    1  A    between atoms: C_1  and  N_2
REMARK    2  A    between atoms: N_5  and  C_6
REMARK    3  A    between atoms: C_6  and  C_7
REMARK    4  A    between atoms: N_14  and  S_15
REMARK    5  A    between atoms: S_15  and  C_18
REMARK                            x       y       z     vdW  Elec       q    Type
REMARK                         _______ _______ _______ _____ _____    ______ ____
ROOT
ATOM      1  C   UNL     1       2.621   7.646  18.337  0.00  0.00    +0.000 A 
ATOM      2  C   UNL     1       2.203   8.805  17.675  0.00  0.00    +0.000 A 
ATOM      3  C   UNL     1       1.380   9.754  18.295  0.00  0.00    +0.000 A 
ATOM      4  C   UNL     1       0.958   9.512  19.614  0.00  0.00    +0.000 A 
ATOM      5  C   UNL     1       1.334   8.342  20.292  0.00  0.00    +0.000 A 
ATOM      6  C   UNL     1       0.731   8.373  21.581  0.00  0.00    +0.000 A 
ATOM      7  C   UNL     1       0.006   9.537  21.677  0.00  0.00    +0.000 A 
ATOM      8  N   UNL     1       0.179  10.233  20.504  0.00  0.00    +0.000 N 
ATOM      9  C   UNL     1       2.170   7.406  19.645  0.00  0.00    +0.000 A 
ENDROOT
BRANCH   8  10
ATOM     10  S   UNL     1      -0.691  11.662  20.158  0.00  0.00    +0.000 S 
ATOM     11  O   UNL     1      -1.286  12.042  21.430  0.00  0.00    +0.000 OA
ATOM     12  O   UNL     1       0.231  12.523  19.446  0.00  0.00    +0.000 OA
BRANCH  10  13
ATOM     13  C   UNL     1      -2.010  11.224  19.055  0.00  0.00    +0.000 A 
ATOM     14  C   UNL     1      -1.828  10.229  18.083  0.00  0.00    +0.000 A 
ATOM     15  C   UNL     1      -2.847   9.935  17.176  0.00  0.00    +0.000 A 
ATOM     16  C   UNL     1      -4.054  10.623  17.235  0.00  0.00    +0.000 A 
ATOM     17  C   UNL     1      -4.254  11.591  18.219  0.00  0.00    +0.000 A 
ATOM     18  C   UNL     1      -3.238  11.894  19.135  0.00  0.00    +0.000 A 
ATOM     19 BR   UNL     1      -3.654  13.215  20.436  0.00  0.00    +0.000 Br
ENDBRANCH  10  13
ENDBRANCH   8  10
BRANCH   1  20
ATOM     20  C   UNL     1       3.577   6.679  17.661  0.00  0.00    +0.000 C 
BRANCH  20  25
ATOM     21  C   UNL     1       7.836   4.436  17.727  0.00  0.00    +0.000 C 
ATOM     22  N   UNL     1       6.444   4.335  18.154  0.00  0.00    +0.000 NA
ATOM     23  C   UNL     1       5.534   4.298  16.994  0.00  0.00    +0.000 C 
ATOM     24  C   UNL     1       4.045   4.276  17.412  0.00  0.00    +0.000 C 
ATOM     25  N   UNL     1       3.640   5.367  18.329  0.00  0.00    +0.000 NA
ATOM     26  C   UNL     1       4.585   5.377  19.467  0.00  0.00    +0.000 C 
ATOM     27  C   UNL     1       6.080   5.433  19.064  0.00  0.00    +0.000 C 
ENDBRANCH  20  25
ENDBRANCH   1  20
TORSDOF 4
ENDMDL
MODEL 7
REMARK VINA RESULT:      -7.5      1.658      2.217
REMARK  Name = 
REMARK  5 active torsions:
REMARK  status: ('A' for Active; 'I' for Inactive)
REMARK    1  A    between atoms: C_1  and  N_2
REMARK    2  A    between atoms: N_5  and  C_6
REMARK    3  A    between atoms: C_6  and  C_7
REMARK    4  A    between atoms: N_14  and  S_15
REMARK    5  A    between atoms: S_15  and  C_18
REMARK                            x       y       z     vdW  Elec       q    Type
REMARK                         _______ _______ _______ _____ _____    ______ ____
ROOT
ATOM      1  C   UNL     1       1.936   8.592  18.481  0.00  0.00    +0.000 A 
ATOM      2  C   UNL     1       3.147   8.319  17.835  0.00  0.00    +0.000 A 
ATOM      3  C   UNL     1       3.881   7.156  18.101  0.00  0.00    +0.000 A 
ATOM      4  C   UNL     1       3.381   6.255  19.057  0.00  0.00    +0.000 A 
ATOM      5  C   UNL     1       2.186   6.518  19.746  0.00  0.00    +0.000 A 
ATOM      6  C   UNL     1       1.964   5.448  20.658  0.00  0.00    +0.000 A 
ATOM      7  C   UNL     1       3.004   4.559  20.523  0.00  0.00    +0.000 A 
ATOM      8  N   UNL     1       3.832   5.034  19.532  0.00  0.00    +0.000 N 
ATOM      9  C   UNL     1       1.463   7.695  19.452  0.00  0.00    +0.000 A 
ENDROOT
BRANCH   8  10
ATOM     10  S   UNL     1       5.331   4.301  19.172  0.00  0.00    +0.000 S 
ATOM     11  O   UNL     1       6.318   5.156  19.813  0.00  0.00    +0.000 OA
ATOM     12  O   UNL     1       5.179   2.901  19.515  0.00  0.00    +0.000 OA
BRANCH  10  13
ATOM     13  C   UNL     1       5.572   4.421  17.419  0.00  0.00    +0.000 A 
ATOM     14  C   UNL     1       6.748   4.981  16.895  0.00  0.00    +0.000 A 
ATOM     15  C   UNL     1       6.903   5.133  15.517  0.00  0.00    +0.000 A 
ATOM     16  C   UNL     1       5.894   4.722  14.651  0.00  0.00    +0.000 A 
ATOM     17  C   UNL     1       4.737   4.136  15.162  0.00  0.00    +0.000 A 
ATOM     18  C   UNL     1       4.571   3.978  16.545  0.00  0.00    +0.000 A 
ATOM     19 BR   UNL     1       2.957   3.142  17.101  0.00  0.00    +0.000 Br
ENDBRANCH  10  13
ENDBRANCH   8  10
BRANCH   1  20
ATOM     20  C   UNL     1       1.129   9.823  18.109  0.00  0.00    +0.000 C 
BRANCH  20  25
ATOM     21  C   UNL     1      -2.651  12.329  19.725  0.00  0.00    +0.000 C 
ATOM     22  N   UNL     1      -1.195  12.237  19.761  0.00  0.00    +0.000 NA
ATOM     23  C   UNL     1      -0.617  12.431  18.418  0.00  0.00    +0.000 C 
ATOM     24  C   UNL     1       0.921  12.257  18.406  0.00  0.00    +0.000 C 
ATOM     25  N   UNL     1       1.406  10.980  18.979  0.00  0.00    +0.000 NA
ATOM     26  C   UNL     1       0.792  10.820  20.315  0.00  0.00    +0.000 C 
ATOM     27  C   UNL     1      -0.750  10.958  20.337  0.00  0.00    +0.000 C 
ENDBRANCH  20  25
ENDBRANCH   1  20
TORSDOF 4
ENDMDL
MODEL 8
REMARK VINA RESULT:      -7.5      4.639      9.088
REMARK  Name = 
REMARK  5 active torsions:
REMARK  status: ('A' for Active; 'I' for Inactive)
REMARK    1  A    between atoms: C_1  and  N_2
REMARK    2  A    between atoms: N_5  and  C_6
REMARK    3  A    between atoms: C_6  and  C_7
REMARK    4  A    between atoms: N_14  and  S_15
REMARK    5  A    between atoms: S_15  and  C_18
REMARK                            x       y       z     vdW  Elec       q    Type
REMARK                         _______ _______ _______ _____ _____    ______ ____
ROOT
ATOM      1  C   UNL     1       2.193   7.690  18.832  0.00  0.00    +0.000 A 
ATOM      2  C   UNL     1       1.906   8.653  17.859  0.00  0.00    +0.000 A 
ATOM      3  C   UNL     1       1.244   9.847  18.174  0.00  0.00    +0.000 A 
ATOM      4  C   UNL     1       0.851  10.061  19.506  0.00  0.00    +0.000 A 
ATOM      5  C   UNL     1       1.095   9.098  20.498  0.00  0.00    +0.000 A 
ATOM      6  C   UNL     1       0.558   9.587  21.722  0.00  0.00    +0.000 A 
ATOM      7  C   UNL     1      -0.000  10.819  21.473  0.00  0.00    +0.000 A 
ATOM      8  N   UNL     1       0.214  11.112  20.146  0.00  0.00    +0.000 N 
ATOM      9  C   UNL     1       1.771   7.907  20.154  0.00  0.00    +0.000 A 
ENDROOT
BRANCH   8  10
ATOM     10  S   UNL     1      -0.472  12.485  19.397  0.00  0.00    +0.000 S 
ATOM     11  O   UNL     1      -0.804  13.373  20.500  0.00  0.00    +0.000 OA
ATOM     12  O   UNL     1       0.453  12.865  18.348  0.00  0.00    +0.000 OA
BRANCH  10  13
ATOM     13  C   UNL     1      -1.992  11.972  18.641  0.00  0.00    +0.000 A 
ATOM     14  C   UNL     1      -2.001  11.441  17.342  0.00  0.00    +0.000 A 
ATOM     15  C   UNL     1      -3.207  11.101  16.728  0.00  0.00    +0.000 A 
ATOM     16  C   UNL     1      -4.410  11.278  17.404  0.00  0.00    +0.000 A 
ATOM     17  C   UNL     1      -4.406  11.774  18.707  0.00  0.00    +0.000 A 
ATOM     18  C   UNL     1      -3.201  12.119  19.334  0.00  0.00    +0.000 A 
ATOM     19 BR   UNL     1      -3.341  12.760  21.118  0.00  0.00    +0.000 Br
ENDBRANCH  10  13
ENDBRANCH   8  10
BRANCH   1  20
ATOM     20  C   UNL     1       2.982   6.444  18.469  0.00  0.00    +0.000 C 
BRANCH  20  25
ATOM     21  C   UNL     1       3.541   1.673  18.157  0.00  0.00    +0.000 C 
ATOM     22  N   UNL     1       3.731   2.827  19.030  0.00  0.00    +0.000 NA
ATOM     23  C   UNL     1       2.441   3.466  19.353  0.00  0.00    +0.000 C 
ATOM     24  C   UNL     1       2.613   4.743  20.209  0.00  0.00    +0.000 C 
ATOM     25  N   UNL     1       3.540   5.750  19.643  0.00  0.00    +0.000 NA
ATOM     26  C   UNL     1       4.811   5.066  19.321  0.00  0.00    +0.000 C 
ATOM     27  C   UNL     1       4.658   3.804  18.436  0.00  0.00    +0.000 C 
ENDBRANCH  20  25
ENDBRANCH   1  20
TORSDOF 4
ENDMDL
MODEL 9
REMARK VINA RESULT:      -7.5      4.762      9.026
REMARK  Name = 
REMARK  5 active torsions:
REMARK  status: ('A' for Active; 'I' for Inactive)
REMARK    1  A    between atoms: C_1  and  N_2
REMARK    2  A    between atoms: N_5  and  C_6
REMARK    3  A    between atoms: C_6  and  C_7
REMARK    4  A    between atoms: N_14  and  S_15
REMARK    5  A    between atoms: S_15  and  C_18
REMARK                            x       y       z     vdW  Elec       q    Type
REMARK                         _______ _______ _______ _____ _____    ______ ____
ROOT
ATOM      1  C   UNL     1       2.230   7.594  19.023  0.00  0.00    +0.000 A 
ATOM      2  C   UNL     1       1.960   8.530  18.019  0.00  0.00    +0.000 A 
ATOM      3  C   UNL     1       1.225   9.695  18.273  0.00  0.00    +0.000 A 
ATOM      4  C   UNL     1       0.740   9.908  19.574  0.00  0.00    +0.000 A 
ATOM      5  C   UNL     1       0.966   8.971  20.595  0.00  0.00    +0.000 A 
ATOM      6  C   UNL     1       0.332   9.450  21.775  0.00  0.00    +0.000 A 
ATOM      7  C   UNL     1      -0.267  10.650  21.472  0.00  0.00    +0.000 A 
ATOM      8  N   UNL     1       0.015  10.936  20.157  0.00  0.00    +0.000 N 
ATOM      9  C   UNL     1       1.717   7.809  20.312  0.00  0.00    +0.000 A 
ENDROOT
BRANCH   8  10
ATOM     10  S   UNL     1      -0.685  12.264  19.344  0.00  0.00    +0.000 S 
ATOM     11  O   UNL     1      -1.165  13.130  20.410  0.00  0.00    +0.000 OA
ATOM     12  O   UNL     1       0.302  12.701  18.377  0.00  0.00    +0.000 OA
BRANCH  10  13
ATOM     13  C   UNL     1      -2.100  11.660  18.462  0.00  0.00    +0.000 A 
ATOM     14  C   UNL     1      -1.942  10.909  17.287  0.00  0.00    +0.000 A 
ATOM     15  C   UNL     1      -3.059  10.492  16.561  0.00  0.00    +0.000 A 
ATOM     16  C   UNL     1      -4.339  10.811  17.004  0.00  0.00    +0.000 A 
ATOM     17  C   UNL     1      -4.504  11.528  18.189  0.00  0.00    +0.000 A 
ATOM     18  C   UNL     1      -3.389  11.952  18.925  0.00  0.00    +0.000 A 
ATOM     19 BR   UNL     1      -3.761  12.899  20.531  0.00  0.00    +0.000 Br
ENDBRANCH  10  13
ENDBRANCH   8  10
BRANCH   1  20
ATOM     20  C   UNL     1       3.097   6.383  18.729  0.00  0.00    +0.000 C 
BRANCH  20  25
ATOM     21  C   UNL     1       4.543   2.027  20.182  0.00  0.00    +0.000 C 
ATOM     22  N   UNL     1       3.541   2.733  19.390  0.00  0.00    +0.000 NA
ATOM     23  C   UNL     1       4.165   3.452  18.264  0.00  0.00    +0.000 C 
ATOM     24  C   UNL     1       3.140   4.280  17.452  0.00  0.00    +0.000 C 
ATOM     25  N   UNL     1       2.325   5.221  18.255  0.00  0.00    +0.000 NA
ATOM     26  C   UNL     1       1.732   4.463  19.378  0.00  0.00    +0.000 C 
ATOM     27  C   UNL     1       2.751   3.656  20.221  0.00  0.00    +0.000 C 
ENDBRANCH  20  25
ENDBRANCH   1  20
TORSDOF 4
ENDMDL
