MODEL 1
REMARK VINA RESULT:      -8.8      0.000      0.000
REMARK  Name = 
REMARK  5 active torsions:
REMARK  status: ('A' for Active; 'I' for Inactive)
REMARK    1  A    between atoms: C_1  and  C_2
REMARK    2  A    between atoms: C_4  and  C_5
REMARK    3  A    between atoms: C_5  and  N_6
REMARK    4  A    between atoms: C_10  and  C_11
REMARK    5  A    between atoms: C_23  and  N_24
REMARK                            x       y       z     vdW  Elec       q    Type
REMARK                         _______ _______ _______ _____ _____    ______ ____
ROOT
ATOM      1  N   UNL     1       3.833   4.246  18.358  0.00  0.00    +0.000 N 
ATOM      2  N   UNL     1       3.294   3.983  17.169  0.00  0.00    +0.000 NA
ATOM      3  N   UNL     1       4.212   4.088  16.202  0.00  0.00    +0.000 NA
ATOM      4  C   UNL     1       5.359   4.434  16.816  0.00  0.00    +0.000 A 
ATOM      5  C   UNL     1       6.628   4.711  16.312  0.00  0.00    +0.000 A 
ATOM      6  N   UNL     1       7.596   5.043  17.218  0.00  0.00    +0.000 NA
ATOM      7  C   UNL     1       7.336   5.119  18.565  0.00  0.00    +0.000 A 
ATOM      8  N   UNL     1       8.370   5.461  19.462  0.00  0.00    +0.000 N 
ATOM      9  N   UNL     1       6.076   4.869  19.040  0.00  0.00    +0.000 NA
ATOM     10  C   UNL     1       5.127   4.523  18.140  0.00  0.00    +0.000 A 
ATOM     11  H   UNL     1       9.321   5.649  19.112  0.00  0.00    +0.000 HD
ATOM     12  H   UNL     1       8.184   5.519  20.474  0.00  0.00    +0.000 HD
ENDROOT
BRANCH   5  13
ATOM     13  C   UNL     1       6.941   4.699  14.872  0.00  0.00    +0.000 A 
ATOM     14  C   UNL     1       6.335   3.890  13.932  0.00  0.00    +0.000 A 
ATOM     15  C   UNL     1       6.946   4.182  12.735  0.00  0.00    +0.000 A 
ATOM     16  C   UNL     1       7.890   5.148  13.014  0.00  0.00    +0.000 A 
ATOM     17  O   UNL     1       7.863   5.439  14.297  0.00  0.00    +0.000 OA
ENDBRANCH   5  13
BRANCH   1  18
ATOM     18  C   UNL     1       3.094   4.364  19.614  0.00  0.00    +0.000 C 
BRANCH  18  22
ATOM     19  C   UNL     1       2.281   8.993  17.778  0.00  0.00    +0.000 C 
ATOM     20  C   UNL     1       2.086   8.010  18.909  0.00  0.00    +0.000 A 
ATOM     21  C   UNL     1       2.635   6.732  18.768  0.00  0.00    +0.000 A 
ATOM     22  C   UNL     1       2.497   5.754  19.772  0.00  0.00    +0.000 A 
ATOM     23  C   UNL     1       1.779   6.072  20.929  0.00  0.00    +0.000 A 
ATOM     24  C   UNL     1       1.227   7.348  21.089  0.00  0.00    +0.000 A 
ATOM     25  C   UNL     1       1.380   8.328  20.094  0.00  0.00    +0.000 A 
BRANCH  25  26
ATOM     26  N   UNL     1       0.834   9.621  20.314  0.00  0.00    +0.000 N 
ATOM     27  H   UNL     1       0.287   9.820  21.165  0.00  0.00    +0.000 HD
ATOM     28  H   UNL     1       0.999  10.395  19.656  0.00  0.00    +0.000 HD
ENDBRANCH  25  26
ENDBRANCH  18  22
ENDBRANCH   1  18
TORSDOF 4
ENDMDL
MODEL 2
REMARK VINA RESULT:      -8.7      0.874      1.625
REMARK  Name = 
REMARK  5 active torsions:
REMARK  status: ('A' for Active; 'I' for Inactive)
REMARK    1  A    between atoms: C_1  and  C_2
REMARK    2  A    between atoms: C_4  and  C_5
REMARK    3  A    between atoms: C_5  and  N_6
REMARK    4  A    between atoms: C_10  and  C_11
REMARK    5  A    between atoms: C_23  and  N_24
REMARK                            x       y       z     vdW  Elec       q    Type
REMARK                         _______ _______ _______ _____ _____    ______ ____
ROOT
ATOM      1  N   UNL     1       3.546   5.037  18.803  0.00  0.00    +0.000 N 
ATOM      2  N   UNL     1       2.977   4.753  17.633  0.00  0.00    +0.000 NA
ATOM      3  N   UNL     1       3.901   4.640  16.673  0.00  0.00    +0.000 NA
ATOM      4  C   UNL     1       5.086   4.866  17.273  0.00  0.00    +0.000 A 
ATOM      5  C   UNL     1       6.383   4.912  16.765  0.00  0.00    +0.000 A 
ATOM      6  N   UNL     1       7.388   5.176  17.653  0.00  0.00    +0.000 NA
ATOM      7  C   UNL     1       7.139   5.404  18.986  0.00  0.00    +0.000 A 
ATOM      8  N   UNL     1       8.210   5.669  19.865  0.00  0.00    +0.000 N 
ATOM      9  N   UNL     1       5.855   5.383  19.461  0.00  0.00    +0.000 NA
ATOM     10  C   UNL     1       4.867   5.102  18.581  0.00  0.00    +0.000 A 
ATOM     11  H   UNL     1       9.179   5.685  19.513  0.00  0.00    +0.000 HD
ATOM     12  H   UNL     1       8.033   5.840  20.865  0.00  0.00    +0.000 HD
ENDROOT
BRANCH   5  13
ATOM     13  C   UNL     1       6.693   4.730  15.336  0.00  0.00    +0.000 A 
ATOM     14  C   UNL     1       6.091   3.811  14.501  0.00  0.00    +0.000 A 
ATOM     15  C   UNL     1       6.697   3.963  13.276  0.00  0.00    +0.000 A 
ATOM     16  C   UNL     1       7.636   4.961  13.435  0.00  0.00    +0.000 A 
ATOM     17  O   UNL     1       7.610   5.402  14.674  0.00  0.00    +0.000 OA
ENDBRANCH   5  13
BRANCH   1  18
ATOM     18  C   UNL     1       2.830   5.368  20.033  0.00  0.00    +0.000 C 
BRANCH  18  22
ATOM     19  C   UNL     1       0.105   9.055  22.139  0.00  0.00    +0.000 C 
ATOM     20  C   UNL     1       0.887   8.562  20.944  0.00  0.00    +0.000 A 
ATOM     21  C   UNL     1       1.459   7.288  21.016  0.00  0.00    +0.000 A 
ATOM     22  C   UNL     1       2.207   6.753  19.950  0.00  0.00    +0.000 A 
ATOM     23  C   UNL     1       2.390   7.527  18.799  0.00  0.00    +0.000 A 
ATOM     24  C   UNL     1       1.820   8.801  18.708  0.00  0.00    +0.000 A 
ATOM     25  C   UNL     1       1.059   9.327  19.766  0.00  0.00    +0.000 A 
BRANCH  25  26
ATOM     26  N   UNL     1       0.469  10.611  19.616  0.00  0.00    +0.000 N 
ATOM     27  H   UNL     1       0.368  11.033  18.681  0.00  0.00    +0.000 HD
ATOM     28  H   UNL     1       0.096  11.130  20.422  0.00  0.00    +0.000 HD
ENDBRANCH  25  26
ENDBRANCH  18  22
ENDBRANCH   1  18
TORSDOF 4
ENDMDL
MODEL 3
REMARK VINA RESULT:      -8.2      1.242      1.878
REMARK  Name = 
REMARK  5 active torsions:
REMARK  status: ('A' for Active; 'I' for Inactive)
REMARK    1  A    between atoms: C_1  and  C_2
REMARK    2  A    between atoms: C_4  and  C_5
REMARK    3  A    between atoms: C_5  and  N_6
REMARK    4  A    between atoms: C_10  and  C_11
REMARK    5  A    between atoms: C_23  and  N_24
REMARK                            x       y       z     vdW  Elec       q    Type
REMARK                         _______ _______ _______ _____ _____    ______ ____
ROOT
ATOM      1  N   UNL     1       4.040   4.931  18.286  0.00  0.00    +0.000 N 
ATOM      2  N   UNL     1       3.508   4.102  17.390  0.00  0.00    +0.000 NA
ATOM      3  N   UNL     1       4.281   4.026  16.301  0.00  0.00    +0.000 NA
ATOM      4  C   UNL     1       5.327   4.842  16.531  0.00  0.00    +0.000 A 
ATOM      5  C   UNL     1       6.422   5.184  15.741  0.00  0.00    +0.000 A 
ATOM      6  N   UNL     1       7.323   6.062  16.276  0.00  0.00    +0.000 NA
ATOM      7  C   UNL     1       7.157   6.601  17.529  0.00  0.00    +0.000 A 
ATOM      8  N   UNL     1       8.117   7.499  18.039  0.00  0.00    +0.000 N 
ATOM      9  N   UNL     1       6.060   6.275  18.280  0.00  0.00    +0.000 NA
ATOM     10  C   UNL     1       5.182   5.391  17.753  0.00  0.00    +0.000 A 
ATOM     11  H   UNL     1       8.946   7.748  17.479  0.00  0.00    +0.000 HD
ATOM     12  H   UNL     1       8.001   7.908  18.979  0.00  0.00    +0.000 HD
ENDROOT
BRANCH   5  13
ATOM     13  C   UNL     1       6.614   4.677  14.371  0.00  0.00    +0.000 A 
ATOM     14  C   UNL     1       7.526   5.171  13.459  0.00  0.00    +0.000 A 
ATOM     15  C   UNL     1       7.346   4.434  12.312  0.00  0.00    +0.000 A 
ATOM     16  C   UNL     1       6.334   3.539  12.587  0.00  0.00    +0.000 A 
ATOM     17  O   UNL     1       5.918   3.705  13.824  0.00  0.00    +0.000 OA
ENDBRANCH   5  13
BRANCH   1  18
ATOM     18  C   UNL     1       3.397   5.361  19.526  0.00  0.00    +0.000 C 
BRANCH  18  22
ATOM     19  C   UNL     1       0.662   9.142  21.445  0.00  0.00    +0.000 C 
ATOM     20  C   UNL     1       1.339   8.533  20.239  0.00  0.00    +0.000 A 
ATOM     21  C   UNL     1       2.008   7.317  20.408  0.00  0.00    +0.000 A 
ATOM     22  C   UNL     1       2.668   6.683  19.338  0.00  0.00    +0.000 A 
ATOM     23  C   UNL     1       2.662   7.298  18.082  0.00  0.00    +0.000 A 
ATOM     24  C   UNL     1       1.993   8.512  17.894  0.00  0.00    +0.000 A 
ATOM     25  C   UNL     1       1.320   9.136  18.958  0.00  0.00    +0.000 A 
BRANCH  25  26
ATOM     26  N   UNL     1       0.624  10.350  18.714  0.00  0.00    +0.000 N 
ATOM     27  H   UNL     1       0.796  11.178  19.304  0.00  0.00    +0.000 HD
ATOM     28  H   UNL     1      -0.034  10.445  17.930  0.00  0.00    +0.000 HD
ENDBRANCH  25  26
ENDBRANCH  18  22
ENDBRANCH   1  18
TORSDOF 4
ENDMDL
MODEL 4
REMARK VINA RESULT:      -8.1      0.926      1.107
REMARK  Name = 
REMARK  5 active torsions:
REMARK  status: ('A' for Active; 'I' for Inactive)
REMARK    1  A    between atoms: C_1  and  C_2
REMARK    2  A    between atoms: C_4  and  C_5
REMARK    3  A    between atoms: C_5  and  N_6
REMARK    4  A    between atoms: C_10  and  C_11
REMARK    5  A    between atoms: C_23  and  N_24
REMARK                            x       y       z     vdW  Elec       q    Type
REMARK                         _______ _______ _______ _____ _____    ______ ____
ROOT
ATOM      1  N   UNL     1       3.432   4.803  18.960  0.00  0.00    +0.000 N 
ATOM      2  N   UNL     1       2.832   4.452  17.825  0.00  0.00    +0.000 NA
ATOM      3  N   UNL     1       3.723   4.342  16.834  0.00  0.00    +0.000 NA
ATOM      4  C   UNL     1       4.919   4.639  17.377  0.00  0.00    +0.000 A 
ATOM      5  C   UNL     1       6.192   4.719  16.817  0.00  0.00    +0.000 A 
ATOM      6  N   UNL     1       7.218   5.058  17.655  0.00  0.00    +0.000 NA
ATOM      7  C   UNL     1       7.010   5.325  18.987  0.00  0.00    +0.000 A 
ATOM      8  N   UNL     1       8.102   5.666  19.813  0.00  0.00    +0.000 N 
ATOM      9  N   UNL     1       5.748   5.269  19.514  0.00  0.00    +0.000 NA
ATOM     10  C   UNL     1       4.740   4.914  18.684  0.00  0.00    +0.000 A 
ATOM     11  H   UNL     1       9.055   5.709  19.423  0.00  0.00    +0.000 HD
ATOM     12  H   UNL     1       7.955   5.867  20.813  0.00  0.00    +0.000 HD
ENDROOT
BRANCH   5  13
ATOM     13  C   UNL     1       6.455   4.498  15.385  0.00  0.00    +0.000 A 
ATOM     14  C   UNL     1       7.310   5.253  14.606  0.00  0.00    +0.000 A 
ATOM     15  C   UNL     1       7.230   4.723  13.340  0.00  0.00    +0.000 A 
ATOM     16  C   UNL     1       6.331   3.681  13.417  0.00  0.00    +0.000 A 
ATOM     17  O   UNL     1       5.886   3.568  14.650  0.00  0.00    +0.000 OA
ENDBRANCH   5  13
BRANCH   1  18
ATOM     18  C   UNL     1       2.750   5.151  20.205  0.00  0.00    +0.000 C 
BRANCH  18  22
ATOM     19  C   UNL     1       2.072   9.476  17.697  0.00  0.00    +0.000 C 
ATOM     20  C   UNL     1       1.811   8.663  18.943  0.00  0.00    +0.000 A 
ATOM     21  C   UNL     1       2.356   7.377  19.012  0.00  0.00    +0.000 A 
ATOM     22  C   UNL     1       2.158   6.551  20.135  0.00  0.00    +0.000 A 
ATOM     23  C   UNL     1       1.385   7.029  21.198  0.00  0.00    +0.000 A 
ATOM     24  C   UNL     1       0.837   8.316  21.148  0.00  0.00    +0.000 A 
ATOM     25  C   UNL     1       1.049   9.146  20.034  0.00  0.00    +0.000 A 
BRANCH  25  26
ATOM     26  N   UNL     1       0.504  10.458  20.041  0.00  0.00    +0.000 N 
ATOM     27  H   UNL     1      -0.219  10.719  20.728  0.00  0.00    +0.000 HD
ATOM     28  H   UNL     1       0.839  11.184  19.395  0.00  0.00    +0.000 HD
ENDBRANCH  25  26
ENDBRANCH  18  22
ENDBRANCH   1  18
TORSDOF 4
ENDMDL
MODEL 5
REMARK VINA RESULT:      -8.0      3.309      5.006
REMARK  Name = 
REMARK  5 active torsions:
REMARK  status: ('A' for Active; 'I' for Inactive)
REMARK    1  A    between atoms: C_1  and  C_2
REMARK    2  A    between atoms: C_4  and  C_5
REMARK    3  A    between atoms: C_5  and  N_6
REMARK    4  A    between atoms: C_10  and  C_11
REMARK    5  A    between atoms: C_23  and  N_24
REMARK                            x       y       z     vdW  Elec       q    Type
REMARK                         _______ _______ _______ _____ _____    ______ ____
ROOT
ATOM      1  N   UNL     1       1.599   9.012  18.864  0.00  0.00    +0.000 N 
ATOM      2  N   UNL     1       2.064   9.360  17.666  0.00  0.00    +0.000 NA
ATOM      3  N   UNL     1       2.812   8.381  17.147  0.00  0.00    +0.000 NA
ATOM      4  C   UNL     1       2.813   7.392  18.062  0.00  0.00    +0.000 A 
ATOM      5  C   UNL     1       3.448   6.152  18.079  0.00  0.00    +0.000 A 
ATOM      6  N   UNL     1       3.247   5.368  19.180  0.00  0.00    +0.000 NA
ATOM      7  C   UNL     1       2.467   5.781  20.234  0.00  0.00    +0.000 A 
ATOM      8  N   UNL     1       2.285   4.932  21.347  0.00  0.00    +0.000 N 
ATOM      9  N   UNL     1       1.874   7.014  20.212  0.00  0.00    +0.000 NA
ATOM     10  C   UNL     1       2.062   7.778  19.111  0.00  0.00    +0.000 A 
ATOM     11  H   UNL     1       2.728   4.002  21.369  0.00  0.00    +0.000 HD
ATOM     12  H   UNL     1       1.702   5.234  22.141  0.00  0.00    +0.000 HD
ENDROOT
BRANCH   5  13
ATOM     13  C   UNL     1       4.338   5.690  16.999  0.00  0.00    +0.000 A 
ATOM     14  C   UNL     1       5.198   6.493  16.277  0.00  0.00    +0.000 A 
ATOM     15  C   UNL     1       5.805   5.665  15.362  0.00  0.00    +0.000 A 
ATOM     16  C   UNL     1       5.279   4.408  15.575  0.00  0.00    +0.000 A 
ATOM     17  O   UNL     1       4.408   4.453  16.560  0.00  0.00    +0.000 OA
ENDBRANCH   5  13
BRANCH   1  18
ATOM     18  C   UNL     1       0.868   9.891  19.775  0.00  0.00    +0.000 C 
BRANCH  18  22
ATOM     19  C   UNL     1      -2.514   9.728  16.034  0.00  0.00    +0.000 C 
ATOM     20  C   UNL     1      -2.056  10.375  17.320  0.00  0.00    +0.000 A 
ATOM     21  C   UNL     1      -0.892   9.886  17.921  0.00  0.00    +0.000 A 
ATOM     22  C   UNL     1      -0.397  10.428  19.122  0.00  0.00    +0.000 A 
ATOM     23  C   UNL     1      -1.100  11.473  19.731  0.00  0.00    +0.000 A 
ATOM     24  C   UNL     1      -2.263  11.979  19.141  0.00  0.00    +0.000 A 
ATOM     25  C   UNL     1      -2.747  11.448  17.933  0.00  0.00    +0.000 A 
BRANCH  25  26
ATOM     26  N   UNL     1      -3.912  12.016  17.350  0.00  0.00    +0.000 N 
ATOM     27  H   UNL     1      -4.120  11.869  16.351  0.00  0.00    +0.000 HD
ATOM     28  H   UNL     1      -4.589  12.550  17.910  0.00  0.00    +0.000 HD
ENDBRANCH  25  26
ENDBRANCH  18  22
ENDBRANCH   1  18
TORSDOF 4
ENDMDL
MODEL 6
REMARK VINA RESULT:      -7.9      3.894      6.527
REMARK  Name = 
REMARK  5 active torsions:
REMARK  status: ('A' for Active; 'I' for Inactive)
REMARK    1  A    between atoms: C_1  and  C_2
REMARK    2  A    between atoms: C_4  and  C_5
REMARK    3  A    between atoms: C_5  and  N_6
REMARK    4  A    between atoms: C_10  and  C_11
REMARK    5  A    between atoms: C_23  and  N_24
REMARK                            x       y       z     vdW  Elec       q    Type
REMARK                         _______ _______ _______ _____ _____    ______ ____
ROOT
ATOM      1  N   UNL     1       1.392   9.270  19.654  0.00  0.00    +0.000 N 
ATOM      2  N   UNL     1       0.722   8.823  20.714  0.00  0.00    +0.000 NA
ATOM      3  N   UNL     1       0.965   7.524  20.913  0.00  0.00    +0.000 NA
ATOM      4  C   UNL     1       1.815   7.153  19.936  0.00  0.00    +0.000 A 
ATOM      5  C   UNL     1       2.381   5.918  19.626  0.00  0.00    +0.000 A 
ATOM      6  N   UNL     1       3.216   5.873  18.545  0.00  0.00    +0.000 NA
ATOM      7  C   UNL     1       3.480   6.986  17.783  0.00  0.00    +0.000 A 
ATOM      8  N   UNL     1       4.354   6.890  16.680  0.00  0.00    +0.000 N 
ATOM      9  N   UNL     1       2.893   8.185  18.087  0.00  0.00    +0.000 NA
ATOM     10  C   UNL     1       2.082   8.227  19.169  0.00  0.00    +0.000 A 
ATOM     11  H   UNL     1       4.800   5.991  16.446  0.00  0.00    +0.000 HD
ATOM     12  H   UNL     1       4.558   7.720  16.104  0.00  0.00    +0.000 HD
ENDROOT
BRANCH   5  13
ATOM     13  C   UNL     1       2.084   4.686  20.378  0.00  0.00    +0.000 A 
ATOM     14  C   UNL     1       1.158   3.731  20.007  0.00  0.00    +0.000 A 
ATOM     15  C   UNL     1       1.184   2.779  20.999  0.00  0.00    +0.000 A 
ATOM     16  C   UNL     1       2.119   3.208  21.917  0.00  0.00    +0.000 A 
ATOM     17  O   UNL     1       2.642   4.348  21.519  0.00  0.00    +0.000 OA
ENDBRANCH   5  13
BRANCH   1  18
ATOM     18  C   UNL     1       1.252  10.600  19.063  0.00  0.00    +0.000 C 
BRANCH  18  22
ATOM     19  C   UNL     1      -3.001   9.800  16.469  0.00  0.00    +0.000 C 
ATOM     20  C   UNL     1      -2.289  10.569  17.558  0.00  0.00    +0.000 A 
ATOM     21  C   UNL     1      -0.946  10.267  17.801  0.00  0.00    +0.000 A 
ATOM     22  C   UNL     1      -0.208  10.933  18.799  0.00  0.00    +0.000 A 
ATOM     23  C   UNL     1      -0.847  11.908  19.572  0.00  0.00    +0.000 A 
ATOM     24  C   UNL     1      -2.189  12.227  19.339  0.00  0.00    +0.000 A 
ATOM     25  C   UNL     1      -2.919  11.574  18.331  0.00  0.00    +0.000 A 
BRANCH  25  26
ATOM     26  N   UNL     1      -4.269  11.954  18.104  0.00  0.00    +0.000 N 
ATOM     27  H   UNL     1      -4.559  12.938  18.208  0.00  0.00    +0.000 HD
ATOM     28  H   UNL     1      -4.977  11.273  17.798  0.00  0.00    +0.000 HD
ENDBRANCH  25  26
ENDBRANCH  18  22
ENDBRANCH   1  18
TORSDOF 4
ENDMDL
MODEL 7
REMARK VINA RESULT:      -7.9      2.715      4.291
REMARK  Name = 
REMARK  5 active torsions:
REMARK  status: ('A' for Active; 'I' for Inactive)
REMARK    1  A    between atoms: C_1  and  C_2
REMARK    2  A    between atoms: C_4  and  C_5
REMARK    3  A    between atoms: C_5  and  N_6
REMARK    4  A    between atoms: C_10  and  C_11
REMARK    5  A    between atoms: C_23  and  N_24
REMARK                            x       y       z     vdW  Elec       q    Type
REMARK                         _______ _______ _______ _____ _____    ______ ____
ROOT
ATOM      1  N   UNL     1       2.076   7.789  19.371  0.00  0.00    +0.000 N 
ATOM      2  N   UNL     1       2.691   8.285  18.300  0.00  0.00    +0.000 NA
ATOM      3  N   UNL     1       3.490   7.367  17.746  0.00  0.00    +0.000 NA
ATOM      4  C   UNL     1       3.366   6.262  18.507  0.00  0.00    +0.000 A 
ATOM      5  C   UNL     1       3.982   5.015  18.430  0.00  0.00    +0.000 A 
ATOM      6  N   UNL     1       3.636   4.093  19.377  0.00  0.00    +0.000 NA
ATOM      7  C   UNL     1       2.734   4.378  20.375  0.00  0.00    +0.000 A 
ATOM      8  N   UNL     1       2.405   3.391  21.327  0.00  0.00    +0.000 N 
ATOM      9  N   UNL     1       2.159   5.618  20.451  0.00  0.00    +0.000 NA
ATOM     10  C   UNL     1       2.492   6.521  19.499  0.00  0.00    +0.000 A 
ATOM     11  H   UNL     1       2.833   2.455  21.274  0.00  0.00    +0.000 HD
ATOM     12  H   UNL     1       1.729   3.596  22.077  0.00  0.00    +0.000 HD
ENDROOT
BRANCH   5  13
ATOM     13  C   UNL     1       4.996   4.681  17.415  0.00  0.00    +0.000 A 
ATOM     14  C   UNL     1       4.734   4.114  16.183  0.00  0.00    +0.000 A 
ATOM     15  C   UNL     1       5.957   3.948  15.578  0.00  0.00    +0.000 A 
ATOM     16  C   UNL     1       6.894   4.419  16.475  0.00  0.00    +0.000 A 
ATOM     17  O   UNL     1       6.292   4.852  17.560  0.00  0.00    +0.000 OA
ENDBRANCH   5  13
BRANCH   1  18
ATOM     18  C   UNL     1       1.243   8.553  20.298  0.00  0.00    +0.000 C 
BRANCH  18  22
ATOM     19  C   UNL     1      -2.183  10.432  17.105  0.00  0.00    +0.000 C 
ATOM     20  C   UNL     1      -1.044  10.694  18.062  0.00  0.00    +0.000 A 
ATOM     21  C   UNL     1      -0.456   9.596  18.698  0.00  0.00    +0.000 A 
ATOM     22  C   UNL     1       0.608   9.751  19.607  0.00  0.00    +0.000 A 
ATOM     23  C   UNL     1       1.073  11.040  19.888  0.00  0.00    +0.000 A 
ATOM     24  C   UNL     1       0.500  12.149  19.257  0.00  0.00    +0.000 A 
ATOM     25  C   UNL     1      -0.550  11.992  18.337  0.00  0.00    +0.000 A 
BRANCH  25  26
ATOM     26  N   UNL     1      -1.078  13.143  17.693  0.00  0.00    +0.000 N 
ATOM     27  H   UNL     1      -0.709  13.446  16.780  0.00  0.00    +0.000 HD
ATOM     28  H   UNL     1      -1.858  13.677  18.098  0.00  0.00    +0.000 HD
ENDBRANCH  25  26
ENDBRANCH  18  22
ENDBRANCH   1  18
TORSDOF 4
ENDMDL
MODEL 8
REMARK VINA RESULT:      -7.8      3.268      5.911
REMARK  Name = 
REMARK  5 active torsions:
REMARK  status: ('A' for Active; 'I' for Inactive)
REMARK    1  A    between atoms: C_1  and  C_2
REMARK    2  A    between atoms: C_4  and  C_5
REMARK    3  A    between atoms: C_5  and  N_6
REMARK    4  A    between atoms: C_10  and  C_11
REMARK    5  A    between atoms: C_23  and  N_24
REMARK                            x       y       z     vdW  Elec       q    Type
REMARK                         _______ _______ _______ _____ _____    ______ ____
ROOT
ATOM      1  N   UNL     1       2.199   8.365  18.877  0.00  0.00    +0.000 N 
ATOM      2  N   UNL     1       1.538   8.133  20.009  0.00  0.00    +0.000 NA
ATOM      3  N   UNL     1       1.698   6.863  20.397  0.00  0.00    +0.000 NA
ATOM      4  C   UNL     1       2.484   6.288  19.466  0.00  0.00    +0.000 A 
ATOM      5  C   UNL     1       2.951   4.982  19.332  0.00  0.00    +0.000 A 
ATOM      6  N   UNL     1       3.742   4.715  18.250  0.00  0.00    +0.000 NA
ATOM      7  C   UNL     1       4.055   5.679  17.322  0.00  0.00    +0.000 A 
ATOM      8  N   UNL     1       4.879   5.355  16.224  0.00  0.00    +0.000 N 
ATOM      9  N   UNL     1       3.564   6.950  17.455  0.00  0.00    +0.000 NA
ATOM     10  C   UNL     1       2.797   7.213  18.539  0.00  0.00    +0.000 A 
ATOM     11  H   UNL     1       5.253   4.400  16.118  0.00  0.00    +0.000 HD
ATOM     12  H   UNL     1       5.120   6.072  15.524  0.00  0.00    +0.000 HD
ENDROOT
BRANCH   5  13
ATOM     13  C   UNL     1       2.596   3.902  20.269  0.00  0.00    +0.000 A 
ATOM     14  C   UNL     1       1.334   3.675  20.782  0.00  0.00    +0.000 A 
ATOM     15  C   UNL     1       1.461   2.598  21.628  0.00  0.00    +0.000 A 
ATOM     16  C   UNL     1       2.790   2.234  21.586  0.00  0.00    +0.000 A 
ATOM     17  O   UNL     1       3.443   3.027  20.765  0.00  0.00    +0.000 OA
ENDBRANCH   5  13
BRANCH   1  18
ATOM     18  C   UNL     1       2.132   9.599  18.096  0.00  0.00    +0.000 C 
BRANCH  18  22
ATOM     19  C   UNL     1      -2.868   9.832  17.454  0.00  0.00    +0.000 C 
ATOM     20  C   UNL     1      -1.618  10.461  18.025  0.00  0.00    +0.000 A 
ATOM     21  C   UNL     1      -0.401   9.804  17.819  0.00  0.00    +0.000 A 
ATOM     22  C   UNL     1       0.810  10.318  18.319  0.00  0.00    +0.000 A 
ATOM     23  C   UNL     1       0.785  11.509  19.053  0.00  0.00    +0.000 A 
ATOM     24  C   UNL     1      -0.423  12.183  19.264  0.00  0.00    +0.000 A 
ATOM     25  C   UNL     1      -1.628  11.678  18.749  0.00  0.00    +0.000 A 
BRANCH  25  26
ATOM     26  N   UNL     1      -2.826  12.413  18.956  0.00  0.00    +0.000 N 
ATOM     27  H   UNL     1      -2.813  13.290  19.498  0.00  0.00    +0.000 HD
ATOM     28  H   UNL     1      -3.721  12.114  18.546  0.00  0.00    +0.000 HD
ENDBRANCH  25  26
ENDBRANCH  18  22
ENDBRANCH   1  18
TORSDOF 4
ENDMDL
MODEL 9
REMARK VINA RESULT:      -7.7      0.887      1.030
REMARK  Name = 
REMARK  5 active torsions:
REMARK  status: ('A' for Active; 'I' for Inactive)
REMARK    1  A    between atoms: C_1  and  C_2
REMARK    2  A    between atoms: C_4  and  C_5
REMARK    3  A    between atoms: C_5  and  N_6
REMARK    4  A    between atoms: C_10  and  C_11
REMARK    5  A    between atoms: C_23  and  N_24
REMARK                            x       y       z     vdW  Elec       q    Type
REMARK                         _______ _______ _______ _____ _____    ______ ____
ROOT
ATOM      1  N   UNL     1       4.252   4.197  18.442  0.00  0.00    +0.000 N 
ATOM      2  N   UNL     1       3.749   3.449  17.462  0.00  0.00    +0.000 NA
ATOM      3  N   UNL     1       4.488   3.566  16.353  0.00  0.00    +0.000 NA
ATOM      4  C   UNL     1       5.483   4.420  16.660  0.00  0.00    +0.000 A 
ATOM      5  C   UNL     1       6.526   4.936  15.893  0.00  0.00    +0.000 A 
ATOM      6  N   UNL     1       7.381   5.803  16.513  0.00  0.00    +0.000 NA
ATOM      7  C   UNL     1       7.220   6.169  17.828  0.00  0.00    +0.000 A 
ATOM      8  N   UNL     1       8.132   7.064  18.425  0.00  0.00    +0.000 N 
ATOM      9  N   UNL     1       6.173   5.673  18.558  0.00  0.00    +0.000 NA
ATOM     10  C   UNL     1       5.341   4.800  17.945  0.00  0.00    +0.000 A 
ATOM     11  H   UNL     1       8.923   7.439  17.882  0.00  0.00    +0.000 HD
ATOM     12  H   UNL     1       8.019   7.342  19.411  0.00  0.00    +0.000 HD
ENDROOT
BRANCH   5  13
ATOM     13  C   UNL     1       6.706   4.619  14.466  0.00  0.00    +0.000 A 
ATOM     14  C   UNL     1       7.573   5.269  13.609  0.00  0.00    +0.000 A 
ATOM     15  C   UNL     1       7.399   4.678  12.380  0.00  0.00    +0.000 A 
ATOM     16  C   UNL     1       6.435   3.707  12.556  0.00  0.00    +0.000 A 
ATOM     17  O   UNL     1       6.042   3.693  13.811  0.00  0.00    +0.000 OA
ENDBRANCH   5  13
BRANCH   1  18
ATOM     18  C   UNL     1       3.622   4.421  19.742  0.00  0.00    +0.000 C 
BRANCH  18  22
ATOM     19  C   UNL     1       2.400   8.782  17.520  0.00  0.00    +0.000 C 
ATOM     20  C   UNL     1       2.263   7.872  18.718  0.00  0.00    +0.000 A 
ATOM     21  C   UNL     1       2.950   6.655  18.697  0.00  0.00    +0.000 A 
ATOM     22  C   UNL     1       2.875   5.746  19.770  0.00  0.00    +0.000 A 
ATOM     23  C   UNL     1       2.080   6.069  20.874  0.00  0.00    +0.000 A 
ATOM     24  C   UNL     1       1.389   7.286  20.914  0.00  0.00    +0.000 A 
ATOM     25  C   UNL     1       1.479   8.200  19.850  0.00  0.00    +0.000 A 
BRANCH  25  26
ATOM     26  N   UNL     1       0.790   9.438  19.948  0.00  0.00    +0.000 N 
ATOM     27  H   UNL     1       0.470   9.926  19.098  0.00  0.00    +0.000 HD
ATOM     28  H   UNL     1       0.563   9.858  20.859  0.00  0.00    +0.000 HD
ENDBRANCH  25  26
ENDBRANCH  18  22
ENDBRANCH   1  18
TORSDOF 4
ENDMDL
