MODEL 1
REMARK VINA RESULT:      -6.6      0.000      0.000
REMARK  Name = 
REMARK  9 active torsions:
REMARK  status: ('A' for Active; 'I' for Inactive)
REMARK    1  A    between atoms: C_1  and  C_2
REMARK    2  A    between atoms: C_2  and  C_3
REMARK    3  A    between atoms: C_3  and  C_4
REMARK    4  A    between atoms: C_4  and  O_5
REMARK    5  A    between atoms: O_5  and  C_6
REMARK    6  A    between atoms: C_6  and  C_8
REMARK    7  A    between atoms: C_9  and  C_10
REMARK    8  A    between atoms: C_13  and  O_14
REMARK    9  A    between atoms: C_15  and  O_16
REMARK                            x       y       z     vdW  Elec       q    Type
REMARK                         _______ _______ _______ _____ _____    ______ ____
ROOT
ATOM      1  C   UNL     1       3.184   5.102  18.239  0.00  0.00    +0.000 A 
ATOM      2  C   UNL     1       2.679   5.712  19.399  0.00  0.00    +0.000 A 
ATOM      3  C   UNL     1       1.773   5.040  20.230  0.00  0.00    +0.000 A 
ATOM      4  C   UNL     1       1.362   3.759  19.890  0.00  0.00    +0.000 A 
ATOM      5  C   UNL     1       1.822   3.165  18.718  0.00  0.00    +0.000 A 
ATOM      6  C   UNL     1       2.718   3.827  17.886  0.00  0.00    +0.000 A 
ENDROOT
BRANCH   1   8
ATOM      7  C   UNL     1       5.490   5.516  17.405  0.00  0.00    +0.000 C 
ATOM      8  C   UNL     1       4.170   5.763  17.369  0.00  0.00    +0.000 C 
BRANCH   7   9
ATOM      9  C   UNL     1       6.390   6.180  16.431  0.00  0.00    +0.000 C 
ATOM     10  O   UNL     1       7.319   6.900  16.719  0.00  0.00    +0.000 OA
BRANCH   9  11
ATOM     11  O   UNL     1       5.939   5.900  15.176  0.00  0.00    +0.000 OA
BRANCH  11  12
ATOM     12  C   UNL     1       6.732   4.920  14.479  0.00  0.00    +0.000 C 
BRANCH  12  13
ATOM     13  C   UNL     1       5.880   3.747  14.009  0.00  0.00    +0.000 C 
BRANCH  13  15
ATOM     14  C   UNL     1       4.774   3.262  11.786  0.00  0.00    +0.000 C 
ATOM     15  C   UNL     1       6.091   3.460  12.520  0.00  0.00    +0.000 C 
ENDBRANCH  13  15
ENDBRANCH  12  13
ENDBRANCH  11  12
ENDBRANCH   9  11
ENDBRANCH   7   9
ENDBRANCH   1   8
BRANCH   4  16
ATOM     16  O   UNL     1       0.508   3.037  20.676  0.00  0.00    +0.000 OA
ATOM     17  H   UNL     1       1.019   2.650  21.406  0.00  0.00    +0.000 HD
ENDBRANCH   4  16
BRANCH   5  18
ATOM     18  O   UNL     1       1.406   1.907  18.384  0.00  0.00    +0.000 OA
ATOM     19  H   UNL     1       2.224   1.437  18.126  0.00  0.00    +0.000 HD
ENDBRANCH   5  18
TORSDOF 8
ENDMDL
MODEL 2
REMARK VINA RESULT:      -6.6      2.358      4.373
REMARK  Name = 
REMARK  9 active torsions:
REMARK  status: ('A' for Active; 'I' for Inactive)
REMARK    1  A    between atoms: C_1  and  C_2
REMARK    2  A    between atoms: C_2  and  C_3
REMARK    3  A    between atoms: C_3  and  C_4
REMARK    4  A    between atoms: C_4  and  O_5
REMARK    5  A    between atoms: O_5  and  C_6
REMARK    6  A    between atoms: C_6  and  C_8
REMARK    7  A    between atoms: C_9  and  C_10
REMARK    8  A    between atoms: C_13  and  O_14
REMARK    9  A    between atoms: C_15  and  O_16
REMARK                            x       y       z     vdW  Elec       q    Type
REMARK                         _______ _______ _______ _____ _____    ______ ____
ROOT
ATOM      1  C   UNL     1       3.839   4.207  17.931  0.00  0.00    +0.000 A 
ATOM      2  C   UNL     1       2.721   3.512  17.442  0.00  0.00    +0.000 A 
ATOM      3  C   UNL     1       1.556   3.389  18.210  0.00  0.00    +0.000 A 
ATOM      4  C   UNL     1       1.517   3.954  19.477  0.00  0.00    +0.000 A 
ATOM      5  C   UNL     1       2.636   4.606  19.987  0.00  0.00    +0.000 A 
ATOM      6  C   UNL     1       3.797   4.727  19.233  0.00  0.00    +0.000 A 
ENDROOT
BRANCH   1   8
ATOM      7  C   UNL     1       5.955   5.372  17.339  0.00  0.00    +0.000 C 
ATOM      8  C   UNL     1       5.061   4.392  17.131  0.00  0.00    +0.000 C 
BRANCH   7   9
ATOM      9  C   UNL     1       7.194   5.422  16.526  0.00  0.00    +0.000 C 
ATOM     10  O   UNL     1       7.744   4.463  16.032  0.00  0.00    +0.000 OA
BRANCH   9  11
ATOM     11  O   UNL     1       7.635   6.712  16.501  0.00  0.00    +0.000 OA
BRANCH  11  12
ATOM     12  C   UNL     1       7.642   7.348  17.793  0.00  0.00    +0.000 C 
BRANCH  12  13
ATOM     13  C   UNL     1       7.830   8.857  17.668  0.00  0.00    +0.000 C 
BRANCH  13  15
ATOM     14  C   UNL     1       9.264  10.809  18.400  0.00  0.00    +0.000 C 
ATOM     15  C   UNL     1       8.819   9.387  18.710  0.00  0.00    +0.000 C 
ENDBRANCH  13  15
ENDBRANCH  12  13
ENDBRANCH  11  12
ENDBRANCH   9  11
ENDBRANCH   7   9
ENDBRANCH   1   8
BRANCH   4  16
ATOM     16  O   UNL     1       0.399   3.900  20.262  0.00  0.00    +0.000 OA
ATOM     17  H   UNL     1       0.549   4.455  21.045  0.00  0.00    +0.000 HD
ENDBRANCH   4  16
BRANCH   5  18
ATOM     18  O   UNL     1       2.594   5.151  21.239  0.00  0.00    +0.000 OA
ATOM     19  H   UNL     1       2.648   6.116  21.090  0.00  0.00    +0.000 HD
ENDBRANCH   5  18
TORSDOF 8
ENDMDL
MODEL 3
REMARK VINA RESULT:      -6.6      2.218      6.124
REMARK  Name = 
REMARK  9 active torsions:
REMARK  status: ('A' for Active; 'I' for Inactive)
REMARK    1  A    between atoms: C_1  and  C_2
REMARK    2  A    between atoms: C_2  and  C_3
REMARK    3  A    between atoms: C_3  and  C_4
REMARK    4  A    between atoms: C_4  and  O_5
REMARK    5  A    between atoms: O_5  and  C_6
REMARK    6  A    between atoms: C_6  and  C_8
REMARK    7  A    between atoms: C_9  and  C_10
REMARK    8  A    between atoms: C_13  and  O_14
REMARK    9  A    between atoms: C_15  and  O_16
REMARK                            x       y       z     vdW  Elec       q    Type
REMARK                         _______ _______ _______ _____ _____    ______ ____
ROOT
ATOM      1  C   UNL     1       4.887   5.608  18.172  0.00  0.00    +0.000 A 
ATOM      2  C   UNL     1       4.591   6.196  16.931  0.00  0.00    +0.000 A 
ATOM      3  C   UNL     1       5.466   6.066  15.845  0.00  0.00    +0.000 A 
ATOM      4  C   UNL     1       6.648   5.356  16.007  0.00  0.00    +0.000 A 
ATOM      5  C   UNL     1       6.970   4.809  17.246  0.00  0.00    +0.000 A 
ATOM      6  C   UNL     1       6.108   4.938  18.330  0.00  0.00    +0.000 A 
ENDROOT
BRANCH   1   8
ATOM      7  C   UNL     1       2.632   5.783  19.206  0.00  0.00    +0.000 C 
ATOM      8  C   UNL     1       3.967   5.689  19.318  0.00  0.00    +0.000 C 
BRANCH   7   9
ATOM      9  C   UNL     1       1.790   5.780  20.427  0.00  0.00    +0.000 C 
ATOM     10  O   UNL     1       1.428   6.766  21.028  0.00  0.00    +0.000 OA
BRANCH   9  11
ATOM     11  O   UNL     1       1.566   4.484  20.785  0.00  0.00    +0.000 OA
BRANCH  11  12
ATOM     12  C   UNL     1       1.094   3.656  19.706  0.00  0.00    +0.000 C 
BRANCH  12  13
ATOM     13  C   UNL     1       1.655   2.241  19.805  0.00  0.00    +0.000 C 
BRANCH  13  15
ATOM     14  C   UNL     1       2.558   2.670  17.480  0.00  0.00    +0.000 C 
ATOM     15  C   UNL     1       2.822   2.031  18.835  0.00  0.00    +0.000 C 
ENDBRANCH  13  15
ENDBRANCH  12  13
ENDBRANCH  11  12
ENDBRANCH   9  11
ENDBRANCH   7   9
ENDBRANCH   1   8
BRANCH   4  16
ATOM     16  O   UNL     1       7.527   5.163  14.979  0.00  0.00    +0.000 OA
ATOM     17  H   UNL     1       7.906   6.026  14.736  0.00  0.00    +0.000 HD
ENDBRANCH   4  16
BRANCH   5  18
ATOM     18  O   UNL     1       8.139   4.120  17.402  0.00  0.00    +0.000 OA
ATOM     19  H   UNL     1       8.615   4.247  16.557  0.00  0.00    +0.000 HD
ENDBRANCH   5  18
TORSDOF 8
ENDMDL
MODEL 4
REMARK VINA RESULT:      -6.6      2.866      6.684
REMARK  Name = 
REMARK  9 active torsions:
REMARK  status: ('A' for Active; 'I' for Inactive)
REMARK    1  A    between atoms: C_1  and  C_2
REMARK    2  A    between atoms: C_2  and  C_3
REMARK    3  A    between atoms: C_3  and  C_4
REMARK    4  A    between atoms: C_4  and  O_5
REMARK    5  A    between atoms: O_5  and  C_6
REMARK    6  A    between atoms: C_6  and  C_8
REMARK    7  A    between atoms: C_9  and  C_10
REMARK    8  A    between atoms: C_13  and  O_14
REMARK    9  A    between atoms: C_15  and  O_16
REMARK                            x       y       z     vdW  Elec       q    Type
REMARK                         _______ _______ _______ _____ _____    ______ ____
ROOT
ATOM      1  C   UNL     1       5.268   5.121  17.962  0.00  0.00    +0.000 A 
ATOM      2  C   UNL     1       5.640   6.166  17.101  0.00  0.00    +0.000 A 
ATOM      3  C   UNL     1       6.771   6.950  17.365  0.00  0.00    +0.000 A 
ATOM      4  C   UNL     1       7.522   6.694  18.504  0.00  0.00    +0.000 A 
ATOM      5  C   UNL     1       7.135   5.690  19.386  0.00  0.00    +0.000 A 
ATOM      6  C   UNL     1       6.011   4.910  19.132  0.00  0.00    +0.000 A 
ENDROOT
BRANCH   1   8
ATOM      7  C   UNL     1       3.889   3.080  18.306  0.00  0.00    +0.000 C 
ATOM      8  C   UNL     1       4.113   4.251  17.688  0.00  0.00    +0.000 C 
BRANCH   7   9
ATOM      9  C   UNL     1       2.652   2.317  18.012  0.00  0.00    +0.000 C 
ATOM     10  O   UNL     1       2.128   2.230  16.925  0.00  0.00    +0.000 OA
BRANCH   9  11
ATOM     11  O   UNL     1       2.179   1.806  19.184  0.00  0.00    +0.000 OA
BRANCH  11  12
ATOM     12  C   UNL     1       1.194   2.638  19.825  0.00  0.00    +0.000 C 
BRANCH  12  13
ATOM     13  C   UNL     1       1.547   2.893  21.286  0.00  0.00    +0.000 C 
BRANCH  13  15
ATOM     14  C   UNL     1       1.792   5.267  20.446  0.00  0.00    +0.000 C 
ATOM     15  C   UNL     1       2.256   4.238  21.466  0.00  0.00    +0.000 C 
ENDBRANCH  13  15
ENDBRANCH  12  13
ENDBRANCH  11  12
ENDBRANCH   9  11
ENDBRANCH   7   9
ENDBRANCH   1   8
BRANCH   4  16
ATOM     16  O   UNL     1       8.655   7.399  18.801  0.00  0.00    +0.000 OA
ATOM     17  H   UNL     1       8.830   8.016  18.069  0.00  0.00    +0.000 HD
ENDBRANCH   4  16
BRANCH   5  18
ATOM     18  O   UNL     1       7.873   5.449  20.510  0.00  0.00    +0.000 OA
ATOM     19  H   UNL     1       7.397   5.918  21.223  0.00  0.00    +0.000 HD
ENDBRANCH   5  18
TORSDOF 8
ENDMDL
MODEL 5
REMARK VINA RESULT:      -6.6      1.195      1.528
REMARK  Name = 
REMARK  9 active torsions:
REMARK  status: ('A' for Active; 'I' for Inactive)
REMARK    1  A    between atoms: C_1  and  C_2
REMARK    2  A    between atoms: C_2  and  C_3
REMARK    3  A    between atoms: C_3  and  C_4
REMARK    4  A    between atoms: C_4  and  O_5
REMARK    5  A    between atoms: O_5  and  C_6
REMARK    6  A    between atoms: C_6  and  C_8
REMARK    7  A    between atoms: C_9  and  C_10
REMARK    8  A    between atoms: C_13  and  O_14
REMARK    9  A    between atoms: C_15  and  O_16
REMARK                            x       y       z     vdW  Elec       q    Type
REMARK                         _______ _______ _______ _____ _____    ______ ____
ROOT
ATOM      1  C   UNL     1       3.813   4.537  18.208  0.00  0.00    +0.000 A 
ATOM      2  C   UNL     1       2.509   4.680  17.707  0.00  0.00    +0.000 A 
ATOM      3  C   UNL     1       1.411   4.137  18.387  0.00  0.00    +0.000 A 
ATOM      4  C   UNL     1       1.624   3.437  19.567  0.00  0.00    +0.000 A 
ATOM      5  C   UNL     1       2.917   3.251  20.047  0.00  0.00    +0.000 A 
ATOM      6  C   UNL     1       4.011   3.783  19.374  0.00  0.00    +0.000 A 
ENDROOT
BRANCH   1   8
ATOM      7  C   UNL     1       5.506   4.677  16.392  0.00  0.00    +0.000 C 
ATOM      8  C   UNL     1       4.981   5.134  17.541  0.00  0.00    +0.000 C 
BRANCH   7   9
ATOM      9  C   UNL     1       6.637   5.400  15.762  0.00  0.00    +0.000 C 
ATOM     10  O   UNL     1       7.465   6.054  16.356  0.00  0.00    +0.000 OA
BRANCH   9  11
ATOM     11  O   UNL     1       6.532   5.259  14.411  0.00  0.00    +0.000 OA
BRANCH  11  12
ATOM     12  C   UNL     1       6.396   3.893  13.977  0.00  0.00    +0.000 C 
BRANCH  12  13
ATOM     13  C   UNL     1       6.431   3.785  12.457  0.00  0.00    +0.000 C 
BRANCH  13  15
ATOM     14  C   UNL     1       4.221   3.288  11.329  0.00  0.00    +0.000 C 
ATOM     15  C   UNL     1       5.480   2.698  11.948  0.00  0.00    +0.000 C 
ENDBRANCH  13  15
ENDBRANCH  12  13
ENDBRANCH  11  12
ENDBRANCH   9  11
ENDBRANCH   7   9
ENDBRANCH   1   8
BRANCH   4  16
ATOM     16  O   UNL     1       0.593   2.912  20.295  0.00  0.00    +0.000 OA
ATOM     17  H   UNL     1       0.204   3.625  20.830  0.00  0.00    +0.000 HD
ENDBRANCH   4  16
BRANCH   5  18
ATOM     18  O   UNL     1       3.120   2.552  21.203  0.00  0.00    +0.000 OA
ATOM     19  H   UNL     1       3.886   1.976  21.012  0.00  0.00    +0.000 HD
ENDBRANCH   5  18
TORSDOF 8
ENDMDL
MODEL 6
REMARK VINA RESULT:      -6.5      1.093      1.274
REMARK  Name = 
REMARK  9 active torsions:
REMARK  status: ('A' for Active; 'I' for Inactive)
REMARK    1  A    between atoms: C_1  and  C_2
REMARK    2  A    between atoms: C_2  and  C_3
REMARK    3  A    between atoms: C_3  and  C_4
REMARK    4  A    between atoms: C_4  and  O_5
REMARK    5  A    between atoms: O_5  and  C_6
REMARK    6  A    between atoms: C_6  and  C_8
REMARK    7  A    between atoms: C_9  and  C_10
REMARK    8  A    between atoms: C_13  and  O_14
REMARK    9  A    between atoms: C_15  and  O_16
REMARK                            x       y       z     vdW  Elec       q    Type
REMARK                         _______ _______ _______ _____ _____    ______ ____
ROOT
ATOM      1  C   UNL     1       3.048   4.599  18.395  0.00  0.00    +0.000 A 
ATOM      2  C   UNL     1       3.224   4.950  19.743  0.00  0.00    +0.000 A 
ATOM      3  C   UNL     1       2.443   4.366  20.748  0.00  0.00    +0.000 A 
ATOM      4  C   UNL     1       1.473   3.436  20.398  0.00  0.00    +0.000 A 
ATOM      5  C   UNL     1       1.261   3.117  19.061  0.00  0.00    +0.000 A 
ATOM      6  C   UNL     1       2.029   3.696  18.057  0.00  0.00    +0.000 A 
ENDROOT
BRANCH   1   8
ATOM      7  C   UNL     1       4.607   4.422  16.466  0.00  0.00    +0.000 C 
ATOM      8  C   UNL     1       3.883   5.162  17.321  0.00  0.00    +0.000 C 
BRANCH   7   9
ATOM      9  C   UNL     1       5.354   5.086  15.369  0.00  0.00    +0.000 C 
ATOM     10  O   UNL     1       5.772   6.221  15.397  0.00  0.00    +0.000 OA
BRANCH   9  11
ATOM     11  O   UNL     1       5.413   4.226  14.314  0.00  0.00    +0.000 OA
BRANCH  11  12
ATOM     12  C   UNL     1       6.691   4.206  13.651  0.00  0.00    +0.000 C 
BRANCH  12  13
ATOM     13  C   UNL     1       6.547   3.850  12.175  0.00  0.00    +0.000 C 
BRANCH  13  15
ATOM     14  C   UNL     1       4.283   3.191  11.258  0.00  0.00    +0.000 C 
ATOM     15  C   UNL     1       5.541   2.714  11.968  0.00  0.00    +0.000 C 
ENDBRANCH  13  15
ENDBRANCH  12  13
ENDBRANCH  11  12
ENDBRANCH   9  11
ENDBRANCH   7   9
ENDBRANCH   1   8
BRANCH   4  16
ATOM     16  O   UNL     1       0.701   2.805  21.334  0.00  0.00    +0.000 OA
ATOM     17  H   UNL     1       1.258   2.159  21.802  0.00  0.00    +0.000 HD
ENDBRANCH   4  16
BRANCH   5  18
ATOM     18  O   UNL     1       0.298   2.209  18.722  0.00  0.00    +0.000 OA
ATOM     19  H   UNL     1       0.031   2.458  17.815  0.00  0.00    +0.000 HD
ENDBRANCH   5  18
TORSDOF 8
ENDMDL
MODEL 7
REMARK VINA RESULT:      -6.5      1.208      1.595
REMARK  Name = 
REMARK  9 active torsions:
REMARK  status: ('A' for Active; 'I' for Inactive)
REMARK    1  A    between atoms: C_1  and  C_2
REMARK    2  A    between atoms: C_2  and  C_3
REMARK    3  A    between atoms: C_3  and  C_4
REMARK    4  A    between atoms: C_4  and  O_5
REMARK    5  A    between atoms: O_5  and  C_6
REMARK    6  A    between atoms: C_6  and  C_8
REMARK    7  A    between atoms: C_9  and  C_10
REMARK    8  A    between atoms: C_13  and  O_14
REMARK    9  A    between atoms: C_15  and  O_16
REMARK                            x       y       z     vdW  Elec       q    Type
REMARK                         _______ _______ _______ _____ _____    ______ ____
ROOT
ATOM      1  C   UNL     1       3.748   3.913  17.776  0.00  0.00    +0.000 A 
ATOM      2  C   UNL     1       3.767   4.780  18.881  0.00  0.00    +0.000 A 
ATOM      3  C   UNL     1       2.715   4.792  19.806  0.00  0.00    +0.000 A 
ATOM      4  C   UNL     1       1.634   3.942  19.614  0.00  0.00    +0.000 A 
ATOM      5  C   UNL     1       1.586   3.113  18.497  0.00  0.00    +0.000 A 
ATOM      6  C   UNL     1       2.625   3.099  17.573  0.00  0.00    +0.000 A 
ENDROOT
BRANCH   1   8
ATOM      7  C   UNL     1       5.271   4.882  16.065  0.00  0.00    +0.000 C 
ATOM      8  C   UNL     1       4.858   3.845  16.812  0.00  0.00    +0.000 C 
BRANCH   7   9
ATOM      9  C   UNL     1       6.451   4.728  15.181  0.00  0.00    +0.000 C 
ATOM     10  O   UNL     1       7.378   5.504  15.113  0.00  0.00    +0.000 OA
BRANCH   9  11
ATOM     11  O   UNL     1       6.268   3.615  14.416  0.00  0.00    +0.000 OA
BRANCH  11  12
ATOM     12  C   UNL     1       6.458   3.840  13.007  0.00  0.00    +0.000 C 
BRANCH  12  13
ATOM     13  C   UNL     1       5.513   2.980  12.174  0.00  0.00    +0.000 C 
BRANCH  13  15
ATOM     14  C   UNL     1       3.457   2.978  10.699  0.00  0.00    +0.000 C 
ATOM     15  C   UNL     1       4.451   3.832  11.473  0.00  0.00    +0.000 C 
ENDBRANCH  13  15
ENDBRANCH  12  13
ENDBRANCH  11  12
ENDBRANCH   9  11
ENDBRANCH   7   9
ENDBRANCH   1   8
BRANCH   4  16
ATOM     16  O   UNL     1       0.593   3.881  20.497  0.00  0.00    +0.000 OA
ATOM     17  H   UNL     1      -0.234   4.009  20.003  0.00  0.00    +0.000 HD
ENDBRANCH   4  16
BRANCH   5  18
ATOM     18  O   UNL     1       0.515   2.286  18.309  0.00  0.00    +0.000 OA
ATOM     19  H   UNL     1      -0.215   2.882  18.051  0.00  0.00    +0.000 HD
ENDBRANCH   5  18
TORSDOF 8
ENDMDL
MODEL 8
REMARK VINA RESULT:      -6.5      1.751      3.639
REMARK  Name = 
REMARK  9 active torsions:
REMARK  status: ('A' for Active; 'I' for Inactive)
REMARK    1  A    between atoms: C_1  and  C_2
REMARK    2  A    between atoms: C_2  and  C_3
REMARK    3  A    between atoms: C_3  and  C_4
REMARK    4  A    between atoms: C_4  and  O_5
REMARK    5  A    between atoms: O_5  and  C_6
REMARK    6  A    between atoms: C_6  and  C_8
REMARK    7  A    between atoms: C_9  and  C_10
REMARK    8  A    between atoms: C_13  and  O_14
REMARK    9  A    between atoms: C_15  and  O_16
REMARK                            x       y       z     vdW  Elec       q    Type
REMARK                         _______ _______ _______ _____ _____    ______ ____
ROOT
ATOM      1  C   UNL     1       3.613   3.909  17.513  0.00  0.00    +0.000 A 
ATOM      2  C   UNL     1       3.247   5.051  18.243  0.00  0.00    +0.000 A 
ATOM      3  C   UNL     1       2.181   5.015  19.151  0.00  0.00    +0.000 A 
ATOM      4  C   UNL     1       1.472   3.834  19.319  0.00  0.00    +0.000 A 
ATOM      5  C   UNL     1       1.799   2.710  18.566  0.00  0.00    +0.000 A 
ATOM      6  C   UNL     1       2.853   2.739  17.659  0.00  0.00    +0.000 A 
ENDROOT
BRANCH   1   8
ATOM      7  C   UNL     1       5.290   5.008  16.042  0.00  0.00    +0.000 C 
ATOM      8  C   UNL     1       4.755   3.902  16.584  0.00  0.00    +0.000 C 
BRANCH   7   9
ATOM      9  C   UNL     1       6.491   4.897  15.179  0.00  0.00    +0.000 C 
ATOM     10  O   UNL     1       6.601   4.156  14.229  0.00  0.00    +0.000 OA
BRANCH   9  11
ATOM     11  O   UNL     1       7.458   5.712  15.689  0.00  0.00    +0.000 OA
BRANCH  11  12
ATOM     12  C   UNL     1       7.244   6.079  17.064  0.00  0.00    +0.000 C 
BRANCH  12  13
ATOM     13  C   UNL     1       7.251   7.593  17.244  0.00  0.00    +0.000 C 
BRANCH  13  15
ATOM     14  C   UNL     1       8.504   9.528  18.287  0.00  0.00    +0.000 C 
ATOM     15  C   UNL     1       8.259   8.027  18.313  0.00  0.00    +0.000 C 
ENDBRANCH  13  15
ENDBRANCH  12  13
ENDBRANCH  11  12
ENDBRANCH   9  11
ENDBRANCH   7   9
ENDBRANCH   1   8
BRANCH   4  16
ATOM     16  O   UNL     1       0.445   3.723  20.214  0.00  0.00    +0.000 OA
ATOM     17  H   UNL     1      -0.369   3.525  19.720  0.00  0.00    +0.000 HD
ENDBRANCH   4  16
BRANCH   5  18
ATOM     18  O   UNL     1       1.091   1.553  18.727  0.00  0.00    +0.000 OA
ATOM     19  H   UNL     1       0.919   1.501  19.689  0.00  0.00    +0.000 HD
ENDBRANCH   5  18
TORSDOF 8
ENDMDL
MODEL 9
REMARK VINA RESULT:      -6.4      1.168      1.302
REMARK  Name = 
REMARK  9 active torsions:
REMARK  status: ('A' for Active; 'I' for Inactive)
REMARK    1  A    between atoms: C_1  and  C_2
REMARK    2  A    between atoms: C_2  and  C_3
REMARK    3  A    between atoms: C_3  and  C_4
REMARK    4  A    between atoms: C_4  and  O_5
REMARK    5  A    between atoms: O_5  and  C_6
REMARK    6  A    between atoms: C_6  and  C_8
REMARK    7  A    between atoms: C_9  and  C_10
REMARK    8  A    between atoms: C_13  and  O_14
REMARK    9  A    between atoms: C_15  and  O_16
REMARK                            x       y       z     vdW  Elec       q    Type
REMARK                         _______ _______ _______ _____ _____    ______ ____
ROOT
ATOM      1  C   UNL     1       3.700   3.871  18.269  0.00  0.00    +0.000 A 
ATOM      2  C   UNL     1       3.532   4.610  19.452  0.00  0.00    +0.000 A 
ATOM      3  C   UNL     1       2.405   4.425  20.263  0.00  0.00    +0.000 A 
ATOM      4  C   UNL     1       1.437   3.507  19.880  0.00  0.00    +0.000 A 
ATOM      5  C   UNL     1       1.573   2.804  18.686  0.00  0.00    +0.000 A 
ATOM      6  C   UNL     1       2.687   2.986  17.874  0.00  0.00    +0.000 A 
ENDROOT
BRANCH   1   8
ATOM      7  C   UNL     1       5.957   4.767  17.734  0.00  0.00    +0.000 C 
ATOM      8  C   UNL     1       4.894   4.010  17.420  0.00  0.00    +0.000 C 
BRANCH   7   9
ATOM      9  C   UNL     1       7.143   4.776  16.844  0.00  0.00    +0.000 C 
ATOM     10  O   UNL     1       8.189   4.209  17.069  0.00  0.00    +0.000 OA
BRANCH   9  11
ATOM     11  O   UNL     1       6.873   5.588  15.783  0.00  0.00    +0.000 OA
BRANCH  11  12
ATOM     12  C   UNL     1       7.022   4.943  14.505  0.00  0.00    +0.000 C 
BRANCH  12  13
ATOM     13  C   UNL     1       5.688   4.417  13.987  0.00  0.00    +0.000 C 
BRANCH  13  15
ATOM     14  C   UNL     1       6.985   3.859  11.888  0.00  0.00    +0.000 C 
ATOM     15  C   UNL     1       5.883   3.421  12.841  0.00  0.00    +0.000 C 
ENDBRANCH  13  15
ENDBRANCH  12  13
ENDBRANCH  11  12
ENDBRANCH   9  11
ENDBRANCH   7   9
ENDBRANCH   1   8
BRANCH   4  16
ATOM     16  O   UNL     1       0.332   3.255  20.644  0.00  0.00    +0.000 OA
ATOM     17  H   UNL     1       0.550   2.546  21.273  0.00  0.00    +0.000 HD
ENDBRANCH   4  16
BRANCH   5  18
ATOM     18  O   UNL     1       0.612   1.910  18.310  0.00  0.00    +0.000 OA
ATOM     19  H   UNL     1      -0.030   2.439  17.795  0.00  0.00    +0.000 HD
ENDBRANCH   5  18
TORSDOF 8
ENDMDL
