MODEL 1
REMARK VINA RESULT:      -7.5      0.000      0.000
REMARK  Name = 
REMARK  7 active torsions:
REMARK  status: ('A' for Active; 'I' for Inactive)
REMARK    1  A    between atoms: C_1  and  C_2
REMARK    2  A    between atoms: C_6  and  C_7
REMARK    3  A    between atoms: C_10  and  S_11
REMARK    4  A    between atoms: S_11  and  C_12
REMARK    5  A    between atoms: C_12  and  C_13
REMARK    6  A    between atoms: N_15  and  C_16
REMARK    7  A    between atoms: C_21  and  C_22
REMARK                            x       y       z     vdW  Elec       q    Type
REMARK                         _______ _______ _______ _____ _____    ______ ____
ROOT
ATOM      1  S   UNL     1       7.396   4.599  17.405  0.00  0.00    +0.000 S 
ENDROOT
BRANCH   1   5
ATOM      2  C   UNL     1       6.342   4.138  13.759  0.00  0.00    +0.000 A 
ATOM      3  N   UNL     1       7.223   5.108  13.593  0.00  0.00    +0.000 NA
ATOM      4  N   UNL     1       7.708   5.429  14.842  0.00  0.00    +0.000 NA
ATOM      5  C   UNL     1       7.105   4.629  15.695  0.00  0.00    +0.000 A 
ATOM      6  O   UNL     1       6.205   3.797  15.083  0.00  0.00    +0.000 OA
BRANCH   2  12
ATOM      7  C   UNL     1       7.480   2.010  11.497  0.00  0.00    +0.000 C 
ATOM      8  C   UNL     1       6.151   2.619  11.707  0.00  0.00    +0.000 A 
ATOM      9  O   UNL     1       5.183   2.258  10.812  0.00  0.00    +0.000 OA
ATOM     10  C   UNL     1       4.040   2.892  11.178  0.00  0.00    +0.000 A 
ATOM     11  C   UNL     1       4.250   3.653  12.304  0.00  0.00    +0.000 A 
ATOM     12  C   UNL     1       5.618   3.490  12.635  0.00  0.00    +0.000 A 
ENDBRANCH   2  12
ENDBRANCH   1   5
BRANCH   1  13
ATOM     13  C   UNL     1       6.566   6.140  17.907  0.00  0.00    +0.000 C 
BRANCH  13  14
ATOM     14  C   UNL     1       5.098   6.094  17.508  0.00  0.00    +0.000 C 
ATOM     15  O   UNL     1       4.598   6.904  16.736  0.00  0.00    +0.000 OA
ATOM     16  N   UNL     1       4.422   5.015  18.038  0.00  0.00    +0.000 N 
ATOM     17  H   UNL     1       4.874   4.563  18.823  0.00  0.00    +0.000 HD
BRANCH  16  18
ATOM     18  C   UNL     1       3.006   4.718  17.810  0.00  0.00    +0.000 C 
ATOM     19  C   UNL     1       2.805   3.358  17.116  0.00  0.00    +0.000 C 
ATOM     20  C   UNL     1       3.320   2.202  17.975  0.00  0.00    +0.000 C 
ATOM     21  C   UNL     1       2.721   2.207  19.381  0.00  0.00    +0.000 C 
ATOM     22  C   UNL     1       2.784   3.575  20.061  0.00  0.00    +0.000 C 
ATOM     23  C   UNL     1       2.234   4.689  19.153  0.00  0.00    +0.000 C 
ATOM     24  C   UNL     1       2.230   6.043  19.864  0.00  0.00    +0.000 C 
ENDBRANCH  16  18
ENDBRANCH  13  14
ENDBRANCH   1  13
TORSDOF 5
ENDMDL
MODEL 2
REMARK VINA RESULT:      -7.2      2.937      7.520
REMARK  Name = 
REMARK  7 active torsions:
REMARK  status: ('A' for Active; 'I' for Inactive)
REMARK    1  A    between atoms: C_1  and  C_2
REMARK    2  A    between atoms: C_6  and  C_7
REMARK    3  A    between atoms: C_10  and  S_11
REMARK    4  A    between atoms: S_11  and  C_12
REMARK    5  A    between atoms: C_12  and  C_13
REMARK    6  A    between atoms: N_15  and  C_16
REMARK    7  A    between atoms: C_21  and  C_22
REMARK                            x       y       z     vdW  Elec       q    Type
REMARK                         _______ _______ _______ _____ _____    ______ ____
ROOT
ATOM      1  S   UNL     1       4.061   2.668  19.897  0.00  0.00    +0.000 S 
ENDROOT
BRANCH   1   5
ATOM      2  C   UNL     1       1.871   5.767  20.357  0.00  0.00    +0.000 A 
ATOM      3  N   UNL     1       0.962   4.841  20.602  0.00  0.00    +0.000 NA
ATOM      4  N   UNL     1       1.585   3.620  20.457  0.00  0.00    +0.000 NA
ATOM      5  C   UNL     1       2.837   3.872  20.146  0.00  0.00    +0.000 A 
ATOM      6  O   UNL     1       3.089   5.215  20.041  0.00  0.00    +0.000 OA
BRANCH   2  12
ATOM      7  C   UNL     1       2.130   8.084  18.010  0.00  0.00    +0.000 C 
ATOM      8  C   UNL     1       1.739   8.152  19.433  0.00  0.00    +0.000 A 
ATOM      9  O   UNL     1       1.419   9.394  19.903  0.00  0.00    +0.000 OA
ATOM     10  C   UNL     1       1.067   9.253  21.206  0.00  0.00    +0.000 A 
ATOM     11  C   UNL     1       1.145   7.934  21.586  0.00  0.00    +0.000 A 
ATOM     12  C   UNL     1       1.596   7.225  20.445  0.00  0.00    +0.000 A 
ENDBRANCH   2  12
ENDBRANCH   1   5
BRANCH   1  13
ATOM     13  C   UNL     1       3.564   2.027  18.266  0.00  0.00    +0.000 C 
BRANCH  13  14
ATOM     14  C   UNL     1       3.415   3.175  17.279  0.00  0.00    +0.000 C 
ATOM     15  O   UNL     1       2.333   3.507  16.810  0.00  0.00    +0.000 OA
ATOM     16  N   UNL     1       4.597   3.842  17.034  0.00  0.00    +0.000 N 
ATOM     17  H   UNL     1       5.439   3.342  17.294  0.00  0.00    +0.000 HD
BRANCH  16  18
ATOM     18  C   UNL     1       4.743   4.991  16.137  0.00  0.00    +0.000 C 
ATOM     19  C   UNL     1       4.765   6.325  16.906  0.00  0.00    +0.000 C 
ATOM     20  C   UNL     1       5.959   6.411  17.858  0.00  0.00    +0.000 C 
ATOM     21  C   UNL     1       7.289   6.149  17.152  0.00  0.00    +0.000 C 
ATOM     22  C   UNL     1       7.272   4.898  16.272  0.00  0.00    +0.000 C 
ATOM     23  C   UNL     1       6.059   4.883  15.326  0.00  0.00    +0.000 C 
ATOM     24  C   UNL     1       6.085   3.668  14.398  0.00  0.00    +0.000 C 
ENDBRANCH  16  18
ENDBRANCH  13  14
ENDBRANCH   1  13
TORSDOF 5
ENDMDL
MODEL 3
REMARK VINA RESULT:      -7.1      2.843      7.495
REMARK  Name = 
REMARK  7 active torsions:
REMARK  status: ('A' for Active; 'I' for Inactive)
REMARK    1  A    between atoms: C_1  and  C_2
REMARK    2  A    between atoms: C_6  and  C_7
REMARK    3  A    between atoms: C_10  and  S_11
REMARK    4  A    between atoms: S_11  and  C_12
REMARK    5  A    between atoms: C_12  and  C_13
REMARK    6  A    between atoms: N_15  and  C_16
REMARK    7  A    between atoms: C_21  and  C_22
REMARK                            x       y       z     vdW  Elec       q    Type
REMARK                         _______ _______ _______ _____ _____    ______ ____
ROOT
ATOM      1  S   UNL     1       4.276   3.175  19.850  0.00  0.00    +0.000 S 
ENDROOT
BRANCH   1   5
ATOM      2  C   UNL     1       2.183   6.374  19.889  0.00  0.00    +0.000 A 
ATOM      3  N   UNL     1       1.465   5.654  20.731  0.00  0.00    +0.000 NA
ATOM      4  N   UNL     1       2.075   4.422  20.827  0.00  0.00    +0.000 NA
ATOM      5  C   UNL     1       3.136   4.467  20.050  0.00  0.00    +0.000 A 
ATOM      6  O   UNL     1       3.257   5.668  19.402  0.00  0.00    +0.000 OA
BRANCH   2  12
ATOM      7  C   UNL     1       1.057   8.796  21.841  0.00  0.00    +0.000 C 
ATOM      8  C   UNL     1       1.381   8.752  20.400  0.00  0.00    +0.000 A 
ATOM      9  O   UNL     1       1.187   9.915  19.712  0.00  0.00    +0.000 OA
ATOM     10  C   UNL     1       1.557   9.689  18.426  0.00  0.00    +0.000 A 
ATOM     11  C   UNL     1       1.997   8.395  18.272  0.00  0.00    +0.000 A 
ATOM     12  C   UNL     1       1.866   7.785  19.545  0.00  0.00    +0.000 A 
ENDBRANCH   2  12
ENDBRANCH   1   5
BRANCH   1  13
ATOM     13  C   UNL     1       3.605   2.374  18.358  0.00  0.00    +0.000 C 
BRANCH  13  14
ATOM     14  C   UNL     1       3.477   3.391  17.234  0.00  0.00    +0.000 C 
ATOM     15  O   UNL     1       2.425   3.584  16.635  0.00  0.00    +0.000 OA
ATOM     16  N   UNL     1       4.631   4.115  17.018  0.00  0.00    +0.000 N 
ATOM     17  H   UNL     1       5.474   3.714  17.408  0.00  0.00    +0.000 HD
BRANCH  16  18
ATOM     18  C   UNL     1       4.786   5.166  16.009  0.00  0.00    +0.000 C 
ATOM     19  C   UNL     1       4.778   6.573  16.634  0.00  0.00    +0.000 C 
ATOM     20  C   UNL     1       5.950   6.772  17.597  0.00  0.00    +0.000 C 
ATOM     21  C   UNL     1       7.297   6.453  16.951  0.00  0.00    +0.000 C 
ATOM     22  C   UNL     1       7.312   5.117  16.207  0.00  0.00    +0.000 C 
ATOM     23  C   UNL     1       6.121   4.989  15.242  0.00  0.00    +0.000 C 
ATOM     24  C   UNL     1       6.179   3.684  14.447  0.00  0.00    +0.000 C 
ENDBRANCH  16  18
ENDBRANCH  13  14
ENDBRANCH   1  13
TORSDOF 5
ENDMDL
MODEL 4
REMARK VINA RESULT:      -7.1      4.588      8.018
REMARK  Name = 
REMARK  7 active torsions:
REMARK  status: ('A' for Active; 'I' for Inactive)
REMARK    1  A    between atoms: C_1  and  C_2
REMARK    2  A    between atoms: C_6  and  C_7
REMARK    3  A    between atoms: C_10  and  S_11
REMARK    4  A    between atoms: S_11  and  C_12
REMARK    5  A    between atoms: C_12  and  C_13
REMARK    6  A    between atoms: N_15  and  C_16
REMARK    7  A    between atoms: C_21  and  C_22
REMARK                            x       y       z     vdW  Elec       q    Type
REMARK                         _______ _______ _______ _____ _____    ______ ____
ROOT
ATOM      1  S   UNL     1       3.829   6.523  17.437  0.00  0.00    +0.000 S 
ENDROOT
BRANCH   1   5
ATOM      2  C   UNL     1       1.551   8.825  19.469  0.00  0.00    +0.000 A 
ATOM      3  N   UNL     1       1.387   9.377  18.281  0.00  0.00    +0.000 NA
ATOM      4  N   UNL     1       2.173   8.670  17.398  0.00  0.00    +0.000 NA
ATOM      5  C   UNL     1       2.760   7.721  18.094  0.00  0.00    +0.000 A 
ATOM      6  O   UNL     1       2.432   7.771  19.424  0.00  0.00    +0.000 OA
BRANCH   2  12
ATOM      7  C   UNL     1       1.265  11.887  20.688  0.00  0.00    +0.000 C 
ATOM      8  C   UNL     1       0.768  10.579  21.162  0.00  0.00    +0.000 A 
ATOM      9  O   UNL     1       0.050  10.603  22.324  0.00  0.00    +0.000 OA
ATOM     10  C   UNL     1      -0.339   9.328  22.583  0.00  0.00    +0.000 A 
ATOM     11  C   UNL     1       0.109   8.479  21.599  0.00  0.00    +0.000 A 
ATOM     12  C   UNL     1       0.839   9.285  20.690  0.00  0.00    +0.000 A 
ENDBRANCH   2  12
ENDBRANCH   1   5
BRANCH   1  13
ATOM     13  C   UNL     1       4.917   6.233  18.869  0.00  0.00    +0.000 C 
BRANCH  13  14
ATOM     14  C   UNL     1       4.949   4.750  19.207  0.00  0.00    +0.000 C 
ATOM     15  O   UNL     1       5.978   4.086  19.166  0.00  0.00    +0.000 OA
ATOM     16  N   UNL     1       3.732   4.261  19.635  0.00  0.00    +0.000 N 
ATOM     17  H   UNL     1       2.930   4.837  19.410  0.00  0.00    +0.000 HD
BRANCH  16  18
ATOM     18  C   UNL     1       3.479   2.875  20.036  0.00  0.00    +0.000 C 
ATOM     19  C   UNL     1       2.621   2.791  21.311  0.00  0.00    +0.000 C 
ATOM     20  C   UNL     1       1.235   3.404  21.104  0.00  0.00    +0.000 C 
ATOM     21  C   UNL     1       0.508   2.808  19.898  0.00  0.00    +0.000 C 
ATOM     22  C   UNL     1       1.369   2.755  18.637  0.00  0.00    +0.000 C 
ATOM     23  C   UNL     1       2.740   2.110  18.909  0.00  0.00    +0.000 C 
ATOM     24  C   UNL     1       3.570   1.992  17.630  0.00  0.00    +0.000 C 
ENDBRANCH  16  18
ENDBRANCH  13  14
ENDBRANCH   1  13
TORSDOF 5
ENDMDL
MODEL 5
REMARK VINA RESULT:      -7.0      4.256      7.209
REMARK  Name = 
REMARK  7 active torsions:
REMARK  status: ('A' for Active; 'I' for Inactive)
REMARK    1  A    between atoms: C_1  and  C_2
REMARK    2  A    between atoms: C_6  and  C_7
REMARK    3  A    between atoms: C_10  and  S_11
REMARK    4  A    between atoms: S_11  and  C_12
REMARK    5  A    between atoms: C_12  and  C_13
REMARK    6  A    between atoms: N_15  and  C_16
REMARK    7  A    between atoms: C_21  and  C_22
REMARK                            x       y       z     vdW  Elec       q    Type
REMARK                         _______ _______ _______ _____ _____    ______ ____
ROOT
ATOM      1  S   UNL     1       7.536   6.002  18.247  0.00  0.00    +0.000 S 
ENDROOT
BRANCH   1   5
ATOM      2  C   UNL     1       8.812   9.574  18.723  0.00  0.00    +0.000 A 
ATOM      3  N   UNL     1       8.089   9.762  17.634  0.00  0.00    +0.000 NA
ATOM      4  N   UNL     1       7.553   8.540  17.292  0.00  0.00    +0.000 NA
ATOM      5  C   UNL     1       7.968   7.682  18.198  0.00  0.00    +0.000 A 
ATOM      6  O   UNL     1       8.792   8.261  19.127  0.00  0.00    +0.000 OA
BRANCH   2  12
ATOM      7  C   UNL     1      11.047  11.703  17.536  0.00  0.00    +0.000 C 
ATOM      8  C   UNL     1      10.469  11.519  18.883  0.00  0.00    +0.000 A 
ATOM      9  O   UNL     1      10.925  12.374  19.847  0.00  0.00    +0.000 OA
ATOM     10  C   UNL     1      10.269  12.070  20.996  0.00  0.00    +0.000 A 
ATOM     11  C   UNL     1       9.387  11.036  20.788  0.00  0.00    +0.000 A 
ATOM     12  C   UNL     1       9.529  10.669  19.427  0.00  0.00    +0.000 A 
ENDBRANCH   2  12
ENDBRANCH   1   5
BRANCH   1  13
ATOM     13  C   UNL     1       7.191   5.700  16.485  0.00  0.00    +0.000 C 
BRANCH  13  14
ATOM     14  C   UNL     1       5.689   5.691  16.242  0.00  0.00    +0.000 C 
ATOM     15  O   UNL     1       5.175   6.221  15.265  0.00  0.00    +0.000 OA
ATOM     16  N   UNL     1       4.988   4.967  17.184  0.00  0.00    +0.000 N 
ATOM     17  H   UNL     1       5.486   4.778  18.045  0.00  0.00    +0.000 HD
BRANCH  16  18
ATOM     18  C   UNL     1       3.535   4.781  17.189  0.00  0.00    +0.000 C 
ATOM     19  C   UNL     1       3.140   3.313  17.433  0.00  0.00    +0.000 C 
ATOM     20  C   UNL     1       3.608   2.820  18.803  0.00  0.00    +0.000 C 
ATOM     21  C   UNL     1       3.134   3.724  19.941  0.00  0.00    +0.000 C 
ATOM     22  C   UNL     1       3.392   5.209  19.683  0.00  0.00    +0.000 C 
ATOM     23  C   UNL     1       2.881   5.644  18.298  0.00  0.00    +0.000 C 
ATOM     24  C   UNL     1       3.074   7.144  18.073  0.00  0.00    +0.000 C 
ENDBRANCH  16  18
ENDBRANCH  13  14
ENDBRANCH   1  13
TORSDOF 5
ENDMDL
MODEL 6
REMARK VINA RESULT:      -7.0      2.039      2.864
REMARK  Name = 
REMARK  7 active torsions:
REMARK  status: ('A' for Active; 'I' for Inactive)
REMARK    1  A    between atoms: C_1  and  C_2
REMARK    2  A    between atoms: C_6  and  C_7
REMARK    3  A    between atoms: C_10  and  S_11
REMARK    4  A    between atoms: S_11  and  C_12
REMARK    5  A    between atoms: C_12  and  C_13
REMARK    6  A    between atoms: N_15  and  C_16
REMARK    7  A    between atoms: C_21  and  C_22
REMARK                            x       y       z     vdW  Elec       q    Type
REMARK                         _______ _______ _______ _____ _____    ______ ____
ROOT
ATOM      1  S   UNL     1       4.146   6.695  17.583  0.00  0.00    +0.000 S 
ENDROOT
BRANCH   1   5
ATOM      2  C   UNL     1       6.308   5.254  14.778  0.00  0.00    +0.000 A 
ATOM      3  N   UNL     1       7.268   5.740  15.543  0.00  0.00    +0.000 NA
ATOM      4  N   UNL     1       6.658   6.335  16.626  0.00  0.00    +0.000 NA
ATOM      5  C   UNL     1       5.363   6.166  16.466  0.00  0.00    +0.000 A 
ATOM      6  O   UNL     1       5.063   5.508  15.302  0.00  0.00    +0.000 OA
BRANCH   2  12
ATOM      7  C   UNL     1       8.472   5.907  12.363  0.00  0.00    +0.000 C 
ATOM      8  C   UNL     1       7.472   4.834  12.537  0.00  0.00    +0.000 A 
ATOM      9  O   UNL     1       7.399   3.920  11.524  0.00  0.00    +0.000 OA
ATOM     10  C   UNL     1       6.454   3.010  11.870  0.00  0.00    +0.000 A 
ATOM     11  C   UNL     1       5.918   3.315  13.099  0.00  0.00    +0.000 A 
ATOM     12  C   UNL     1       6.564   4.504  13.522  0.00  0.00    +0.000 A 
ENDBRANCH   2  12
ENDBRANCH   1   5
BRANCH   1  13
ATOM     13  C   UNL     1       4.939   6.257  19.163  0.00  0.00    +0.000 C 
BRANCH  13  14
ATOM     14  C   UNL     1       4.997   4.745  19.315  0.00  0.00    +0.000 C 
ATOM     15  O   UNL     1       6.051   4.121  19.314  0.00  0.00    +0.000 OA
ATOM     16  N   UNL     1       3.762   4.170  19.530  0.00  0.00    +0.000 N 
ATOM     17  H   UNL     1       2.966   4.746  19.286  0.00  0.00    +0.000 HD
BRANCH  16  18
ATOM     18  C   UNL     1       3.525   2.737  19.722  0.00  0.00    +0.000 C 
ATOM     19  C   UNL     1       3.268   2.386  21.199  0.00  0.00    +0.000 C 
ATOM     20  C   UNL     1       2.010   3.071  21.735  0.00  0.00    +0.000 C 
ATOM     21  C   UNL     1       0.781   2.791  20.870  0.00  0.00    +0.000 C 
ATOM     22  C   UNL     1       1.029   3.005  19.377  0.00  0.00    +0.000 C 
ATOM     23  C   UNL     1       2.296   2.274  18.899  0.00  0.00    +0.000 C 
ATOM     24  C   UNL     1       2.500   2.430  17.391  0.00  0.00    +0.000 C 
ENDBRANCH  16  18
ENDBRANCH  13  14
ENDBRANCH   1  13
TORSDOF 5
ENDMDL
MODEL 7
REMARK VINA RESULT:      -6.9      4.544      8.180
REMARK  Name = 
REMARK  7 active torsions:
REMARK  status: ('A' for Active; 'I' for Inactive)
REMARK    1  A    between atoms: C_1  and  C_2
REMARK    2  A    between atoms: C_6  and  C_7
REMARK    3  A    between atoms: C_10  and  S_11
REMARK    4  A    between atoms: S_11  and  C_12
REMARK    5  A    between atoms: C_12  and  C_13
REMARK    6  A    between atoms: N_15  and  C_16
REMARK    7  A    between atoms: C_21  and  C_22
REMARK                            x       y       z     vdW  Elec       q    Type
REMARK                         _______ _______ _______ _____ _____    ______ ____
ROOT
ATOM      1  S   UNL     1       3.644   6.544  17.746  0.00  0.00    +0.000 S 
ENDROOT
BRANCH   1   5
ATOM      2  C   UNL     1       1.305   8.638  19.927  0.00  0.00    +0.000 A 
ATOM      3  N   UNL     1       1.468   7.609  20.738  0.00  0.00    +0.000 NA
ATOM      4  N   UNL     1       2.292   6.714  20.091  0.00  0.00    +0.000 NA
ATOM      5  C   UNL     1       2.593   7.254  18.930  0.00  0.00    +0.000 A 
ATOM      6  O   UNL     1       1.983   8.467  18.745  0.00  0.00    +0.000 OA
BRANCH   2  12
ATOM      7  C   UNL     1      -0.025   9.474  22.838  0.00  0.00    +0.000 C 
ATOM      8  C   UNL     1      -0.044  10.128  21.514  0.00  0.00    +0.000 A 
ATOM      9  O   UNL     1      -0.736  11.303  21.441  0.00  0.00    +0.000 OA
ATOM     10  C   UNL     1      -0.621  11.761  20.169  0.00  0.00    +0.000 A 
ATOM     11  C   UNL     1       0.145  10.902  19.416  0.00  0.00    +0.000 A 
ATOM     12  C   UNL     1       0.503   9.838  20.281  0.00  0.00    +0.000 A 
ENDBRANCH   2  12
ENDBRANCH   1   5
BRANCH   1  13
ATOM     13  C   UNL     1       5.078   6.126  18.789  0.00  0.00    +0.000 C 
BRANCH  13  14
ATOM     14  C   UNL     1       5.058   4.644  19.132  0.00  0.00    +0.000 C 
ATOM     15  O   UNL     1       6.060   3.941  19.082  0.00  0.00    +0.000 OA
ATOM     16  N   UNL     1       3.828   4.202  19.574  0.00  0.00    +0.000 N 
ATOM     17  H   UNL     1       3.046   4.807  19.356  0.00  0.00    +0.000 HD
BRANCH  16  18
ATOM     18  C   UNL     1       3.528   2.828  19.983  0.00  0.00    +0.000 C 
ATOM     19  C   UNL     1       2.724   2.778  21.295  0.00  0.00    +0.000 C 
ATOM     20  C   UNL     1       1.361   3.457  21.152  0.00  0.00    +0.000 C 
ATOM     21  C   UNL     1       0.553   2.901  19.979  0.00  0.00    +0.000 C 
ATOM     22  C   UNL     1       1.354   2.814  18.680  0.00  0.00    +0.000 C 
ATOM     23  C   UNL     1       2.703   2.104  18.889  0.00  0.00    +0.000 C 
ATOM     24  C   UNL     1       3.469   1.953  17.573  0.00  0.00    +0.000 C 
ENDBRANCH  16  18
ENDBRANCH  13  14
ENDBRANCH   1  13
TORSDOF 5
ENDMDL
MODEL 8
REMARK VINA RESULT:      -6.9      1.946      2.763
REMARK  Name = 
REMARK  7 active torsions:
REMARK  status: ('A' for Active; 'I' for Inactive)
REMARK    1  A    between atoms: C_1  and  C_2
REMARK    2  A    between atoms: C_6  and  C_7
REMARK    3  A    between atoms: C_10  and  S_11
REMARK    4  A    between atoms: S_11  and  C_12
REMARK    5  A    between atoms: C_12  and  C_13
REMARK    6  A    between atoms: N_15  and  C_16
REMARK    7  A    between atoms: C_21  and  C_22
REMARK                            x       y       z     vdW  Elec       q    Type
REMARK                         _______ _______ _______ _____ _____    ______ ____
ROOT
ATOM      1  S   UNL     1       7.378   6.110  18.693  0.00  0.00    +0.000 S 
ENDROOT
BRANCH   1   5
ATOM      2  C   UNL     1       6.494   5.341  15.054  0.00  0.00    +0.000 A 
ATOM      3  N   UNL     1       5.707   6.386  15.235  0.00  0.00    +0.000 NA
ATOM      4  N   UNL     1       5.882   6.799  16.538  0.00  0.00    +0.000 NA
ATOM      5  C   UNL     1       6.773   5.991  17.071  0.00  0.00    +0.000 A 
ATOM      6  O   UNL     1       7.190   5.023  16.195  0.00  0.00    +0.000 OA
BRANCH   2  12
ATOM      7  C   UNL     1       8.568   5.918  12.543  0.00  0.00    +0.000 C 
ATOM      8  C   UNL     1       7.493   4.923  12.733  0.00  0.00    +0.000 A 
ATOM      9  O   UNL     1       7.288   4.062  11.692  0.00  0.00    +0.000 OA
ATOM     10  C   UNL     1       6.290   3.218  12.058  0.00  0.00    +0.000 A 
ATOM     11  C   UNL     1       5.851   3.513  13.328  0.00  0.00    +0.000 A 
ATOM     12  C   UNL     1       6.616   4.626  13.757  0.00  0.00    +0.000 A 
ENDBRANCH   2  12
ENDBRANCH   1   5
BRANCH   1  13
ATOM     13  C   UNL     1       6.425   4.784  19.498  0.00  0.00    +0.000 C 
BRANCH  13  14
ATOM     14  C   UNL     1       5.108   4.572  18.766  0.00  0.00    +0.000 C 
ATOM     15  O   UNL     1       4.878   3.572  18.096  0.00  0.00    +0.000 OA
ATOM     16  N   UNL     1       4.186   5.571  18.999  0.00  0.00    +0.000 N 
ATOM     17  H   UNL     1       4.565   6.432  19.373  0.00  0.00    +0.000 HD
BRANCH  16  18
ATOM     18  C   UNL     1       2.835   5.616  18.434  0.00  0.00    +0.000 C 
ATOM     19  C   UNL     1       1.887   4.617  19.122  0.00  0.00    +0.000 C 
ATOM     20  C   UNL     1       1.706   4.936  20.607  0.00  0.00    +0.000 C 
ATOM     21  C   UNL     1       1.266   6.381  20.843  0.00  0.00    +0.000 C 
ATOM     22  C   UNL     1       2.103   7.403  20.074  0.00  0.00    +0.000 C 
ATOM     23  C   UNL     1       2.230   7.034  18.586  0.00  0.00    +0.000 C 
ATOM     24  C   UNL     1       3.006   8.097  17.807  0.00  0.00    +0.000 C 
ENDBRANCH  16  18
ENDBRANCH  13  14
ENDBRANCH   1  13
TORSDOF 5
ENDMDL
MODEL 9
REMARK VINA RESULT:      -6.9      4.451      7.413
REMARK  Name = 
REMARK  7 active torsions:
REMARK  status: ('A' for Active; 'I' for Inactive)
REMARK    1  A    between atoms: C_1  and  C_2
REMARK    2  A    between atoms: C_6  and  C_7
REMARK    3  A    between atoms: C_10  and  S_11
REMARK    4  A    between atoms: S_11  and  C_12
REMARK    5  A    between atoms: C_12  and  C_13
REMARK    6  A    between atoms: N_15  and  C_16
REMARK    7  A    between atoms: C_21  and  C_22
REMARK                            x       y       z     vdW  Elec       q    Type
REMARK                         _______ _______ _______ _____ _____    ______ ____
ROOT
ATOM      1  S   UNL     1       7.539   6.048  17.778  0.00  0.00    +0.000 S 
ENDROOT
BRANCH   1   5
ATOM      2  C   UNL     1       8.696   9.590  18.635  0.00  0.00    +0.000 A 
ATOM      3  N   UNL     1       7.852   9.883  17.662  0.00  0.00    +0.000 NA
ATOM      4  N   UNL     1       7.337   8.691  17.203  0.00  0.00    +0.000 NA
ATOM      5  C   UNL     1       7.886   7.741  17.929  0.00  0.00    +0.000 A 
ATOM      6  O   UNL     1       8.779   8.234  18.844  0.00  0.00    +0.000 OA
BRANCH   2  12
ATOM      7  C   UNL     1      11.068  11.662  17.627  0.00  0.00    +0.000 C 
ATOM      8  C   UNL     1      10.433  11.446  18.942  0.00  0.00    +0.000 A 
ATOM      9  O   UNL     1      10.890  12.234  19.960  0.00  0.00    +0.000 OA
ATOM     10  C   UNL     1      10.179  11.911  21.070  0.00  0.00    +0.000 A 
ATOM     11  C   UNL     1       9.259  10.930  20.784  0.00  0.00    +0.000 A 
ATOM     12  C   UNL     1       9.435  10.617  19.413  0.00  0.00    +0.000 A 
ENDBRANCH   2  12
ENDBRANCH   1   5
BRANCH   1  13
ATOM     13  C   UNL     1       5.762   6.040  18.179  0.00  0.00    +0.000 C 
BRANCH  13  14
ATOM     14  C   UNL     1       5.458   4.931  19.175  0.00  0.00    +0.000 C 
ATOM     15  O   UNL     1       6.240   4.607  20.061  0.00  0.00    +0.000 OA
ATOM     16  N   UNL     1       4.196   4.394  19.026  0.00  0.00    +0.000 N 
ATOM     17  H   UNL     1       3.748   4.581  18.138  0.00  0.00    +0.000 HD
BRANCH  16  18
ATOM     18  C   UNL     1       3.637   3.323  19.854  0.00  0.00    +0.000 C 
ATOM     19  C   UNL     1       2.933   3.872  21.109  0.00  0.00    +0.000 C 
ATOM     20  C   UNL     1       1.740   4.759  20.748  0.00  0.00    +0.000 C 
ATOM     21  C   UNL     1       0.754   4.059  19.813  0.00  0.00    +0.000 C 
ATOM     22  C   UNL     1       1.427   3.388  18.615  0.00  0.00    +0.000 C 
ATOM     23  C   UNL     1       2.604   2.496  19.048  0.00  0.00    +0.000 C 
ATOM     24  C   UNL     1       3.228   1.770  17.855  0.00  0.00    +0.000 C 
ENDBRANCH  16  18
ENDBRANCH  13  14
ENDBRANCH   1  13
TORSDOF 5
ENDMDL
