MODEL 1
REMARK VINA RESULT:      -9.4      0.000      0.000
REMARK  Name = 
REMARK  6 active torsions:
REMARK  status: ('A' for Active; 'I' for Inactive)
REMARK    1  A    between atoms: C_2  and  C_4
REMARK    2  A    between atoms: C_6  and  N_7
REMARK    3  A    between atoms: C_8  and  C_10
REMARK    4  A    between atoms: C_12  and  C_13
REMARK    5  A    between atoms: C_17  and  N_18
REMARK    6  A    between atoms: N_24  and  C_25
REMARK                            x       y       z     vdW  Elec       q    Type
REMARK                         _______ _______ _______ _____ _____    ______ ____
ROOT
ATOM      1  N   UNL     1       4.300   5.048  16.739  0.00  0.00    +0.000 N 
ATOM      2  C   UNL     1       4.142   4.217  17.893  0.00  0.00    +0.000 C 
ATOM      3  O   UNL     1       4.932   3.315  18.105  0.00  0.00    +0.000 OA
ATOM      4  H   UNL     1       3.765   5.906  16.651  0.00  0.00    +0.000 HD
ENDROOT
BRANCH   2   5
ATOM      5  C   UNL     1       3.092   4.598  18.873  0.00  0.00    +0.000 A 
ATOM      6  C   UNL     1       2.816   5.975  19.030  0.00  0.00    +0.000 A 
ATOM      7  C   UNL     1       1.877   6.440  19.972  0.00  0.00    +0.000 A 
ATOM      8  C   UNL     1       1.205   5.473  20.739  0.00  0.00    +0.000 A 
ATOM      9  C   UNL     1       1.461   4.108  20.585  0.00  0.00    +0.000 A 
ATOM     10  C   UNL     1       2.403   3.667  19.655  0.00  0.00    +0.000 A 
ATOM     11 CL   UNL     1       2.665   1.963  19.560  0.00  0.00    +0.000 Cl
BRANCH   7  12
ATOM     12  C   UNL     1       1.604   7.885  20.146  0.00  0.00    +0.000 A 
ATOM     13  C   UNL     1       1.264   8.433  21.383  0.00  0.00    +0.000 A 
ATOM     14  C   UNL     1       0.959   9.786  21.466  0.00  0.00    +0.000 A 
ATOM     15  C   UNL     1       1.005  10.557  20.315  0.00  0.00    +0.000 A 
ATOM     16  C   UNL     1       1.385   9.956  19.122  0.00  0.00    +0.000 A 
ATOM     17  N   UNL     1       1.681   8.645  19.022  0.00  0.00    +0.000 NA
BRANCH  16  18
ATOM     18  N   UNL     1       1.400  10.704  17.949  0.00  0.00    +0.000 N 
ATOM     19  H   UNL     1       1.887  11.585  18.055  0.00  0.00    +0.000 HD
ATOM     20  H   UNL     1       1.789  10.129  17.208  0.00  0.00    +0.000 HD
ENDBRANCH  16  18
ENDBRANCH   7  12
ENDBRANCH   2   5
BRANCH   1  23
ATOM     21  C   UNL     1       6.391   4.361  13.920  0.00  0.00    +0.000 A 
ATOM     22  C   UNL     1       5.160   4.162  14.602  0.00  0.00    +0.000 A 
ATOM     23  C   UNL     1       5.301   4.818  15.799  0.00  0.00    +0.000 A 
ATOM     24  N   UNL     1       6.593   5.324  15.822  0.00  0.00    +0.000 N 
ATOM     25  N   UNL     1       7.239   5.115  14.649  0.00  0.00    +0.000 NA
BRANCH  24  26
ATOM     26  C   UNL     1       7.224   5.981  16.911  0.00  0.00    +0.000 A 
ATOM     27  C   UNL     1       7.612   5.263  18.053  0.00  0.00    +0.000 A 
ATOM     28  C   UNL     1       8.161   5.931  19.148  0.00  0.00    +0.000 A 
ATOM     29  C   UNL     1       8.329   7.313  19.103  0.00  0.00    +0.000 A 
ATOM     30  C   UNL     1       7.987   8.023  17.951  0.00  0.00    +0.000 A 
ATOM     31  C   UNL     1       7.452   7.359  16.846  0.00  0.00    +0.000 A 
ENDBRANCH  24  26
BRANCH  21  33
ATOM     32  N   UNL     1       6.222   2.632  12.281  0.00  0.00    +0.000 N 
ATOM     33  C   UNL     1       6.733   3.864  12.579  0.00  0.00    +0.000 C 
ATOM     34  O   UNL     1       7.408   4.498  11.782  0.00  0.00    +0.000 OA
ATOM     35  H   UNL     1       6.380   2.238  11.365  0.00  0.00    +0.000 HD
ATOM     36  H   UNL     1       5.628   2.156  12.949  0.00  0.00    +0.000 HD
ENDBRANCH  21  33
ENDBRANCH   1  23
TORSDOF 6
ENDMDL
MODEL 2
REMARK VINA RESULT:      -8.9      0.964      1.559
REMARK  Name = 
REMARK  6 active torsions:
REMARK  status: ('A' for Active; 'I' for Inactive)
REMARK    1  A    between atoms: C_2  and  C_4
REMARK    2  A    between atoms: C_6  and  N_7
REMARK    3  A    between atoms: C_8  and  C_10
REMARK    4  A    between atoms: C_12  and  C_13
REMARK    5  A    between atoms: C_17  and  N_18
REMARK    6  A    between atoms: N_24  and  C_25
REMARK                            x       y       z     vdW  Elec       q    Type
REMARK                         _______ _______ _______ _____ _____    ______ ____
ROOT
ATOM      1  N   UNL     1       4.291   4.959  16.691  0.00  0.00    +0.000 N 
ATOM      2  C   UNL     1       4.188   4.141  17.860  0.00  0.00    +0.000 C 
ATOM      3  O   UNL     1       5.047   3.311  18.099  0.00  0.00    +0.000 OA
ATOM      4  H   UNL     1       3.689   5.769  16.581  0.00  0.00    +0.000 HD
ENDROOT
BRANCH   2   5
ATOM      5  C   UNL     1       3.099   4.454  18.822  0.00  0.00    +0.000 A 
ATOM      6  C   UNL     1       2.781   5.816  19.026  0.00  0.00    +0.000 A 
ATOM      7  C   UNL     1       1.802   6.217  19.956  0.00  0.00    +0.000 A 
ATOM      8  C   UNL     1       1.135   5.202  20.663  0.00  0.00    +0.000 A 
ATOM      9  C   UNL     1       1.432   3.852  20.462  0.00  0.00    +0.000 A 
ATOM     10  C   UNL     1       2.413   3.474  19.545  0.00  0.00    +0.000 A 
ATOM     11 CL   UNL     1       2.724   1.783  19.390  0.00  0.00    +0.000 Cl
BRANCH   7  12
ATOM     12  C   UNL     1       1.485   7.646  20.180  0.00  0.00    +0.000 A 
ATOM     13  C   UNL     1       1.623   8.604  19.176  0.00  0.00    +0.000 A 
ATOM     14  C   UNL     1       1.370   9.938  19.469  0.00  0.00    +0.000 A 
ATOM     15  C   UNL     1       0.980  10.280  20.755  0.00  0.00    +0.000 A 
ATOM     16  C   UNL     1       0.828   9.274  21.698  0.00  0.00    +0.000 A 
ATOM     17  N   UNL     1       1.073   7.975  21.433  0.00  0.00    +0.000 NA
BRANCH  16  18
ATOM     18  N   UNL     1       0.475   9.601  23.004  0.00  0.00    +0.000 N 
ATOM     19  H   UNL     1      -0.289  10.265  23.047  0.00  0.00    +0.000 HD
ATOM     20  H   UNL     1       0.274   8.742  23.506  0.00  0.00    +0.000 HD
ENDBRANCH  16  18
ENDBRANCH   7  12
ENDBRANCH   2   5
BRANCH   1  23
ATOM     21  C   UNL     1       6.462   4.403  13.904  0.00  0.00    +0.000 A 
ATOM     22  C   UNL     1       5.238   4.124  14.571  0.00  0.00    +0.000 A 
ATOM     23  C   UNL     1       5.318   4.794  15.767  0.00  0.00    +0.000 A 
ATOM     24  N   UNL     1       6.571   5.387  15.803  0.00  0.00    +0.000 N 
ATOM     25  N   UNL     1       7.247   5.217  14.640  0.00  0.00    +0.000 NA
BRANCH  24  26
ATOM     26  C   UNL     1       7.141   6.091  16.896  0.00  0.00    +0.000 A 
ATOM     27  C   UNL     1       7.339   7.479  16.830  0.00  0.00    +0.000 A 
ATOM     28  C   UNL     1       7.969   8.149  17.878  0.00  0.00    +0.000 A 
ATOM     29  C   UNL     1       8.399   7.437  18.995  0.00  0.00    +0.000 A 
ATOM     30  C   UNL     1       8.163   6.064  19.086  0.00  0.00    +0.000 A 
ATOM     31  C   UNL     1       7.518   5.390  18.047  0.00  0.00    +0.000 A 
ENDBRANCH  24  26
BRANCH  21  33
ATOM     32  N   UNL     1       6.364   2.692  12.240  0.00  0.00    +0.000 N 
ATOM     33  C   UNL     1       6.855   3.924  12.571  0.00  0.00    +0.000 C 
ATOM     34  O   UNL     1       7.553   4.572  11.806  0.00  0.00    +0.000 OA
ATOM     35  H   UNL     1       6.558   2.310  11.326  0.00  0.00    +0.000 HD
ATOM     36  H   UNL     1       5.749   2.205  12.882  0.00  0.00    +0.000 HD
ENDBRANCH  21  33
ENDBRANCH   1  23
TORSDOF 6
ENDMDL
MODEL 3
REMARK VINA RESULT:      -8.9      2.346      4.407
REMARK  Name = 
REMARK  6 active torsions:
REMARK  status: ('A' for Active; 'I' for Inactive)
REMARK    1  A    between atoms: C_2  and  C_4
REMARK    2  A    between atoms: C_6  and  N_7
REMARK    3  A    between atoms: C_8  and  C_10
REMARK    4  A    between atoms: C_12  and  C_13
REMARK    5  A    between atoms: C_17  and  N_18
REMARK    6  A    between atoms: N_24  and  C_25
REMARK                            x       y       z     vdW  Elec       q    Type
REMARK                         _______ _______ _______ _____ _____    ______ ____
ROOT
ATOM      1  N   UNL     1       3.776   6.742  18.205  0.00  0.00    +0.000 N 
ATOM      2  C   UNL     1       2.396   7.108  18.109  0.00  0.00    +0.000 C 
ATOM      3  O   UNL     1       1.686   6.586  17.268  0.00  0.00    +0.000 OA
ATOM      4  H   UNL     1       4.325   7.029  19.009  0.00  0.00    +0.000 HD
ENDROOT
BRANCH   2   5
ATOM      5  C   UNL     1       1.852   8.011  19.156  0.00  0.00    +0.000 A 
ATOM      6  C   UNL     1       1.662   9.368  18.812  0.00  0.00    +0.000 A 
ATOM      7  C   UNL     1       1.203  10.313  19.751  0.00  0.00    +0.000 A 
ATOM      8  C   UNL     1       0.917   9.846  21.045  0.00  0.00    +0.000 A 
ATOM      9  C   UNL     1       1.090   8.504  21.394  0.00  0.00    +0.000 A 
ATOM     10  C   UNL     1       1.557   7.585  20.455  0.00  0.00    +0.000 A 
ATOM     11 CL   UNL     1       1.760   5.957  20.992  0.00  0.00    +0.000 Cl
BRANCH   7  12
ATOM     12  C   UNL     1       1.023  11.739  19.391  0.00  0.00    +0.000 A 
ATOM     13  C   UNL     1      -0.175  12.417  19.615  0.00  0.00    +0.000 A 
ATOM     14  C   UNL     1      -0.299  13.735  19.196  0.00  0.00    +0.000 A 
ATOM     15  C   UNL     1       0.778  14.345  18.570  0.00  0.00    +0.000 A 
ATOM     16  C   UNL     1       1.954  13.625  18.410  0.00  0.00    +0.000 A 
ATOM     17  N   UNL     1       2.090  12.344  18.806  0.00  0.00    +0.000 NA
BRANCH  16  18
ATOM     18  N   UNL     1       3.032  14.206  17.749  0.00  0.00    +0.000 N 
ATOM     19  H   UNL     1       2.966  15.215  17.708  0.00  0.00    +0.000 HD
ATOM     20  H   UNL     1       3.888  13.888  18.193  0.00  0.00    +0.000 HD
ENDBRANCH  16  18
ENDBRANCH   7  12
ENDBRANCH   2   5
BRANCH   1  23
ATOM     21  C   UNL     1       5.697   4.911  15.808  0.00  0.00    +0.000 A 
ATOM     22  C   UNL     1       5.220   6.160  16.290  0.00  0.00    +0.000 A 
ATOM     23  C   UNL     1       4.362   5.846  17.315  0.00  0.00    +0.000 A 
ATOM     24  N   UNL     1       4.309   4.462  17.376  0.00  0.00    +0.000 N 
ATOM     25  N   UNL     1       5.178   3.883  16.511  0.00  0.00    +0.000 NA
BRANCH  24  26
ATOM     26  C   UNL     1       3.465   3.685  18.212  0.00  0.00    +0.000 A 
ATOM     27  C   UNL     1       2.202   3.266  17.764  0.00  0.00    +0.000 A 
ATOM     28  C   UNL     1       1.350   2.569  18.619  0.00  0.00    +0.000 A 
ATOM     29  C   UNL     1       1.757   2.283  19.920  0.00  0.00    +0.000 A 
ATOM     30  C   UNL     1       3.029   2.657  20.355  0.00  0.00    +0.000 A 
ATOM     31  C   UNL     1       3.894   3.341  19.498  0.00  0.00    +0.000 A 
ENDBRANCH  24  26
BRANCH  21  33
ATOM     32  N   UNL     1       6.363   3.674  13.876  0.00  0.00    +0.000 N 
ATOM     33  C   UNL     1       6.660   4.710  14.716  0.00  0.00    +0.000 C 
ATOM     34  O   UNL     1       7.646   5.415  14.554  0.00  0.00    +0.000 OA
ATOM     35  H   UNL     1       6.956   3.495  13.079  0.00  0.00    +0.000 HD
ATOM     36  H   UNL     1       5.512   3.140  14.014  0.00  0.00    +0.000 HD
ENDBRANCH  21  33
ENDBRANCH   1  23
TORSDOF 6
ENDMDL
MODEL 4
REMARK VINA RESULT:      -8.9      2.438      4.629
REMARK  Name = 
REMARK  6 active torsions:
REMARK  status: ('A' for Active; 'I' for Inactive)
REMARK    1  A    between atoms: C_2  and  C_4
REMARK    2  A    between atoms: C_6  and  N_7
REMARK    3  A    between atoms: C_8  and  C_10
REMARK    4  A    between atoms: C_12  and  C_13
REMARK    5  A    between atoms: C_17  and  N_18
REMARK    6  A    between atoms: N_24  and  C_25
REMARK                            x       y       z     vdW  Elec       q    Type
REMARK                         _______ _______ _______ _____ _____    ______ ____
ROOT
ATOM      1  N   UNL     1       3.696   6.828  18.315  0.00  0.00    +0.000 N 
ATOM      2  C   UNL     1       2.354   7.291  18.142  0.00  0.00    +0.000 C 
ATOM      3  O   UNL     1       1.668   6.843  17.241  0.00  0.00    +0.000 OA
ATOM      4  H   UNL     1       4.208   7.055  19.162  0.00  0.00    +0.000 HD
ENDROOT
BRANCH   2   5
ATOM      5  C   UNL     1       1.802   8.200  19.180  0.00  0.00    +0.000 A 
ATOM      6  C   UNL     1       1.613   9.554  18.826  0.00  0.00    +0.000 A 
ATOM      7  C   UNL     1       1.147  10.505  19.756  0.00  0.00    +0.000 A 
ATOM      8  C   UNL     1       0.855  10.046  21.052  0.00  0.00    +0.000 A 
ATOM      9  C   UNL     1       1.028   8.707  21.411  0.00  0.00    +0.000 A 
ATOM     10  C   UNL     1       1.502   7.782  20.480  0.00  0.00    +0.000 A 
ATOM     11 CL   UNL     1       1.705   6.158  21.030  0.00  0.00    +0.000 Cl
BRANCH   7  12
ATOM     12  C   UNL     1       0.967  11.928  19.386  0.00  0.00    +0.000 A 
ATOM     13  C   UNL     1       1.987  12.678  18.798  0.00  0.00    +0.000 A 
ATOM     14  C   UNL     1       1.774  14.024  18.534  0.00  0.00    +0.000 A 
ATOM     15  C   UNL     1       0.548  14.587  18.857  0.00  0.00    +0.000 A 
ATOM     16  C   UNL     1      -0.435  13.777  19.407  0.00  0.00    +0.000 A 
ATOM     17  N   UNL     1      -0.246  12.469  19.675  0.00  0.00    +0.000 NA
BRANCH  16  18
ATOM     18  N   UNL     1      -1.658  14.331  19.774  0.00  0.00    +0.000 N 
ATOM     19  H   UNL     1      -2.445  13.757  19.495  0.00  0.00    +0.000 HD
ATOM     20  H   UNL     1      -1.641  14.510  20.773  0.00  0.00    +0.000 HD
ENDBRANCH  16  18
ENDBRANCH   7  12
ENDBRANCH   2   5
BRANCH   1  23
ATOM     21  C   UNL     1       5.624   4.952  15.959  0.00  0.00    +0.000 A 
ATOM     22  C   UNL     1       5.168   6.212  16.432  0.00  0.00    +0.000 A 
ATOM     23  C   UNL     1       4.280   5.919  17.438  0.00  0.00    +0.000 A 
ATOM     24  N   UNL     1       4.190   4.536  17.494  0.00  0.00    +0.000 N 
ATOM     25  N   UNL     1       5.063   3.936  16.648  0.00  0.00    +0.000 NA
BRANCH  24  26
ATOM     26  C   UNL     1       3.307   3.780  18.309  0.00  0.00    +0.000 A 
ATOM     27  C   UNL     1       2.026   3.435  17.850  0.00  0.00    +0.000 A 
ATOM     28  C   UNL     1       1.140   2.758  18.687  0.00  0.00    +0.000 A 
ATOM     29  C   UNL     1       1.531   2.419  19.980  0.00  0.00    +0.000 A 
ATOM     30  C   UNL     1       2.819   2.719  20.425  0.00  0.00    +0.000 A 
ATOM     31  C   UNL     1       3.717   3.382  19.586  0.00  0.00    +0.000 A 
ENDBRANCH  24  26
BRANCH  21  33
ATOM     32  N   UNL     1       6.332   3.664  14.076  0.00  0.00    +0.000 N 
ATOM     33  C   UNL     1       6.606   4.728  14.888  0.00  0.00    +0.000 C 
ATOM     34  O   UNL     1       7.587   5.437  14.720  0.00  0.00    +0.000 OA
ATOM     35  H   UNL     1       6.938   3.468  13.293  0.00  0.00    +0.000 HD
ATOM     36  H   UNL     1       5.484   3.127  14.216  0.00  0.00    +0.000 HD
ENDBRANCH  21  33
ENDBRANCH   1  23
TORSDOF 6
ENDMDL
MODEL 5
REMARK VINA RESULT:      -8.6      2.521      4.789
REMARK  Name = 
REMARK  6 active torsions:
REMARK  status: ('A' for Active; 'I' for Inactive)
REMARK    1  A    between atoms: C_2  and  C_4
REMARK    2  A    between atoms: C_6  and  N_7
REMARK    3  A    between atoms: C_8  and  C_10
REMARK    4  A    between atoms: C_12  and  C_13
REMARK    5  A    between atoms: C_17  and  N_18
REMARK    6  A    between atoms: N_24  and  C_25
REMARK                            x       y       z     vdW  Elec       q    Type
REMARK                         _______ _______ _______ _____ _____    ______ ____
ROOT
ATOM      1  N   UNL     1       3.595   7.026  18.297  0.00  0.00    +0.000 N 
ATOM      2  C   UNL     1       2.254   7.502  18.145  0.00  0.00    +0.000 C 
ATOM      3  O   UNL     1       1.535   7.030  17.283  0.00  0.00    +0.000 OA
ATOM      4  H   UNL     1       4.135   7.277  19.118  0.00  0.00    +0.000 HD
ENDROOT
BRANCH   2   5
ATOM      5  C   UNL     1       1.748   8.460  19.162  0.00  0.00    +0.000 A 
ATOM      6  C   UNL     1       1.654   9.819  18.787  0.00  0.00    +0.000 A 
ATOM      7  C   UNL     1       1.237  10.812  19.696  0.00  0.00    +0.000 A 
ATOM      8  C   UNL     1       0.896  10.392  20.993  0.00  0.00    +0.000 A 
ATOM      9  C   UNL     1       0.974   9.049  21.372  0.00  0.00    +0.000 A 
ATOM     10  C   UNL     1       1.400   8.082  20.462  0.00  0.00    +0.000 A 
ATOM     11 CL   UNL     1       1.487   6.456  21.037  0.00  0.00    +0.000 Cl
BRANCH   7  12
ATOM     12  C   UNL     1       1.158  12.238  19.304  0.00  0.00    +0.000 A 
ATOM     13  C   UNL     1       2.243  12.919  18.752  0.00  0.00    +0.000 A 
ATOM     14  C   UNL     1       2.122  14.272  18.465  0.00  0.00    +0.000 A 
ATOM     15  C   UNL     1       0.920  14.910  18.732  0.00  0.00    +0.000 A 
ATOM     16  C   UNL     1      -0.131  14.167  19.249  0.00  0.00    +0.000 A 
ATOM     17  N   UNL     1      -0.031  12.854  19.538  0.00  0.00    +0.000 NA
BRANCH  16  18
ATOM     18  N   UNL     1      -1.333  14.796  19.560  0.00  0.00    +0.000 N 
ATOM     19  H   UNL     1      -1.207  15.602  20.161  0.00  0.00    +0.000 HD
ATOM     20  H   UNL     1      -1.807  15.027  18.693  0.00  0.00    +0.000 HD
ENDBRANCH  16  18
ENDBRANCH   7  12
ENDBRANCH   2   5
BRANCH   1  23
ATOM     21  C   UNL     1       5.424   5.025  15.964  0.00  0.00    +0.000 A 
ATOM     22  C   UNL     1       5.005   6.311  16.402  0.00  0.00    +0.000 A 
ATOM     23  C   UNL     1       4.138   6.073  17.439  0.00  0.00    +0.000 A 
ATOM     24  N   UNL     1       4.022   4.696  17.549  0.00  0.00    +0.000 N 
ATOM     25  N   UNL     1       4.861   4.047  16.704  0.00  0.00    +0.000 NA
BRANCH  24  26
ATOM     26  C   UNL     1       3.145   3.988  18.413  0.00  0.00    +0.000 A 
ATOM     27  C   UNL     1       3.531   3.676  19.726  0.00  0.00    +0.000 A 
ATOM     28  C   UNL     1       2.694   2.914  20.541  0.00  0.00    +0.000 A 
ATOM     29  C   UNL     1       1.470   2.466  20.049  0.00  0.00    +0.000 A 
ATOM     30  C   UNL     1       1.063   2.813  18.760  0.00  0.00    +0.000 A 
ATOM     31  C   UNL     1       1.889   3.590  17.945  0.00  0.00    +0.000 A 
ENDBRANCH  24  26
BRANCH  21  33
ATOM     32  N   UNL     1       7.541   5.451  14.944  0.00  0.00    +0.000 N 
ATOM     33  C   UNL     1       6.374   4.743  14.879  0.00  0.00    +0.000 C 
ATOM     34  O   UNL     1       6.155   3.933  13.990  0.00  0.00    +0.000 OA
ATOM     35  H   UNL     1       8.262   5.286  14.256  0.00  0.00    +0.000 HD
ATOM     36  H   UNL     1       7.707   6.080  15.722  0.00  0.00    +0.000 HD
ENDBRANCH  21  33
ENDBRANCH   1  23
TORSDOF 6
ENDMDL
MODEL 6
REMARK VINA RESULT:      -8.6      2.314      3.937
REMARK  Name = 
REMARK  6 active torsions:
REMARK  status: ('A' for Active; 'I' for Inactive)
REMARK    1  A    between atoms: C_2  and  C_4
REMARK    2  A    between atoms: C_6  and  N_7
REMARK    3  A    between atoms: C_8  and  C_10
REMARK    4  A    between atoms: C_12  and  C_13
REMARK    5  A    between atoms: C_17  and  N_18
REMARK    6  A    between atoms: N_24  and  C_25
REMARK                            x       y       z     vdW  Elec       q    Type
REMARK                         _______ _______ _______ _____ _____    ______ ____
ROOT
ATOM      1  N   UNL     1       3.970   6.513  17.998  0.00  0.00    +0.000 N 
ATOM      2  C   UNL     1       2.546   6.582  18.118  0.00  0.00    +0.000 C 
ATOM      3  O   UNL     1       1.843   5.860  17.434  0.00  0.00    +0.000 OA
ATOM      4  H   UNL     1       4.562   6.970  18.683  0.00  0.00    +0.000 HD
ENDROOT
BRANCH   2   5
ATOM      5  C   UNL     1       1.990   7.438  19.198  0.00  0.00    +0.000 A 
ATOM      6  C   UNL     1       1.664   8.773  18.868  0.00  0.00    +0.000 A 
ATOM      7  C   UNL     1       1.182   9.678  19.834  0.00  0.00    +0.000 A 
ATOM      8  C   UNL     1       1.016   9.193  21.142  0.00  0.00    +0.000 A 
ATOM      9  C   UNL     1       1.324   7.872  21.478  0.00  0.00    +0.000 A 
ATOM     10  C   UNL     1       1.812   6.993  20.511  0.00  0.00    +0.000 A 
ATOM     11 CL   UNL     1       2.187   5.391  21.032  0.00  0.00    +0.000 Cl
BRANCH   7  12
ATOM     12  C   UNL     1       0.860  11.082  19.488  0.00  0.00    +0.000 A 
ATOM     13  C   UNL     1       1.477  12.164  20.118  0.00  0.00    +0.000 A 
ATOM     14  C   UNL     1       1.082  13.455  19.792  0.00  0.00    +0.000 A 
ATOM     15  C   UNL     1       0.088  13.634  18.843  0.00  0.00    +0.000 A 
ATOM     16  C   UNL     1      -0.460  12.516  18.229  0.00  0.00    +0.000 A 
ATOM     17  N   UNL     1      -0.094  11.256  18.535  0.00  0.00    +0.000 NA
BRANCH  16  18
ATOM     18  N   UNL     1      -1.487  12.673  17.302  0.00  0.00    +0.000 N 
ATOM     19  H   UNL     1      -2.362  12.276  17.620  0.00  0.00    +0.000 HD
ATOM     20  H   UNL     1      -1.564  13.659  17.074  0.00  0.00    +0.000 HD
ENDBRANCH  16  18
ENDBRANCH   7  12
ENDBRANCH   2   5
BRANCH   1  23
ATOM     21  C   UNL     1       5.900   4.903  15.454  0.00  0.00    +0.000 A 
ATOM     22  C   UNL     1       5.307   6.088  15.967  0.00  0.00    +0.000 A 
ATOM     23  C   UNL     1       4.590   5.685  17.066  0.00  0.00    +0.000 A 
ATOM     24  N   UNL     1       4.723   4.306  17.140  0.00  0.00    +0.000 N 
ATOM     25  N   UNL     1       5.582   3.829  16.206  0.00  0.00    +0.000 NA
BRANCH  24  26
ATOM     26  C   UNL     1       4.062   3.441  18.051  0.00  0.00    +0.000 A 
ATOM     27  C   UNL     1       4.580   3.225  19.338  0.00  0.00    +0.000 A 
ATOM     28  C   UNL     1       3.966   2.315  20.198  0.00  0.00    +0.000 A 
ATOM     29  C   UNL     1       2.832   1.623  19.778  0.00  0.00    +0.000 A 
ATOM     30  C   UNL     1       2.288   1.869  18.517  0.00  0.00    +0.000 A 
ATOM     31  C   UNL     1       2.888   2.791  17.657  0.00  0.00    +0.000 A 
ENDBRANCH  24  26
BRANCH  21  33
ATOM     32  N   UNL     1       6.466   3.811  13.406  0.00  0.00    +0.000 N 
ATOM     33  C   UNL     1       6.784   4.810  14.283  0.00  0.00    +0.000 C 
ATOM     34  O   UNL     1       7.724   5.567  14.091  0.00  0.00    +0.000 OA
ATOM     35  H   UNL     1       7.002   3.705  12.557  0.00  0.00    +0.000 HD
ATOM     36  H   UNL     1       5.651   3.232  13.575  0.00  0.00    +0.000 HD
ENDBRANCH  21  33
ENDBRANCH   1  23
TORSDOF 6
ENDMDL
MODEL 7
REMARK VINA RESULT:      -8.6      2.440      4.705
REMARK  Name = 
REMARK  6 active torsions:
REMARK  status: ('A' for Active; 'I' for Inactive)
REMARK    1  A    between atoms: C_2  and  C_4
REMARK    2  A    between atoms: C_6  and  N_7
REMARK    3  A    between atoms: C_8  and  C_10
REMARK    4  A    between atoms: C_12  and  C_13
REMARK    5  A    between atoms: C_17  and  N_18
REMARK    6  A    between atoms: N_24  and  C_25
REMARK                            x       y       z     vdW  Elec       q    Type
REMARK                         _______ _______ _______ _____ _____    ______ ____
ROOT
ATOM      1  N   UNL     1       3.587   7.017  18.331  0.00  0.00    +0.000 N 
ATOM      2  C   UNL     1       2.258   7.523  18.174  0.00  0.00    +0.000 C 
ATOM      3  O   UNL     1       1.546   7.095  17.284  0.00  0.00    +0.000 OA
ATOM      4  H   UNL     1       4.118   7.229  19.170  0.00  0.00    +0.000 HD
ENDROOT
BRANCH   2   5
ATOM      5  C   UNL     1       1.751   8.452  19.217  0.00  0.00    +0.000 A 
ATOM      6  C   UNL     1       1.661   9.822  18.881  0.00  0.00    +0.000 A 
ATOM      7  C   UNL     1       1.243  10.788  19.818  0.00  0.00    +0.000 A 
ATOM      8  C   UNL     1       0.897  10.332  21.101  0.00  0.00    +0.000 A 
ATOM      9  C   UNL     1       0.971   8.978  21.441  0.00  0.00    +0.000 A 
ATOM     10  C   UNL     1       1.398   8.037  20.504  0.00  0.00    +0.000 A 
ATOM     11 CL   UNL     1       1.479   6.395  21.032  0.00  0.00    +0.000 Cl
BRANCH   7  12
ATOM     12  C   UNL     1       1.168  12.225  19.467  0.00  0.00    +0.000 A 
ATOM     13  C   UNL     1       0.062  13.013  19.790  0.00  0.00    +0.000 A 
ATOM     14  C   UNL     1       0.027  14.338  19.376  0.00  0.00    +0.000 A 
ATOM     15  C   UNL     1       1.098  14.845  18.656  0.00  0.00    +0.000 A 
ATOM     16  C   UNL     1       2.183  14.018  18.399  0.00  0.00    +0.000 A 
ATOM     17  N   UNL     1       2.233  12.729  18.788  0.00  0.00    +0.000 NA
BRANCH  16  18
ATOM     18  N   UNL     1       3.250  14.497  17.644  0.00  0.00    +0.000 N 
ATOM     19  H   UNL     1       3.610  15.377  17.993  0.00  0.00    +0.000 HD
ATOM     20  H   UNL     1       3.961  13.774  17.601  0.00  0.00    +0.000 HD
ENDBRANCH  16  18
ENDBRANCH   7  12
ENDBRANCH   2   5
BRANCH   1  23
ATOM     21  C   UNL     1       5.412   5.078  15.944  0.00  0.00    +0.000 A 
ATOM     22  C   UNL     1       4.992   6.352  16.414  0.00  0.00    +0.000 A 
ATOM     23  C   UNL     1       4.129   6.087  17.448  0.00  0.00    +0.000 A 
ATOM     24  N   UNL     1       4.016   4.707  17.525  0.00  0.00    +0.000 N 
ATOM     25  N   UNL     1       4.853   4.081  16.661  0.00  0.00    +0.000 NA
BRANCH  24  26
ATOM     26  C   UNL     1       3.144   3.976  18.374  0.00  0.00    +0.000 A 
ATOM     27  C   UNL     1       3.551   3.596  19.663  0.00  0.00    +0.000 A 
ATOM     28  C   UNL     1       2.717   2.813  20.459  0.00  0.00    +0.000 A 
ATOM     29  C   UNL     1       1.473   2.413  19.976  0.00  0.00    +0.000 A 
ATOM     30  C   UNL     1       1.046   2.828  18.713  0.00  0.00    +0.000 A 
ATOM     31  C   UNL     1       1.870   3.625  17.917  0.00  0.00    +0.000 A 
ENDBRANCH  24  26
BRANCH  21  33
ATOM     32  N   UNL     1       7.560   5.464  14.973  0.00  0.00    +0.000 N 
ATOM     33  C   UNL     1       6.359   4.824  14.848  0.00  0.00    +0.000 C 
ATOM     34  O   UNL     1       6.108   4.092  13.902  0.00  0.00    +0.000 OA
ATOM     35  H   UNL     1       8.278   5.310  14.281  0.00  0.00    +0.000 HD
ATOM     36  H   UNL     1       7.749   6.026  15.795  0.00  0.00    +0.000 HD
ENDBRANCH  21  33
ENDBRANCH   1  23
TORSDOF 6
ENDMDL
MODEL 8
REMARK VINA RESULT:      -8.6      1.066      1.356
REMARK  Name = 
REMARK  6 active torsions:
REMARK  status: ('A' for Active; 'I' for Inactive)
REMARK    1  A    between atoms: C_2  and  C_4
REMARK    2  A    between atoms: C_6  and  N_7
REMARK    3  A    between atoms: C_8  and  C_10
REMARK    4  A    between atoms: C_12  and  C_13
REMARK    5  A    between atoms: C_17  and  N_18
REMARK    6  A    between atoms: N_24  and  C_25
REMARK                            x       y       z     vdW  Elec       q    Type
REMARK                         _______ _______ _______ _____ _____    ______ ____
ROOT
ATOM      1  N   UNL     1       4.296   5.156  16.803  0.00  0.00    +0.000 N 
ATOM      2  C   UNL     1       4.211   4.412  18.022  0.00  0.00    +0.000 C 
ATOM      3  O   UNL     1       5.045   3.561  18.274  0.00  0.00    +0.000 OA
ATOM      4  H   UNL     1       3.722   5.983  16.670  0.00  0.00    +0.000 HD
ENDROOT
BRANCH   2   5
ATOM      5  C   UNL     1       3.180   4.827  19.008  0.00  0.00    +0.000 A 
ATOM      6  C   UNL     1       2.784   6.183  19.005  0.00  0.00    +0.000 A 
ATOM      7  C   UNL     1       1.853   6.686  19.936  0.00  0.00    +0.000 A 
ATOM      8  C   UNL     1       1.314   5.775  20.860  0.00  0.00    +0.000 A 
ATOM      9  C   UNL     1       1.689   4.429  20.865  0.00  0.00    +0.000 A 
ATOM     10  C   UNL     1       2.621   3.951  19.944  0.00  0.00    +0.000 A 
ATOM     11 CL   UNL     1       3.036   2.279  20.050  0.00  0.00    +0.000 Cl
BRANCH   7  12
ATOM     12  C   UNL     1       1.455   8.112  19.941  0.00  0.00    +0.000 A 
ATOM     13  C   UNL     1       1.635   8.938  18.831  0.00  0.00    +0.000 A 
ATOM     14  C   UNL     1       1.299  10.283  18.923  0.00  0.00    +0.000 A 
ATOM     15  C   UNL     1       0.787  10.767  20.117  0.00  0.00    +0.000 A 
ATOM     16  C   UNL     1       0.601   9.885  21.172  0.00  0.00    +0.000 A 
ATOM     17  N   UNL     1       0.925   8.578  21.103  0.00  0.00    +0.000 NA
BRANCH  16  18
ATOM     18  N   UNL     1       0.126  10.358  22.391  0.00  0.00    +0.000 N 
ATOM     19  H   UNL     1       0.637  11.168  22.720  0.00  0.00    +0.000 HD
ATOM     20  H   UNL     1      -0.869  10.535  22.300  0.00  0.00    +0.000 HD
ENDBRANCH  16  18
ENDBRANCH   7  12
ENDBRANCH   2   5
BRANCH   1  23
ATOM     21  C   UNL     1       6.316   4.379  13.956  0.00  0.00    +0.000 A 
ATOM     22  C   UNL     1       5.098   4.210  14.669  0.00  0.00    +0.000 A 
ATOM     23  C   UNL     1       5.273   4.893  15.848  0.00  0.00    +0.000 A 
ATOM     24  N   UNL     1       6.570   5.384  15.830  0.00  0.00    +0.000 N 
ATOM     25  N   UNL     1       7.188   5.140  14.649  0.00  0.00    +0.000 NA
BRANCH  24  26
ATOM     26  C   UNL     1       7.232   6.058  16.889  0.00  0.00    +0.000 A 
ATOM     27  C   UNL     1       7.634   5.364  18.041  0.00  0.00    +0.000 A 
ATOM     28  C   UNL     1       8.214   6.050  19.107  0.00  0.00    +0.000 A 
ATOM     29  C   UNL     1       8.400   7.428  19.024  0.00  0.00    +0.000 A 
ATOM     30  C   UNL     1       8.045   8.115  17.863  0.00  0.00    +0.000 A 
ATOM     31  C   UNL     1       7.478   7.431  16.785  0.00  0.00    +0.000 A 
ENDBRANCH  24  26
BRANCH  21  33
ATOM     32  N   UNL     1       7.551   4.565  11.920  0.00  0.00    +0.000 N 
ATOM     33  C   UNL     1       6.622   3.847  12.620  0.00  0.00    +0.000 C 
ATOM     34  O   UNL     1       6.104   2.839  12.165  0.00  0.00    +0.000 OA
ATOM     35  H   UNL     1       7.844   4.244  11.009  0.00  0.00    +0.000 HD
ATOM     36  H   UNL     1       7.994   5.370  12.348  0.00  0.00    +0.000 HD
ENDBRANCH  21  33
ENDBRANCH   1  23
TORSDOF 6
ENDMDL
MODEL 9
REMARK VINA RESULT:      -8.5      3.564      5.842
REMARK  Name = 
REMARK  6 active torsions:
REMARK  status: ('A' for Active; 'I' for Inactive)
REMARK    1  A    between atoms: C_2  and  C_4
REMARK    2  A    between atoms: C_6  and  N_7
REMARK    3  A    between atoms: C_8  and  C_10
REMARK    4  A    between atoms: C_12  and  C_13
REMARK    5  A    between atoms: C_17  and  N_18
REMARK    6  A    between atoms: N_24  and  C_25
REMARK                            x       y       z     vdW  Elec       q    Type
REMARK                         _______ _______ _______ _____ _____    ______ ____
ROOT
ATOM      1  N   UNL     1       2.456   7.299  18.745  0.00  0.00    +0.000 N 
ATOM      2  C   UNL     1       2.073   8.570  18.211  0.00  0.00    +0.000 C 
ATOM      3  O   UNL     1       2.629   9.006  17.219  0.00  0.00    +0.000 OA
ATOM      4  H   UNL     1       1.882   6.849  19.451  0.00  0.00    +0.000 HD
ENDROOT
BRANCH   2   5
ATOM      5  C   UNL     1       0.891   9.239  18.815  0.00  0.00    +0.000 A 
ATOM      6  C   UNL     1      -0.163   9.606  17.949  0.00  0.00    +0.000 A 
ATOM      7  C   UNL     1      -1.301  10.292  18.416  0.00  0.00    +0.000 A 
ATOM      8  C   UNL     1      -1.358  10.581  19.790  0.00  0.00    +0.000 A 
ATOM      9  C   UNL     1      -0.326  10.214  20.659  0.00  0.00    +0.000 A 
ATOM     10  C   UNL     1       0.799   9.545  20.176  0.00  0.00    +0.000 A 
ATOM     11 CL   UNL     1       2.028   9.159  21.325  0.00  0.00    +0.000 Cl
BRANCH   7  12
ATOM     12  C   UNL     1      -2.396  10.691  17.502  0.00  0.00    +0.000 A 
ATOM     13  C   UNL     1      -3.510  11.407  17.943  0.00  0.00    +0.000 A 
ATOM     14  C   UNL     1      -4.531  11.694  17.047  0.00  0.00    +0.000 A 
ATOM     15  C   UNL     1      -4.413  11.265  15.733  0.00  0.00    +0.000 A 
ATOM     16  C   UNL     1      -3.263  10.588  15.351  0.00  0.00    +0.000 A 
ATOM     17  N   UNL     1      -2.264  10.297  16.208  0.00  0.00    +0.000 NA
BRANCH  16  18
ATOM     18  N   UNL     1      -3.142  10.116  14.048  0.00  0.00    +0.000 N 
ATOM     19  H   UNL     1      -3.877  10.457  13.440  0.00  0.00    +0.000 HD
ATOM     20  H   UNL     1      -2.215  10.348  13.708  0.00  0.00    +0.000 HD
ENDBRANCH  16  18
ENDBRANCH   7  12
ENDBRANCH   2   5
BRANCH   1  23
ATOM     21  C   UNL     1       5.461   5.951  17.352  0.00  0.00    +0.000 A 
ATOM     22  C   UNL     1       4.587   7.059  17.523  0.00  0.00    +0.000 A 
ATOM     23  C   UNL     1       3.503   6.560  18.202  0.00  0.00    +0.000 A 
ATOM     24  N   UNL     1       3.728   5.200  18.360  0.00  0.00    +0.000 N 
ATOM     25  N   UNL     1       4.954   4.834  17.912  0.00  0.00    +0.000 NA
BRANCH  24  26
ATOM     26  C   UNL     1       2.824   4.252  18.907  0.00  0.00    +0.000 A 
ATOM     27  C   UNL     1       1.891   3.596  18.088  0.00  0.00    +0.000 A 
ATOM     28  C   UNL     1       0.958   2.724  18.648  0.00  0.00    +0.000 A 
ATOM     29  C   UNL     1       0.955   2.502  20.022  0.00  0.00    +0.000 A 
ATOM     30  C   UNL     1       1.910   3.117  20.834  0.00  0.00    +0.000 A 
ATOM     31  C   UNL     1       2.858   3.978  20.278  0.00  0.00    +0.000 A 
ENDBRANCH  24  26
BRANCH  21  33
ATOM     32  N   UNL     1       7.051   4.874  15.931  0.00  0.00    +0.000 N 
ATOM     33  C   UNL     1       6.775   5.975  16.693  0.00  0.00    +0.000 C 
ATOM     34  O   UNL     1       7.562   6.903  16.801  0.00  0.00    +0.000 OA
ATOM     35  H   UNL     1       7.918   4.832  15.416  0.00  0.00    +0.000 HD
ATOM     36  H   UNL     1       6.355   4.145  15.828  0.00  0.00    +0.000 HD
ENDBRANCH  21  33
ENDBRANCH   1  23
TORSDOF 6
ENDMDL
