MODEL 1
REMARK VINA RESULT:      -9.1      0.000      0.000
REMARK  Name = 
REMARK  4 active torsions:
REMARK  status: ('A' for Active; 'I' for Inactive)
REMARK    1  A    between atoms: C_1  and  C_2
REMARK    2  A    between atoms: C_7  and  N_8
REMARK    3  A    between atoms: C_9  and  C_11
REMARK    4  A    between atoms: C_15  and  N_16
REMARK                            x       y       z     vdW  Elec       q    Type
REMARK                         _______ _______ _______ _____ _____    ______ ____
ROOT
ATOM      1  C   UNL     1       5.708   4.931  16.914  0.00  0.00    +0.000 A 
ATOM      2  C   UNL     1       5.235   4.170  15.910  0.00  0.00    +0.000 A 
ATOM      3  C   UNL     1       5.864   4.153  14.605  0.00  0.00    +0.000 A 
ATOM      4  C   UNL     1       5.407   3.318  13.581  0.00  0.00    +0.000 A 
ATOM      5  C   UNL     1       6.079   3.307  12.350  0.00  0.00    +0.000 A 
ATOM      6  C   UNL     1       7.194   4.133  12.138  0.00  0.00    +0.000 A 
ATOM      7  C   UNL     1       7.640   4.971  13.167  0.00  0.00    +0.000 A 
ATOM      8  C   UNL     1       6.972   4.965  14.390  0.00  0.00    +0.000 A 
ATOM      9  O   UNL     1       7.452   5.796  15.423  0.00  0.00    +0.000 OA
ATOM     10  C   UNL     1       6.870   5.808  16.692  0.00  0.00    +0.000 A 
ATOM     11  O   UNL     1       7.304   6.524  17.591  0.00  0.00    +0.000 OA
ENDROOT
BRANCH   1  13
ATOM     12  N   UNL     1       3.934   3.890  18.287  0.00  0.00    +0.000 N 
ATOM     13  C   UNL     1       4.991   4.782  18.224  0.00  0.00    +0.000 C 
ATOM     14  O   UNL     1       5.384   5.475  19.163  0.00  0.00    +0.000 OA
ATOM     15  H   UNL     1       3.731   3.343  17.451  0.00  0.00    +0.000 HD
BRANCH  12  22
ATOM     16  C   UNL     1       4.701   1.891  20.354  0.00  0.00    +0.000 C 
ATOM     17  C   UNL     1       3.444   2.718  20.407  0.00  0.00    +0.000 A 
ATOM     18  C   UNL     1       2.591   2.522  21.518  0.00  0.00    +0.000 A 
ATOM     19  C   UNL     1       1.406   3.240  21.660  0.00  0.00    +0.000 A 
ATOM     20  C   UNL     1       1.056   4.166  20.695  0.00  0.00    +0.000 A 
ATOM     21  C   UNL     1       1.889   4.372  19.595  0.00  0.00    +0.000 A 
ATOM     22  C   UNL     1       3.095   3.668  19.421  0.00  0.00    +0.000 A 
ENDBRANCH  12  22
ENDBRANCH   1  13
BRANCH   5  23
ATOM     23  N   UNL     1       5.617   2.410  11.282  0.00  0.00    +0.000 N 
ATOM     24  O   UNL     1       6.418   1.568  10.851  0.00  0.00    +0.000 OA
ATOM     25  O   UNL     1       4.456   2.552  10.873  0.00  0.00    +0.000 OA
ENDBRANCH   5  23
TORSDOF 3
ENDMDL
MODEL 2
REMARK VINA RESULT:      -9.0      0.616      1.449
REMARK  Name = 
REMARK  4 active torsions:
REMARK  status: ('A' for Active; 'I' for Inactive)
REMARK    1  A    between atoms: C_1  and  C_2
REMARK    2  A    between atoms: C_7  and  N_8
REMARK    3  A    between atoms: C_9  and  C_11
REMARK    4  A    between atoms: C_15  and  N_16
REMARK                            x       y       z     vdW  Elec       q    Type
REMARK                         _______ _______ _______ _____ _____    ______ ____
ROOT
ATOM      1  C   UNL     1       6.072   4.788  16.927  0.00  0.00    +0.000 A 
ATOM      2  C   UNL     1       5.594   3.993  15.952  0.00  0.00    +0.000 A 
ATOM      3  C   UNL     1       6.112   4.051  14.600  0.00  0.00    +0.000 A 
ATOM      4  C   UNL     1       5.656   3.184  13.602  0.00  0.00    +0.000 A 
ATOM      5  C   UNL     1       6.223   3.251  12.321  0.00  0.00    +0.000 A 
ATOM      6  C   UNL     1       7.230   4.186  12.034  0.00  0.00    +0.000 A 
ATOM      7  C   UNL     1       7.675   5.054  13.037  0.00  0.00    +0.000 A 
ATOM      8  C   UNL     1       7.113   4.971  14.310  0.00  0.00    +0.000 A 
ATOM      9  O   UNL     1       7.593   5.835  15.315  0.00  0.00    +0.000 OA
ATOM     10  C   UNL     1       7.119   5.778  16.627  0.00  0.00    +0.000 A 
ATOM     11  O   UNL     1       7.554   6.525  17.500  0.00  0.00    +0.000 OA
ENDROOT
BRANCH   1  13
ATOM     12  N   UNL     1       4.193   4.061  18.361  0.00  0.00    +0.000 N 
ATOM     13  C   UNL     1       5.483   4.558  18.288  0.00  0.00    +0.000 C 
ATOM     14  O   UNL     1       6.185   4.836  19.260  0.00  0.00    +0.000 OA
ATOM     15  H   UNL     1       3.728   3.830  17.483  0.00  0.00    +0.000 HD
BRANCH  12  22
ATOM     16  C   UNL     1       2.478   6.224  19.472  0.00  0.00    +0.000 C 
ATOM     17  C   UNL     1       2.633   4.865  20.100  0.00  0.00    +0.000 A 
ATOM     18  C   UNL     1       1.906   4.619  21.289  0.00  0.00    +0.000 A 
ATOM     19  C   UNL     1       1.980   3.393  21.945  0.00  0.00    +0.000 A 
ATOM     20  C   UNL     1       2.780   2.393  21.424  0.00  0.00    +0.000 A 
ATOM     21  C   UNL     1       3.501   2.621  20.251  0.00  0.00    +0.000 A 
ATOM     22  C   UNL     1       3.446   3.845  19.559  0.00  0.00    +0.000 A 
ENDBRANCH  12  22
ENDBRANCH   1  13
BRANCH   5  23
ATOM     23  N   UNL     1       5.764   2.323  11.278  0.00  0.00    +0.000 N 
ATOM     24  O   UNL     1       6.578   1.492  10.848  0.00  0.00    +0.000 OA
ATOM     25  O   UNL     1       4.593   2.428  10.888  0.00  0.00    +0.000 OA
ENDBRANCH   5  23
TORSDOF 3
ENDMDL
MODEL 3
REMARK VINA RESULT:      -8.8      0.510      1.551
REMARK  Name = 
REMARK  4 active torsions:
REMARK  status: ('A' for Active; 'I' for Inactive)
REMARK    1  A    between atoms: C_1  and  C_2
REMARK    2  A    between atoms: C_7  and  N_8
REMARK    3  A    between atoms: C_9  and  C_11
REMARK    4  A    between atoms: C_15  and  N_16
REMARK                            x       y       z     vdW  Elec       q    Type
REMARK                         _______ _______ _______ _____ _____    ______ ____
ROOT
ATOM      1  C   UNL     1       5.563   4.967  16.907  0.00  0.00    +0.000 A 
ATOM      2  C   UNL     1       5.195   4.174  15.884  0.00  0.00    +0.000 A 
ATOM      3  C   UNL     1       5.914   4.170  14.625  0.00  0.00    +0.000 A 
ATOM      4  C   UNL     1       5.567   3.303  13.585  0.00  0.00    +0.000 A 
ATOM      5  C   UNL     1       6.324   3.307  12.404  0.00  0.00    +0.000 A 
ATOM      6  C   UNL     1       7.414   4.181  12.258  0.00  0.00    +0.000 A 
ATOM      7  C   UNL     1       7.749   5.049  13.303  0.00  0.00    +0.000 A 
ATOM      8  C   UNL     1       6.998   5.028  14.476  0.00  0.00    +0.000 A 
ATOM      9  O   UNL     1       7.367   5.891  15.527  0.00  0.00    +0.000 OA
ATOM     10  C   UNL     1       6.698   5.893  16.753  0.00  0.00    +0.000 A 
ATOM     11  O   UNL     1       7.036   6.638  17.669  0.00  0.00    +0.000 OA
ENDROOT
BRANCH   1  13
ATOM     12  N   UNL     1       3.983   3.666  18.293  0.00  0.00    +0.000 N 
ATOM     13  C   UNL     1       4.763   4.803  18.165  0.00  0.00    +0.000 C 
ATOM     14  O   UNL     1       4.843   5.699  19.005  0.00  0.00    +0.000 OA
ATOM     15  H   UNL     1       4.032   2.975  17.545  0.00  0.00    +0.000 HD
BRANCH  12  22
ATOM     16  C   UNL     1       1.071   4.240  18.072  0.00  0.00    +0.000 C 
ATOM     17  C   UNL     1       1.722   3.645  19.291  0.00  0.00    +0.000 A 
ATOM     18  C   UNL     1       0.880   3.342  20.388  0.00  0.00    +0.000 A 
ATOM     19  C   UNL     1       1.385   2.788  21.561  0.00  0.00    +0.000 A 
ATOM     20  C   UNL     1       2.739   2.526  21.657  0.00  0.00    +0.000 A 
ATOM     21  C   UNL     1       3.582   2.817  20.583  0.00  0.00    +0.000 A 
ATOM     22  C   UNL     1       3.105   3.373  19.382  0.00  0.00    +0.000 A 
ENDBRANCH  12  22
ENDBRANCH   1  13
BRANCH   5  23
ATOM     23  N   UNL     1       5.978   2.379  11.320  0.00  0.00    +0.000 N 
ATOM     24  O   UNL     1       4.797   2.349  10.943  0.00  0.00    +0.000 OA
ATOM     25  O   UNL     1       6.885   1.679  10.849  0.00  0.00    +0.000 OA
ENDBRANCH   5  23
TORSDOF 3
ENDMDL
MODEL 4
REMARK VINA RESULT:      -8.6      4.932      6.452
REMARK  Name = 
REMARK  4 active torsions:
REMARK  status: ('A' for Active; 'I' for Inactive)
REMARK    1  A    between atoms: C_1  and  C_2
REMARK    2  A    between atoms: C_7  and  N_8
REMARK    3  A    between atoms: C_9  and  C_11
REMARK    4  A    between atoms: C_15  and  N_16
REMARK                            x       y       z     vdW  Elec       q    Type
REMARK                         _______ _______ _______ _____ _____    ______ ____
ROOT
ATOM      1  C   UNL     1       2.620   7.825  18.363  0.00  0.00    +0.000 A 
ATOM      2  C   UNL     1       3.452   7.634  17.322  0.00  0.00    +0.000 A 
ATOM      3  C   UNL     1       4.299   6.461  17.228  0.00  0.00    +0.000 A 
ATOM      4  C   UNL     1       5.117   6.235  16.118  0.00  0.00    +0.000 A 
ATOM      5  C   UNL     1       5.883   5.062  16.056  0.00  0.00    +0.000 A 
ATOM      6  C   UNL     1       5.842   4.126  17.102  0.00  0.00    +0.000 A 
ATOM      7  C   UNL     1       5.024   4.365  18.212  0.00  0.00    +0.000 A 
ATOM      8  C   UNL     1       4.258   5.528  18.258  0.00  0.00    +0.000 A 
ATOM      9  O   UNL     1       3.420   5.738  19.372  0.00  0.00    +0.000 OA
ATOM     10  C   UNL     1       2.583   6.852  19.467  0.00  0.00    +0.000 A 
ATOM     11  O   UNL     1       1.845   7.019  20.434  0.00  0.00    +0.000 OA
ENDROOT
BRANCH   1  13
ATOM     12  N   UNL     1       0.614   9.093  19.058  0.00  0.00    +0.000 N 
ATOM     13  C   UNL     1       1.758   9.050  18.278  0.00  0.00    +0.000 C 
ATOM     14  O   UNL     1       2.118   9.940  17.507  0.00  0.00    +0.000 OA
ATOM     15  H   UNL     1       0.445   8.310  19.688  0.00  0.00    +0.000 HD
BRANCH  12  22
ATOM     16  C   UNL     1       0.454  10.997  21.339  0.00  0.00    +0.000 C 
ATOM     17  C   UNL     1      -0.448  11.046  20.136  0.00  0.00    +0.000 A 
ATOM     18  C   UNL     1      -1.423  12.071  20.104  0.00  0.00    +0.000 A 
ATOM     19  C   UNL     1      -2.304  12.204  19.034  0.00  0.00    +0.000 A 
ATOM     20  C   UNL     1      -2.225  11.315  17.979  0.00  0.00    +0.000 A 
ATOM     21  C   UNL     1      -1.267  10.300  17.995  0.00  0.00    +0.000 A 
ATOM     22  C   UNL     1      -0.359  10.139  19.057  0.00  0.00    +0.000 A 
ENDBRANCH  12  22
ENDBRANCH   1  13
BRANCH   5  23
ATOM     23  N   UNL     1       6.725   4.809  14.878  0.00  0.00    +0.000 N 
ATOM     24  O   UNL     1       7.744   5.501  14.739  0.00  0.00    +0.000 OA
ATOM     25  O   UNL     1       6.364   3.921  14.093  0.00  0.00    +0.000 OA
ENDBRANCH   5  23
TORSDOF 3
ENDMDL
MODEL 5
REMARK VINA RESULT:      -8.6      5.042      6.590
REMARK  Name = 
REMARK  4 active torsions:
REMARK  status: ('A' for Active; 'I' for Inactive)
REMARK    1  A    between atoms: C_1  and  C_2
REMARK    2  A    between atoms: C_7  and  N_8
REMARK    3  A    between atoms: C_9  and  C_11
REMARK    4  A    between atoms: C_15  and  N_16
REMARK                            x       y       z     vdW  Elec       q    Type
REMARK                         _______ _______ _______ _____ _____    ______ ____
ROOT
ATOM      1  C   UNL     1       2.598   7.913  18.437  0.00  0.00    +0.000 A 
ATOM      2  C   UNL     1       3.443   7.734  17.404  0.00  0.00    +0.000 A 
ATOM      3  C   UNL     1       4.186   6.501  17.233  0.00  0.00    +0.000 A 
ATOM      4  C   UNL     1       5.018   6.293  16.128  0.00  0.00    +0.000 A 
ATOM      5  C   UNL     1       5.679   5.065  15.987  0.00  0.00    +0.000 A 
ATOM      6  C   UNL     1       5.522   4.054  16.948  0.00  0.00    +0.000 A 
ATOM      7  C   UNL     1       4.692   4.274  18.054  0.00  0.00    +0.000 A 
ATOM      8  C   UNL     1       4.030   5.494  18.179  0.00  0.00    +0.000 A 
ATOM      9  O   UNL     1       3.178   5.687  19.285  0.00  0.00    +0.000 OA
ATOM     10  C   UNL     1       2.440   6.860  19.453  0.00  0.00    +0.000 A 
ATOM     11  O   UNL     1       1.688   7.013  20.412  0.00  0.00    +0.000 OA
ENDROOT
BRANCH   1  13
ATOM     12  N   UNL     1       0.806   9.363  19.330  0.00  0.00    +0.000 N 
ATOM     13  C   UNL     1       1.850   9.214  18.433  0.00  0.00    +0.000 C 
ATOM     14  O   UNL     1       2.207  10.067  17.621  0.00  0.00    +0.000 OA
ATOM     15  H   UNL     1       0.632   8.597  19.981  0.00  0.00    +0.000 HD
BRANCH  12  22
ATOM     16  C   UNL     1      -1.420   9.718  17.386  0.00  0.00    +0.000 C 
ATOM     17  C   UNL     1      -1.117  10.678  18.505  0.00  0.00    +0.000 A 
ATOM     18  C   UNL     1      -1.956  11.811  18.626  0.00  0.00    +0.000 A 
ATOM     19  C   UNL     1      -1.760  12.757  19.628  0.00  0.00    +0.000 A 
ATOM     20  C   UNL     1      -0.723  12.587  20.526  0.00  0.00    +0.000 A 
ATOM     21  C   UNL     1       0.111  11.473  20.421  0.00  0.00    +0.000 A 
ATOM     22  C   UNL     1      -0.060  10.496  19.424  0.00  0.00    +0.000 A 
ENDBRANCH  12  22
ENDBRANCH   1  13
BRANCH   5  23
ATOM     23  N   UNL     1       6.533   4.834  14.813  0.00  0.00    +0.000 N 
ATOM     24  O   UNL     1       6.165   3.981  13.993  0.00  0.00    +0.000 OA
ATOM     25  O   UNL     1       7.571   5.504  14.715  0.00  0.00    +0.000 OA
ENDBRANCH   5  23
TORSDOF 3
ENDMDL
MODEL 6
REMARK VINA RESULT:      -8.5      4.378      5.711
REMARK  Name = 
REMARK  4 active torsions:
REMARK  status: ('A' for Active; 'I' for Inactive)
REMARK    1  A    between atoms: C_1  and  C_2
REMARK    2  A    between atoms: C_7  and  N_8
REMARK    3  A    between atoms: C_9  and  C_11
REMARK    4  A    between atoms: C_15  and  N_16
REMARK                            x       y       z     vdW  Elec       q    Type
REMARK                         _______ _______ _______ _____ _____    ______ ____
ROOT
ATOM      1  C   UNL     1       2.906   7.175  18.205  0.00  0.00    +0.000 A 
ATOM      2  C   UNL     1       3.764   7.200  17.168  0.00  0.00    +0.000 A 
ATOM      3  C   UNL     1       4.525   6.029  16.780  0.00  0.00    +0.000 A 
ATOM      4  C   UNL     1       5.370   6.038  15.667  0.00  0.00    +0.000 A 
ATOM      5  C   UNL     1       6.049   4.865  15.309  0.00  0.00    +0.000 A 
ATOM      6  C   UNL     1       5.895   3.692  16.064  0.00  0.00    +0.000 A 
ATOM      7  C   UNL     1       5.052   3.694  17.181  0.00  0.00    +0.000 A 
ATOM      8  C   UNL     1       4.373   4.862  17.521  0.00  0.00    +0.000 A 
ATOM      9  O   UNL     1       3.507   4.837  18.633  0.00  0.00    +0.000 OA
ATOM     10  C   UNL     1       2.751   5.950  19.007  0.00  0.00    +0.000 A 
ATOM     11  O   UNL     1       1.988   5.915  19.968  0.00  0.00    +0.000 OA
ENDROOT
BRANCH   1  13
ATOM     12  N   UNL     1       1.433   8.572  19.616  0.00  0.00    +0.000 N 
ATOM     13  C   UNL     1       2.141   8.446  18.433  0.00  0.00    +0.000 C 
ATOM     14  O   UNL     1       2.182   9.296  17.543  0.00  0.00    +0.000 OA
ATOM     15  H   UNL     1       1.510   7.814  20.294  0.00  0.00    +0.000 HD
BRANCH  12  22
ATOM     16  C   UNL     1       1.064   9.308  22.477  0.00  0.00    +0.000 C 
ATOM     17  C   UNL     1       0.408  10.028  21.330  0.00  0.00    +0.000 A 
ATOM     18  C   UNL     1      -0.429  11.123  21.652  0.00  0.00    +0.000 A 
ATOM     19  C   UNL     1      -1.080  11.856  20.663  0.00  0.00    +0.000 A 
ATOM     20  C   UNL     1      -0.905  11.508  19.337  0.00  0.00    +0.000 A 
ATOM     21  C   UNL     1      -0.081  10.431  19.004  0.00  0.00    +0.000 A 
ATOM     22  C   UNL     1       0.595   9.672  19.975  0.00  0.00    +0.000 A 
ENDBRANCH  12  22
ENDBRANCH   1  13
BRANCH   5  23
ATOM     23  N   UNL     1       6.918   4.865  14.123  0.00  0.00    +0.000 N 
ATOM     24  O   UNL     1       7.908   5.612  14.135  0.00  0.00    +0.000 OA
ATOM     25  O   UNL     1       6.608   4.122  13.182  0.00  0.00    +0.000 OA
ENDBRANCH   5  23
TORSDOF 3
ENDMDL
MODEL 7
REMARK VINA RESULT:      -8.4      1.439      1.863
REMARK  Name = 
REMARK  4 active torsions:
REMARK  status: ('A' for Active; 'I' for Inactive)
REMARK    1  A    between atoms: C_1  and  C_2
REMARK    2  A    between atoms: C_7  and  N_8
REMARK    3  A    between atoms: C_9  and  C_11
REMARK    4  A    between atoms: C_15  and  N_16
REMARK                            x       y       z     vdW  Elec       q    Type
REMARK                         _______ _______ _______ _____ _____    ______ ____
ROOT
ATOM      1  C   UNL     1       5.780   5.536  16.630  0.00  0.00    +0.000 A 
ATOM      2  C   UNL     1       5.156   4.773  15.714  0.00  0.00    +0.000 A 
ATOM      3  C   UNL     1       5.778   4.444  14.446  0.00  0.00    +0.000 A 
ATOM      4  C   UNL     1       5.154   3.603  13.520  0.00  0.00    +0.000 A 
ATOM      5  C   UNL     1       5.818   3.279  12.328  0.00  0.00    +0.000 A 
ATOM      6  C   UNL     1       7.093   3.801  12.057  0.00  0.00    +0.000 A 
ATOM      7  C   UNL     1       7.706   4.648  12.987  0.00  0.00    +0.000 A 
ATOM      8  C   UNL     1       7.042   4.953  14.173  0.00  0.00    +0.000 A 
ATOM      9  O   UNL     1       7.688   5.785  15.110  0.00  0.00    +0.000 OA
ATOM     10  C   UNL     1       7.112   6.095  16.344  0.00  0.00    +0.000 A 
ATOM     11  O   UNL     1       7.688   6.809  17.161  0.00  0.00    +0.000 OA
ENDROOT
BRANCH   1  13
ATOM     12  N   UNL     1       3.686   6.027  17.850  0.00  0.00    +0.000 N 
ATOM     13  C   UNL     1       5.035   5.726  17.919  0.00  0.00    +0.000 C 
ATOM     14  O   UNL     1       5.678   5.612  18.963  0.00  0.00    +0.000 OA
ATOM     15  H   UNL     1       3.257   6.055  16.925  0.00  0.00    +0.000 HD
BRANCH  12  22
ATOM     16  C   UNL     1       2.654   3.814  19.552  0.00  0.00    +0.000 C 
ATOM     17  C   UNL     1       2.334   5.268  19.774  0.00  0.00    +0.000 A 
ATOM     18  C   UNL     1       1.493   5.582  20.868  0.00  0.00    +0.000 A 
ATOM     19  C   UNL     1       1.139   6.896  21.160  0.00  0.00    +0.000 A 
ATOM     20  C   UNL     1       1.620   7.919  20.364  0.00  0.00    +0.000 A 
ATOM     21  C   UNL     1       2.453   7.625  19.282  0.00  0.00    +0.000 A 
ATOM     22  C   UNL     1       2.834   6.310  18.962  0.00  0.00    +0.000 A 
ENDBRANCH  12  22
ENDBRANCH   1  13
BRANCH   5  23
ATOM     23  N   UNL     1       5.175   2.374  11.365  0.00  0.00    +0.000 N 
ATOM     24  O   UNL     1       5.768   1.324  11.079  0.00  0.00    +0.000 OA
ATOM     25  O   UNL     1       4.082   2.717  10.894  0.00  0.00    +0.000 OA
ENDBRANCH   5  23
TORSDOF 3
ENDMDL
MODEL 8
REMARK VINA RESULT:      -8.3      1.951      2.799
REMARK  Name = 
REMARK  4 active torsions:
REMARK  status: ('A' for Active; 'I' for Inactive)
REMARK    1  A    between atoms: C_1  and  C_2
REMARK    2  A    between atoms: C_7  and  N_8
REMARK    3  A    between atoms: C_9  and  C_11
REMARK    4  A    between atoms: C_15  and  N_16
REMARK                            x       y       z     vdW  Elec       q    Type
REMARK                         _______ _______ _______ _____ _____    ______ ____
ROOT
ATOM      1  C   UNL     1       5.690   5.633  16.613  0.00  0.00    +0.000 A 
ATOM      2  C   UNL     1       5.067   4.874  15.692  0.00  0.00    +0.000 A 
ATOM      3  C   UNL     1       5.714   4.498  14.451  0.00  0.00    +0.000 A 
ATOM      4  C   UNL     1       5.088   3.660  13.523  0.00  0.00    +0.000 A 
ATOM      5  C   UNL     1       5.775   3.290  12.358  0.00  0.00    +0.000 A 
ATOM      6  C   UNL     1       7.075   3.762  12.115  0.00  0.00    +0.000 A 
ATOM      7  C   UNL     1       7.691   4.605  13.048  0.00  0.00    +0.000 A 
ATOM      8  C   UNL     1       7.003   4.957  14.207  0.00  0.00    +0.000 A 
ATOM      9  O   UNL     1       7.649   5.786  15.147  0.00  0.00    +0.000 OA
ATOM     10  C   UNL     1       7.048   6.140  16.356  0.00  0.00    +0.000 A 
ATOM     11  O   UNL     1       7.625   6.850  17.176  0.00  0.00    +0.000 OA
ENDROOT
BRANCH   1  13
ATOM     12  N   UNL     1       3.627   6.372  17.759  0.00  0.00    +0.000 N 
ATOM     13  C   UNL     1       4.915   5.875  17.874  0.00  0.00    +0.000 C 
ATOM     14  O   UNL     1       5.479   5.625  18.939  0.00  0.00    +0.000 OA
ATOM     15  H   UNL     1       3.255   6.500  16.819  0.00  0.00    +0.000 HD
BRANCH  12  22
ATOM     16  C   UNL     1       2.472   9.110  17.923  0.00  0.00    +0.000 C 
ATOM     17  C   UNL     1       2.218   8.026  18.936  0.00  0.00    +0.000 A 
ATOM     18  C   UNL     1       1.371   8.346  20.023  0.00  0.00    +0.000 A 
ATOM     19  C   UNL     1       1.072   7.413  21.012  0.00  0.00    +0.000 A 
ATOM     20  C   UNL     1       1.614   6.144  20.931  0.00  0.00    +0.000 A 
ATOM     21  C   UNL     1       2.449   5.812  19.862  0.00  0.00    +0.000 A 
ATOM     22  C   UNL     1       2.769   6.728  18.844  0.00  0.00    +0.000 A 
ENDBRANCH  12  22
ENDBRANCH   1  13
BRANCH   5  23
ATOM     23  N   UNL     1       5.130   2.388  11.393  0.00  0.00    +0.000 N 
ATOM     24  O   UNL     1       4.031   2.729  10.933  0.00  0.00    +0.000 OA
ATOM     25  O   UNL     1       5.722   1.340  11.100  0.00  0.00    +0.000 OA
ENDBRANCH   5  23
TORSDOF 3
ENDMDL
MODEL 9
REMARK VINA RESULT:      -8.3      4.636      6.229
REMARK  Name = 
REMARK  4 active torsions:
REMARK  status: ('A' for Active; 'I' for Inactive)
REMARK    1  A    between atoms: C_1  and  C_2
REMARK    2  A    between atoms: C_7  and  N_8
REMARK    3  A    between atoms: C_9  and  C_11
REMARK    4  A    between atoms: C_15  and  N_16
REMARK                            x       y       z     vdW  Elec       q    Type
REMARK                         _______ _______ _______ _____ _____    ______ ____
ROOT
ATOM      1  C   UNL     1       2.521   7.433  18.851  0.00  0.00    +0.000 A 
ATOM      2  C   UNL     1       3.366   7.422  17.804  0.00  0.00    +0.000 A 
ATOM      3  C   UNL     1       4.114   6.235  17.440  0.00  0.00    +0.000 A 
ATOM      4  C   UNL     1       4.946   6.207  16.317  0.00  0.00    +0.000 A 
ATOM      5  C   UNL     1       5.612   5.019  15.984  0.00  0.00    +0.000 A 
ATOM      6  C   UNL     1       5.458   3.868  16.773  0.00  0.00    +0.000 A 
ATOM      7  C   UNL     1       4.628   3.908  17.899  0.00  0.00    +0.000 A 
ATOM      8  C   UNL     1       3.962   5.090  18.215  0.00  0.00    +0.000 A 
ATOM      9  O   UNL     1       3.109   5.103  19.337  0.00  0.00    +0.000 OA
ATOM     10  C   UNL     1       2.366   6.232  19.689  0.00  0.00    +0.000 A 
ATOM     11  O   UNL     1       1.614   6.229  20.659  0.00  0.00    +0.000 OA
ENDROOT
BRANCH   1  13
ATOM     12  N   UNL     1       0.939   8.813  20.158  0.00  0.00    +0.000 N 
ATOM     13  C   UNL     1       1.768   8.715  19.053  0.00  0.00    +0.000 C 
ATOM     14  O   UNL     1       1.927   9.600  18.212  0.00  0.00    +0.000 OA
ATOM     15  H   UNL     1       0.923   8.025  20.806  0.00  0.00    +0.000 HD
BRANCH  12  22
ATOM     16  C   UNL     1       0.354   9.492  22.996  0.00  0.00    +0.000 C 
ATOM     17  C   UNL     1      -0.194  10.251  21.818  0.00  0.00    +0.000 A 
ATOM     18  C   UNL     1      -1.033  11.356  22.097  0.00  0.00    +0.000 A 
ATOM     19  C   UNL     1      -1.588  12.123  21.077  0.00  0.00    +0.000 A 
ATOM     20  C   UNL     1      -1.314  11.801  19.761  0.00  0.00    +0.000 A 
ATOM     21  C   UNL     1      -0.485  10.715  19.470  0.00  0.00    +0.000 A 
ATOM     22  C   UNL     1       0.096   9.921  20.475  0.00  0.00    +0.000 A 
ENDBRANCH  12  22
ENDBRANCH   1  13
BRANCH   5  23
ATOM     23  N   UNL     1       6.466   4.980  14.789  0.00  0.00    +0.000 N 
ATOM     24  O   UNL     1       6.095   4.275  13.839  0.00  0.00    +0.000 OA
ATOM     25  O   UNL     1       7.508   5.650  14.803  0.00  0.00    +0.000 OA
ENDBRANCH   5  23
TORSDOF 3
ENDMDL
