MODEL 1
REMARK VINA RESULT:      -6.3      0.000      0.000
REMARK  Name = 
REMARK  7 active torsions:
REMARK  status: ('A' for Active; 'I' for Inactive)
REMARK    1  A    between atoms: C_1  and  C_2
REMARK    2  A    between atoms: C_2  and  C_3
REMARK    3  A    between atoms: C_2  and  C_4
REMARK    4  A    between atoms: C_2  and  C_5
REMARK    5  A    between atoms: C_16  and  C_17
REMARK    6  A    between atoms: N_19  and  C_20
REMARK    7  A    between atoms: C_27  and  O_28
REMARK                            x       y       z     vdW  Elec       q    Type
REMARK                         _______ _______ _______ _____ _____    ______ ____
ROOT
ATOM      1  C   UNL     1      -1.854  12.518  21.039  0.00  0.00    +0.000 A 
ATOM      2  N   UNL     1      -3.032  12.996  20.547  0.00  0.00    +0.000 NA
ATOM      3  C   UNL     1      -3.581  12.320  19.551  0.00  0.00    +0.000 A 
ATOM      4  N   UNL     1      -4.945  12.239  19.583  0.00  0.00    +0.000 N 
ATOM      5  C   UNL     1      -5.699  11.189  18.932  0.00  0.00    +0.000 C 
ATOM      6  C   UNL     1      -6.685  11.854  17.963  0.00  0.00    +0.000 C 
ATOM      7  O   UNL     1      -7.513  12.841  18.618  0.00  0.00    +0.000 OA
ATOM      8  C   UNL     1      -6.711  13.847  19.272  0.00  0.00    +0.000 C 
ATOM      9  C   UNL     1      -5.772  13.211  20.304  0.00  0.00    +0.000 C 
ATOM     10  N   UNL     1      -2.830  11.578  18.721  0.00  0.00    +0.000 NA
ATOM     11  C   UNL     1      -1.498  11.471  19.029  0.00  0.00    +0.000 A 
ATOM     12  C   UNL     1      -0.971  11.828  20.240  0.00  0.00    +0.000 A 
ENDROOT
BRANCH   1  14
ATOM     13  C   UNL     1      -1.201  13.554  23.190  0.00  0.00    +0.000 C 
ATOM     14  C   UNL     1      -1.966  12.346  22.559  0.00  0.00    +0.000 C 
ATOM     15  C   UNL     1      -1.348  11.019  23.004  0.00  0.00    +0.000 C 
ATOM     16  C   UNL     1      -3.395  12.494  23.088  0.00  0.00    +0.000 C 
ENDBRANCH   1  14
BRANCH  12  17
ATOM     17  C   UNL     1       0.464  11.722  20.603  0.00  0.00    +0.000 C 
ATOM     18  O   UNL     1       0.942  10.590  20.676  0.00  0.00    +0.000 OA
ATOM     19  N   UNL     1       1.323  12.786  20.804  0.00  0.00    +0.000 N 
ATOM     20  H   UNL     1       2.259  12.397  20.823  0.00  0.00    +0.000 HD
BRANCH  19  21
ATOM     21  C   UNL     1       1.306  14.242  20.505  0.00  0.00    +0.000 C 
ATOM     22  C   UNL     1       2.532  15.028  21.013  0.00  0.00    +0.000 C 
ATOM     23  C   UNL     1       3.802  14.550  20.286  0.00  0.00    +0.000 C 
ATOM     24  C   UNL     1       3.681  14.792  18.771  0.00  0.00    +0.000 C 
ATOM     25  C   UNL     1       2.461  14.027  18.231  0.00  0.00    +0.000 C 
ATOM     26  C   UNL     1       1.182  14.486  18.960  0.00  0.00    +0.000 C 
ATOM     27  C   UNL     1       1.003  15.993  18.675  0.00  0.00    +0.000 C 
ATOM     28  C   UNL     1       2.208  16.781  19.217  0.00  0.00    +0.000 C 
ATOM     29  C   UNL     1       3.491  16.297  18.523  0.00  0.00    +0.000 C 
ATOM     30  C   UNL     1       2.319  16.532  20.728  0.00  0.00    +0.000 C 
BRANCH  28  31
ATOM     31  O   UNL     1       2.009  18.164  18.966  0.00  0.00    +0.000 OA
ATOM     32  H   UNL     1       2.654  18.669  19.491  0.00  0.00    +0.000 HD
ENDBRANCH  28  31
ENDBRANCH  19  21
ENDBRANCH  12  17
TORSDOF 4
ENDMDL
MODEL 2
REMARK VINA RESULT:      -6.3      0.727      1.441
REMARK  Name = 
REMARK  7 active torsions:
REMARK  status: ('A' for Active; 'I' for Inactive)
REMARK    1  A    between atoms: C_1  and  C_2
REMARK    2  A    between atoms: C_2  and  C_3
REMARK    3  A    between atoms: C_2  and  C_4
REMARK    4  A    between atoms: C_2  and  C_5
REMARK    5  A    between atoms: C_16  and  C_17
REMARK    6  A    between atoms: N_19  and  C_20
REMARK    7  A    between atoms: C_27  and  O_28
REMARK                            x       y       z     vdW  Elec       q    Type
REMARK                         _______ _______ _______ _____ _____    ______ ____
ROOT
ATOM      1  C   UNL     1      -1.761  12.714  20.795  0.00  0.00    +0.000 A 
ATOM      2  N   UNL     1      -2.929  13.144  20.239  0.00  0.00    +0.000 NA
ATOM      3  C   UNL     1      -3.523  12.325  19.388  0.00  0.00    +0.000 A 
ATOM      4  N   UNL     1      -4.888  12.307  19.449  0.00  0.00    +0.000 N 
ATOM      5  C   UNL     1      -5.694  11.188  19.006  0.00  0.00    +0.000 C 
ATOM      6  C   UNL     1      -6.672  11.709  17.946  0.00  0.00    +0.000 C 
ATOM      7  O   UNL     1      -7.448  12.831  18.423  0.00  0.00    +0.000 OA
ATOM      8  C   UNL     1      -6.596  13.903  18.876  0.00  0.00    +0.000 C 
ATOM      9  C   UNL     1      -5.664  13.425  19.994  0.00  0.00    +0.000 C 
ATOM     10  N   UNL     1      -2.816  11.415  18.696  0.00  0.00    +0.000 NA
ATOM     11  C   UNL     1      -1.484  11.310  19.002  0.00  0.00    +0.000 A 
ATOM     12  C   UNL     1      -0.920  11.857  20.123  0.00  0.00    +0.000 A 
ENDROOT
BRANCH   1  14
ATOM     13  C   UNL     1      -3.280  13.375  22.634  0.00  0.00    +0.000 C 
ATOM     14  C   UNL     1      -1.852  12.821  22.323  0.00  0.00    +0.000 C 
ATOM     15  C   UNL     1      -0.774  13.760  22.869  0.00  0.00    +0.000 C 
ATOM     16  C   UNL     1      -1.815  11.467  23.035  0.00  0.00    +0.000 C 
ENDBRANCH   1  14
BRANCH  12  17
ATOM     17  C   UNL     1       0.516  11.758  20.482  0.00  0.00    +0.000 C 
ATOM     18  O   UNL     1       0.880  10.734  21.059  0.00  0.00    +0.000 OA
ATOM     19  N   UNL     1       1.488  12.689  20.169  0.00  0.00    +0.000 N 
ATOM     20  H   UNL     1       2.379  12.244  20.355  0.00  0.00    +0.000 HD
BRANCH  19  21
ATOM     21  C   UNL     1       1.599  13.844  19.239  0.00  0.00    +0.000 C 
ATOM     22  C   UNL     1       1.001  15.166  19.764  0.00  0.00    +0.000 C 
ATOM     23  C   UNL     1       1.788  15.648  20.997  0.00  0.00    +0.000 C 
ATOM     24  C   UNL     1       3.260  15.909  20.629  0.00  0.00    +0.000 C 
ATOM     25  C   UNL     1       3.887  14.611  20.093  0.00  0.00    +0.000 C 
ATOM     26  C   UNL     1       3.100  14.108  18.867  0.00  0.00    +0.000 C 
ATOM     27  C   UNL     1       3.191  15.202  17.780  0.00  0.00    +0.000 C 
ATOM     28  C   UNL     1       2.559  16.508  18.289  0.00  0.00    +0.000 C 
ATOM     29  C   UNL     1       3.314  16.991  19.538  0.00  0.00    +0.000 C 
ATOM     30  C   UNL     1       1.092  16.235  18.653  0.00  0.00    +0.000 C 
BRANCH  28  31
ATOM     31  O   UNL     1       2.631  17.489  17.265  0.00  0.00    +0.000 OA
ATOM     32  H   UNL     1       3.256  17.180  16.586  0.00  0.00    +0.000 HD
ENDBRANCH  28  31
ENDBRANCH  19  21
ENDBRANCH  12  17
TORSDOF 4
ENDMDL
MODEL 3
REMARK VINA RESULT:      -6.3      5.093      8.554
REMARK  Name = 
REMARK  7 active torsions:
REMARK  status: ('A' for Active; 'I' for Inactive)
REMARK    1  A    between atoms: C_1  and  C_2
REMARK    2  A    between atoms: C_2  and  C_3
REMARK    3  A    between atoms: C_2  and  C_4
REMARK    4  A    between atoms: C_2  and  C_5
REMARK    5  A    between atoms: C_16  and  C_17
REMARK    6  A    between atoms: N_19  and  C_20
REMARK    7  A    between atoms: C_27  and  O_28
REMARK                            x       y       z     vdW  Elec       q    Type
REMARK                         _______ _______ _______ _____ _____    ______ ____
ROOT
ATOM      1  C   UNL     1       5.404  16.895  19.440  0.00  0.00    +0.000 A 
ATOM      2  N   UNL     1       4.055  17.074  19.351  0.00  0.00    +0.000 NA
ATOM      3  C   UNL     1       3.352  16.071  18.852  0.00  0.00    +0.000 A 
ATOM      4  N   UNL     1       2.134  15.864  19.438  0.00  0.00    +0.000 N 
ATOM      5  C   UNL     1       1.443  14.591  19.418  0.00  0.00    +0.000 C 
ATOM      6  C   UNL     1       0.064  14.819  18.785  0.00  0.00    +0.000 C 
ATOM      7  O   UNL     1      -0.674  15.870  19.447  0.00  0.00    +0.000 OA
ATOM      8  C   UNL     1       0.072  17.106  19.463  0.00  0.00    +0.000 C 
ATOM      9  C   UNL     1       1.422  16.920  20.163  0.00  0.00    +0.000 C 
ATOM     10  N   UNL     1       3.907  15.189  18.005  0.00  0.00    +0.000 NA
ATOM     11  C   UNL     1       5.254  15.320  17.778  0.00  0.00    +0.000 A 
ATOM     12  C   UNL     1       6.080  16.086  18.554  0.00  0.00    +0.000 A 
ENDROOT
BRANCH   1  14
ATOM     13  C   UNL     1       6.571  18.584  20.822  0.00  0.00    +0.000 C 
ATOM     14  C   UNL     1       5.865  17.190  20.873  0.00  0.00    +0.000 C 
ATOM     15  C   UNL     1       6.830  16.111  21.368  0.00  0.00    +0.000 C 
ATOM     16  C   UNL     1       4.712  17.393  21.858  0.00  0.00    +0.000 C 
ENDBRANCH   1  14
BRANCH  12  17
ATOM     17  C   UNL     1       7.539  16.246  18.337  0.00  0.00    +0.000 C 
ATOM     18  O   UNL     1       7.970  17.394  18.242  0.00  0.00    +0.000 OA
ATOM     19  N   UNL     1       8.461  15.218  18.296  0.00  0.00    +0.000 N 
ATOM     20  H   UNL     1       9.375  15.653  18.350  0.00  0.00    +0.000 HD
BRANCH  19  21
ATOM     21  C   UNL     1       8.478  13.783  18.685  0.00  0.00    +0.000 C 
ATOM     22  C   UNL     1       9.025  12.820  17.610  0.00  0.00    +0.000 C 
ATOM     23  C   UNL     1      10.514  13.116  17.347  0.00  0.00    +0.000 C 
ATOM     24  C   UNL     1      11.339  12.910  18.630  0.00  0.00    +0.000 C 
ATOM     25  C   UNL     1      10.815  13.851  19.727  0.00  0.00    +0.000 C 
ATOM     26  C   UNL     1       9.321  13.576  19.992  0.00  0.00    +0.000 C 
ATOM     27  C   UNL     1       9.198  12.114  20.475  0.00  0.00    +0.000 C 
ATOM     28  C   UNL     1       9.708  11.153  19.387  0.00  0.00    +0.000 C 
ATOM     29  C   UNL     1      11.186  11.452  19.090  0.00  0.00    +0.000 C 
ATOM     30  C   UNL     1       8.878  11.367  18.113  0.00  0.00    +0.000 C 
BRANCH  28  31
ATOM     31  O   UNL     1       9.562   9.817  19.844  0.00  0.00    +0.000 OA
ATOM     32  H   UNL     1      10.287   9.622  20.463  0.00  0.00    +0.000 HD
ENDBRANCH  28  31
ENDBRANCH  19  21
ENDBRANCH  12  17
TORSDOF 4
ENDMDL
MODEL 4
REMARK VINA RESULT:      -6.2      4.984      8.357
REMARK  Name = 
REMARK  7 active torsions:
REMARK  status: ('A' for Active; 'I' for Inactive)
REMARK    1  A    between atoms: C_1  and  C_2
REMARK    2  A    between atoms: C_2  and  C_3
REMARK    3  A    between atoms: C_2  and  C_4
REMARK    4  A    between atoms: C_2  and  C_5
REMARK    5  A    between atoms: C_16  and  C_17
REMARK    6  A    between atoms: N_19  and  C_20
REMARK    7  A    between atoms: C_27  and  O_28
REMARK                            x       y       z     vdW  Elec       q    Type
REMARK                         _______ _______ _______ _____ _____    ______ ____
ROOT
ATOM      1  C   UNL     1       5.353  15.399  20.198  0.00  0.00    +0.000 A 
ATOM      2  N   UNL     1       4.290  14.672  19.751  0.00  0.00    +0.000 NA
ATOM      3  C   UNL     1       3.525  14.106  20.670  0.00  0.00    +0.000 A 
ATOM      4  N   UNL     1       2.187  14.099  20.391  0.00  0.00    +0.000 N 
ATOM      5  C   UNL     1       1.159  14.005  21.407  0.00  0.00    +0.000 C 
ATOM      6  C   UNL     1       0.291  12.782  21.082  0.00  0.00    +0.000 C 
ATOM      7  O   UNL     1      -0.227  12.825  19.734  0.00  0.00    +0.000 OA
ATOM      8  C   UNL     1       0.836  12.946  18.765  0.00  0.00    +0.000 C 
ATOM      9  C   UNL     1       1.669  14.206  19.024  0.00  0.00    +0.000 C 
ATOM     10  N   UNL     1       4.015  13.787  21.879  0.00  0.00    +0.000 NA
ATOM     11  C   UNL     1       5.303  14.181  22.142  0.00  0.00    +0.000 A 
ATOM     12  C   UNL     1       5.986  15.088  21.381  0.00  0.00    +0.000 A 
ENDROOT
BRANCH   1  14
ATOM     13  C   UNL     1       4.150  16.778  18.532  0.00  0.00    +0.000 C 
ATOM     14  C   UNL     1       5.314  16.800  19.576  0.00  0.00    +0.000 C 
ATOM     15  C   UNL     1       6.644  17.134  18.899  0.00  0.00    +0.000 C 
ATOM     16  C   UNL     1       4.906  17.897  20.563  0.00  0.00    +0.000 C 
ENDBRANCH   1  14
BRANCH  12  17
ATOM     17  C   UNL     1       7.378  15.535  21.641  0.00  0.00    +0.000 C 
ATOM     18  O   UNL     1       7.543  16.359  22.540  0.00  0.00    +0.000 OA
ATOM     19  N   UNL     1       8.507  15.058  21.003  0.00  0.00    +0.000 N 
ATOM     20  H   UNL     1       9.299  15.391  21.541  0.00  0.00    +0.000 HD
BRANCH  19  21
ATOM     21  C   UNL     1       8.836  13.885  20.151  0.00  0.00    +0.000 C 
ATOM     22  C   UNL     1       8.691  14.119  18.633  0.00  0.00    +0.000 C 
ATOM     23  C   UNL     1       9.711  15.173  18.163  0.00  0.00    +0.000 C 
ATOM     24  C   UNL     1      11.147  14.692  18.433  0.00  0.00    +0.000 C 
ATOM     25  C   UNL     1      11.325  14.442  19.939  0.00  0.00    +0.000 C 
ATOM     26  C   UNL     1      10.301  13.397  20.428  0.00  0.00    +0.000 C 
ATOM     27  C   UNL     1      10.576  12.086  19.659  0.00  0.00    +0.000 C 
ATOM     28  C   UNL     1      10.394  12.310  18.148  0.00  0.00    +0.000 C 
ATOM     29  C   UNL     1      11.384  13.382  17.665  0.00  0.00    +0.000 C 
ATOM     30  C   UNL     1       8.957  12.790  17.892  0.00  0.00    +0.000 C 
BRANCH  28  31
ATOM     31  O   UNL     1      10.627  11.087  17.466  0.00  0.00    +0.000 OA
ATOM     32  H   UNL     1      11.289  10.577  17.966  0.00  0.00    +0.000 HD
ENDBRANCH  28  31
ENDBRANCH  19  21
ENDBRANCH  12  17
TORSDOF 4
ENDMDL
MODEL 5
REMARK VINA RESULT:      -6.2      4.909      8.141
REMARK  Name = 
REMARK  7 active torsions:
REMARK  status: ('A' for Active; 'I' for Inactive)
REMARK    1  A    between atoms: C_1  and  C_2
REMARK    2  A    between atoms: C_2  and  C_3
REMARK    3  A    between atoms: C_2  and  C_4
REMARK    4  A    between atoms: C_2  and  C_5
REMARK    5  A    between atoms: C_16  and  C_17
REMARK    6  A    between atoms: N_19  and  C_20
REMARK    7  A    between atoms: C_27  and  O_28
REMARK                            x       y       z     vdW  Elec       q    Type
REMARK                         _______ _______ _______ _____ _____    ______ ____
ROOT
ATOM      1  C   UNL     1       5.017  16.257  19.855  0.00  0.00    +0.000 A 
ATOM      2  N   UNL     1       3.660  16.375  19.902  0.00  0.00    +0.000 NA
ATOM      3  C   UNL     1       2.963  15.582  19.105  0.00  0.00    +0.000 A 
ATOM      4  N   UNL     1       1.797  15.104  19.632  0.00  0.00    +0.000 N 
ATOM      5  C   UNL     1       1.155  13.887  19.180  0.00  0.00    +0.000 C 
ATOM      6  C   UNL     1      -0.271  14.247  18.742  0.00  0.00    +0.000 C 
ATOM      7  O   UNL     1      -1.002  14.938  19.779  0.00  0.00    +0.000 OA
ATOM      8  C   UNL     1      -0.306  16.126  20.210  0.00  0.00    +0.000 C 
ATOM      9  C   UNL     1       1.095  15.779  20.728  0.00  0.00    +0.000 C 
ATOM     10  N   UNL     1       3.494  15.105  17.967  0.00  0.00    +0.000 NA
ATOM     11  C   UNL     1       4.817  15.389  17.740  0.00  0.00    +0.000 A 
ATOM     12  C   UNL     1       5.663  15.868  18.703  0.00  0.00    +0.000 A 
ENDROOT
BRANCH   1  14
ATOM     13  C   UNL     1       4.375  16.339  22.243  0.00  0.00    +0.000 C 
ATOM     14  C   UNL     1       5.562  16.037  21.272  0.00  0.00    +0.000 C 
ATOM     15  C   UNL     1       6.744  16.968  21.552  0.00  0.00    +0.000 C 
ATOM     16  C   UNL     1       5.925  14.581  21.569  0.00  0.00    +0.000 C 
ENDBRANCH   1  14
BRANCH  12  17
ATOM     17  C   UNL     1       7.097  16.183  18.488  0.00  0.00    +0.000 C 
ATOM     18  O   UNL     1       7.406  17.371  18.415  0.00  0.00    +0.000 OA
ATOM     19  N   UNL     1       8.122  15.257  18.428  0.00  0.00    +0.000 N 
ATOM     20  H   UNL     1       8.985  15.785  18.491  0.00  0.00    +0.000 HD
BRANCH  19  21
ATOM     21  C   UNL     1       8.289  13.825  18.790  0.00  0.00    +0.000 C 
ATOM     22  C   UNL     1       8.965  12.953  17.712  0.00  0.00    +0.000 C 
ATOM     23  C   UNL     1      10.417  13.417  17.494  0.00  0.00    +0.000 C 
ATOM     24  C   UNL     1      11.229  13.276  18.793  0.00  0.00    +0.000 C 
ATOM     25  C   UNL     1      10.578  14.129  19.894  0.00  0.00    +0.000 C 
ATOM     26  C   UNL     1       9.118  13.685  20.115  0.00  0.00    +0.000 C 
ATOM     27  C   UNL     1       9.147  12.208  20.567  0.00  0.00    +0.000 C 
ATOM     28  C   UNL     1       9.786  11.333  19.475  0.00  0.00    +0.000 C 
ATOM     29  C   UNL     1      11.229  11.800  19.222  0.00  0.00    +0.000 C 
ATOM     30  C   UNL     1       8.967  11.482  18.184  0.00  0.00    +0.000 C 
BRANCH  28  31
ATOM     31  O   UNL     1       9.779   9.979  19.902  0.00  0.00    +0.000 OA
ATOM     32  H   UNL     1      10.286   9.451  19.260  0.00  0.00    +0.000 HD
ENDBRANCH  28  31
ENDBRANCH  19  21
ENDBRANCH  12  17
TORSDOF 4
ENDMDL
MODEL 6
REMARK VINA RESULT:      -5.9      5.043     10.302
REMARK  Name = 
REMARK  7 active torsions:
REMARK  status: ('A' for Active; 'I' for Inactive)
REMARK    1  A    between atoms: C_1  and  C_2
REMARK    2  A    between atoms: C_2  and  C_3
REMARK    3  A    between atoms: C_2  and  C_4
REMARK    4  A    between atoms: C_2  and  C_5
REMARK    5  A    between atoms: C_16  and  C_17
REMARK    6  A    between atoms: N_19  and  C_20
REMARK    7  A    between atoms: C_27  and  O_28
REMARK                            x       y       z     vdW  Elec       q    Type
REMARK                         _______ _______ _______ _____ _____    ______ ____
ROOT
ATOM      1  C   UNL     1       7.371  14.844  20.784  0.00  0.00    +0.000 A 
ATOM      2  N   UNL     1       8.218  13.951  20.198  0.00  0.00    +0.000 NA
ATOM      3  C   UNL     1       8.657  14.251  18.986  0.00  0.00    +0.000 A 
ATOM      4  N   UNL     1       9.956  13.910  18.735  0.00  0.00    +0.000 N 
ATOM      5  C   UNL     1      10.770  14.555  17.726  0.00  0.00    +0.000 C 
ATOM      6  C   UNL     1      11.269  13.468  16.765  0.00  0.00    +0.000 C 
ATOM      7  O   UNL     1      11.945  12.395  17.458  0.00  0.00    +0.000 OA
ATOM      8  C   UNL     1      11.099  11.808  18.469  0.00  0.00    +0.000 C 
ATOM      9  C   UNL     1      10.653  12.863  19.487  0.00  0.00    +0.000 C 
ATOM     10  N   UNL     1       7.943  15.042  18.169  0.00  0.00    +0.000 NA
ATOM     11  C   UNL     1       6.808  15.605  18.694  0.00  0.00    +0.000 A 
ATOM     12  C   UNL     1       6.529  15.632  20.033  0.00  0.00    +0.000 A 
ENDROOT
BRANCH   1  14
ATOM     13  C   UNL     1       9.101  14.254  22.453  0.00  0.00    +0.000 C 
ATOM     14  C   UNL     1       7.905  15.220  22.173  0.00  0.00    +0.000 C 
ATOM     15  C   UNL     1       6.817  15.061  23.236  0.00  0.00    +0.000 C 
ATOM     16  C   UNL     1       8.533  16.614  22.229  0.00  0.00    +0.000 C 
ENDBRANCH   1  14
BRANCH  12  17
ATOM     17  C   UNL     1       5.312  16.235  20.632  0.00  0.00    +0.000 C 
ATOM     18  O   UNL     1       5.375  17.420  20.957  0.00  0.00    +0.000 OA
ATOM     19  N   UNL     1       4.098  15.596  20.798  0.00  0.00    +0.000 N 
ATOM     20  H   UNL     1       3.425  16.320  21.026  0.00  0.00    +0.000 HD
BRANCH  19  21
ATOM     21  C   UNL     1       3.463  14.357  20.275  0.00  0.00    +0.000 C 
ATOM     22  C   UNL     1       2.129  13.973  20.948  0.00  0.00    +0.000 C 
ATOM     23  C   UNL     1       1.064  15.046  20.655  0.00  0.00    +0.000 C 
ATOM     24  C   UNL     1       0.814  15.161  19.141  0.00  0.00    +0.000 C 
ATOM     25  C   UNL     1       2.129  15.536  18.437  0.00  0.00    +0.000 C 
ATOM     26  C   UNL     1       3.210  14.478  18.732  0.00  0.00    +0.000 C 
ATOM     27  C   UNL     1       2.702  13.130  18.173  0.00  0.00    +0.000 C 
ATOM     28  C   UNL     1       1.391  12.728  18.871  0.00  0.00    +0.000 C 
ATOM     29  C   UNL     1       0.323  13.803  18.615  0.00  0.00    +0.000 C 
ATOM     30  C   UNL     1       1.652  12.617  20.381  0.00  0.00    +0.000 C 
BRANCH  28  31
ATOM     31  O   UNL     1       0.958  11.477  18.359  0.00  0.00    +0.000 OA
ATOM     32  H   UNL     1       0.893  10.847  19.099  0.00  0.00    +0.000 HD
ENDBRANCH  28  31
ENDBRANCH  19  21
ENDBRANCH  12  17
TORSDOF 4
ENDMDL
MODEL 7
REMARK VINA RESULT:      -5.9      4.982      8.304
REMARK  Name = 
REMARK  7 active torsions:
REMARK  status: ('A' for Active; 'I' for Inactive)
REMARK    1  A    between atoms: C_1  and  C_2
REMARK    2  A    between atoms: C_2  and  C_3
REMARK    3  A    between atoms: C_2  and  C_4
REMARK    4  A    between atoms: C_2  and  C_5
REMARK    5  A    between atoms: C_16  and  C_17
REMARK    6  A    between atoms: N_19  and  C_20
REMARK    7  A    between atoms: C_27  and  O_28
REMARK                            x       y       z     vdW  Elec       q    Type
REMARK                         _______ _______ _______ _____ _____    ______ ____
ROOT
ATOM      1  C   UNL     1       5.217  15.271  20.059  0.00  0.00    +0.000 A 
ATOM      2  N   UNL     1       4.144  14.533  19.654  0.00  0.00    +0.000 NA
ATOM      3  C   UNL     1       3.377  14.024  20.604  0.00  0.00    +0.000 A 
ATOM      4  N   UNL     1       2.038  14.016  20.330  0.00  0.00    +0.000 N 
ATOM      5  C   UNL     1       1.013  13.987  21.353  0.00  0.00    +0.000 C 
ATOM      6  C   UNL     1       0.132  12.758  21.095  0.00  0.00    +0.000 C 
ATOM      7  O   UNL     1      -0.392  12.735  19.749  0.00  0.00    +0.000 OA
ATOM      8  C   UNL     1       0.669  12.793  18.772  0.00  0.00    +0.000 C 
ATOM      9  C   UNL     1       1.516  14.057  18.961  0.00  0.00    +0.000 C 
ATOM     10  N   UNL     1       3.869  13.765  21.827  0.00  0.00    +0.000 NA
ATOM     11  C   UNL     1       5.161  14.158  22.065  0.00  0.00    +0.000 A 
ATOM     12  C   UNL     1       5.851  15.017  21.254  0.00  0.00    +0.000 A 
ENDROOT
BRANCH   1  14
ATOM     13  C   UNL     1       4.903  17.688  20.485  0.00  0.00    +0.000 C 
ATOM     14  C   UNL     1       5.189  16.638  19.363  0.00  0.00    +0.000 C 
ATOM     15  C   UNL     1       4.102  16.681  18.288  0.00  0.00    +0.000 C 
ATOM     16  C   UNL     1       6.545  17.062  18.794  0.00  0.00    +0.000 C 
ENDBRANCH   1  14
BRANCH  12  17
ATOM     17  C   UNL     1       7.248  15.462  21.486  0.00  0.00    +0.000 C 
ATOM     18  O   UNL     1       7.451  16.182  22.462  0.00  0.00    +0.000 OA
ATOM     19  N   UNL     1       8.345  15.086  20.736  0.00  0.00    +0.000 N 
ATOM     20  H   UNL     1       9.162  15.374  21.263  0.00  0.00    +0.000 HD
BRANCH  19  21
ATOM     21  C   UNL     1       8.643  14.025  19.738  0.00  0.00    +0.000 C 
ATOM     22  C   UNL     1       9.672  14.415  18.656  0.00  0.00    +0.000 C 
ATOM     23  C   UNL     1      11.047  14.665  19.303  0.00  0.00    +0.000 C 
ATOM     24  C   UNL     1      11.555  13.391  20.000  0.00  0.00    +0.000 C 
ATOM     25  C   UNL     1      10.548  12.968  21.082  0.00  0.00    +0.000 C 
ATOM     26  C   UNL     1       9.161  12.727  20.452  0.00  0.00    +0.000 C 
ATOM     27  C   UNL     1       9.313  11.584  19.425  0.00  0.00    +0.000 C 
ATOM     28  C   UNL     1      10.309  11.988  18.325  0.00  0.00    +0.000 C 
ATOM     29  C   UNL     1      11.683  12.270  18.955  0.00  0.00    +0.000 C 
ATOM     30  C   UNL     1       9.793  13.260  17.637  0.00  0.00    +0.000 C 
BRANCH  28  31
ATOM     31  O   UNL     1      10.413  10.933  17.381  0.00  0.00    +0.000 OA
ATOM     32  H   UNL     1      10.926  11.251  16.618  0.00  0.00    +0.000 HD
ENDBRANCH  28  31
ENDBRANCH  19  21
ENDBRANCH  12  17
TORSDOF 4
ENDMDL
MODEL 8
REMARK VINA RESULT:      -5.9      5.062     10.216
REMARK  Name = 
REMARK  7 active torsions:
REMARK  status: ('A' for Active; 'I' for Inactive)
REMARK    1  A    between atoms: C_1  and  C_2
REMARK    2  A    between atoms: C_2  and  C_3
REMARK    3  A    between atoms: C_2  and  C_4
REMARK    4  A    between atoms: C_2  and  C_5
REMARK    5  A    between atoms: C_16  and  C_17
REMARK    6  A    between atoms: N_19  and  C_20
REMARK    7  A    between atoms: C_27  and  O_28
REMARK                            x       y       z     vdW  Elec       q    Type
REMARK                         _______ _______ _______ _____ _____    ______ ____
ROOT
ATOM      1  C   UNL     1       7.142  15.532  20.324  0.00  0.00    +0.000 A 
ATOM      2  N   UNL     1       7.820  14.428  19.903  0.00  0.00    +0.000 NA
ATOM      3  C   UNL     1       8.516  14.545  18.784  0.00  0.00    +0.000 A 
ATOM      4  N   UNL     1       9.710  13.880  18.767  0.00  0.00    +0.000 N 
ATOM      5  C   UNL     1      10.818  14.248  17.910  0.00  0.00    +0.000 C 
ATOM      6  C   UNL     1      11.178  13.022  17.061  0.00  0.00    +0.000 C 
ATOM      7  O   UNL     1      11.434  11.853  17.871  0.00  0.00    +0.000 OA
ATOM      8  C   UNL     1      10.311  11.548  18.723  0.00  0.00    +0.000 C 
ATOM      9  C   UNL     1       9.983  12.733  19.638  0.00  0.00    +0.000 C 
ATOM     10  N   UNL     1       8.174  15.445  17.847  0.00  0.00    +0.000 NA
ATOM     11  C   UNL     1       7.147  16.298  18.162  0.00  0.00    +0.000 A 
ATOM     12  C   UNL     1       6.664  16.464  19.431  0.00  0.00    +0.000 A 
ENDROOT
BRANCH   1  14
ATOM     13  C   UNL     1       8.322  14.599  22.289  0.00  0.00    +0.000 C 
ATOM     14  C   UNL     1       7.514  15.837  21.781  0.00  0.00    +0.000 C 
ATOM     15  C   UNL     1       6.260  16.053  22.630  0.00  0.00    +0.000 C 
ATOM     16  C   UNL     1       8.490  17.005  21.932  0.00  0.00    +0.000 C 
ENDBRANCH   1  14
BRANCH  12  17
ATOM     17  C   UNL     1       5.558  17.381  19.802  0.00  0.00    +0.000 C 
ATOM     18  O   UNL     1       5.867  18.518  20.154  0.00  0.00    +0.000 OA
ATOM     19  N   UNL     1       4.210  17.085  19.726  0.00  0.00    +0.000 N 
ATOM     20  H   UNL     1       3.719  17.965  19.837  0.00  0.00    +0.000 HD
BRANCH  19  21
ATOM     21  C   UNL     1       3.383  16.038  19.071  0.00  0.00    +0.000 C 
ATOM     22  C   UNL     1       3.815  14.586  19.363  0.00  0.00    +0.000 C 
ATOM     23  C   UNL     1       3.632  14.273  20.859  0.00  0.00    +0.000 C 
ATOM     24  C   UNL     1       2.155  14.416  21.264  0.00  0.00    +0.000 C 
ATOM     25  C   UNL     1       1.687  15.853  20.979  0.00  0.00    +0.000 C 
ATOM     26  C   UNL     1       1.877  16.186  19.486  0.00  0.00    +0.000 C 
ATOM     27  C   UNL     1       1.006  15.199  18.678  0.00  0.00    +0.000 C 
ATOM     28  C   UNL     1       1.463  13.754  18.939  0.00  0.00    +0.000 C 
ATOM     29  C   UNL     1       1.315  13.431  20.435  0.00  0.00    +0.000 C 
ATOM     30  C   UNL     1       2.938  13.623  18.532  0.00  0.00    +0.000 C 
BRANCH  28  31
ATOM     31  O   UNL     1       0.665  12.869  18.167  0.00  0.00    +0.000 OA
ATOM     32  H   UNL     1       1.082  12.760  17.294  0.00  0.00    +0.000 HD
ENDBRANCH  28  31
ENDBRANCH  19  21
ENDBRANCH  12  17
TORSDOF 4
ENDMDL
MODEL 9
REMARK VINA RESULT:      -5.9      4.928      8.020
REMARK  Name = 
REMARK  7 active torsions:
REMARK  status: ('A' for Active; 'I' for Inactive)
REMARK    1  A    between atoms: C_1  and  C_2
REMARK    2  A    between atoms: C_2  and  C_3
REMARK    3  A    between atoms: C_2  and  C_4
REMARK    4  A    between atoms: C_2  and  C_5
REMARK    5  A    between atoms: C_16  and  C_17
REMARK    6  A    between atoms: N_19  and  C_20
REMARK    7  A    between atoms: C_27  and  O_28
REMARK                            x       y       z     vdW  Elec       q    Type
REMARK                         _______ _______ _______ _____ _____    ______ ____
ROOT
ATOM      1  C   UNL     1       4.680  15.853  20.094  0.00  0.00    +0.000 A 
ATOM      2  N   UNL     1       3.346  15.574  20.102  0.00  0.00    +0.000 NA
ATOM      3  C   UNL     1       2.926  14.637  19.268  0.00  0.00    +0.000 A 
ATOM      4  N   UNL     1       1.934  13.829  19.749  0.00  0.00    +0.000 N 
ATOM      5  C   UNL     1       1.681  12.492  19.254  0.00  0.00    +0.000 C 
ATOM      6  C   UNL     1       0.223  12.439  18.780  0.00  0.00    +0.000 C 
ATOM      7  O   UNL     1      -0.701  12.862  19.807  0.00  0.00    +0.000 OA
ATOM      8  C   UNL     1      -0.386  14.187  20.283  0.00  0.00    +0.000 C 
ATOM      9  C   UNL     1       1.042  14.243  20.836  0.00  0.00    +0.000 C 
ATOM     10  N   UNL     1       3.599  14.364  18.138  0.00  0.00    +0.000 NA
ATOM     11  C   UNL     1       4.789  15.023  17.957  0.00  0.00    +0.000 A 
ATOM     12  C   UNL     1       5.437  15.698  18.954  0.00  0.00    +0.000 A 
ENDROOT
BRANCH   1  14
ATOM     13  C   UNL     1       3.985  15.715  22.465  0.00  0.00    +0.000 C 
ATOM     14  C   UNL     1       5.232  15.760  21.522  0.00  0.00    +0.000 C 
ATOM     15  C   UNL     1       6.115  16.966  21.845  0.00  0.00    +0.000 C 
ATOM     16  C   UNL     1       5.963  14.447  21.811  0.00  0.00    +0.000 C 
ENDBRANCH   1  14
BRANCH  12  17
ATOM     17  C   UNL     1       6.725  16.417  18.791  0.00  0.00    +0.000 C 
ATOM     18  O   UNL     1       6.669  17.633  18.609  0.00  0.00    +0.000 OA
ATOM     19  N   UNL     1       7.981  15.848  18.888  0.00  0.00    +0.000 N 
ATOM     20  H   UNL     1       8.638  16.618  18.944  0.00  0.00    +0.000 HD
BRANCH  19  21
ATOM     21  C   UNL     1       8.536  14.571  19.409  0.00  0.00    +0.000 C 
ATOM     22  C   UNL     1       9.286  13.712  18.370  0.00  0.00    +0.000 C 
ATOM     23  C   UNL     1      10.545  14.454  17.884  0.00  0.00    +0.000 C 
ATOM     24  C   UNL     1      11.503  14.718  19.058  0.00  0.00    +0.000 C 
ATOM     25  C   UNL     1      10.785  15.568  20.119  0.00  0.00    +0.000 C 
ATOM     26  C   UNL     1       9.513  14.844  20.606  0.00  0.00    +0.000 C 
ATOM     27  C   UNL     1       9.957  13.508  21.241  0.00  0.00    +0.000 C 
ATOM     28  C   UNL     1      10.670  12.635  20.195  0.00  0.00    +0.000 C 
ATOM     29  C   UNL     1      11.915  13.372  19.675  0.00  0.00    +0.000 C 
ATOM     30  C   UNL     1       9.705  12.379  19.028  0.00  0.00    +0.000 C 
BRANCH  28  31
ATOM     31  O   UNL     1      11.045  11.405  20.795  0.00  0.00    +0.000 OA
ATOM     32  H   UNL     1      10.533  11.292  21.615  0.00  0.00    +0.000 HD
ENDBRANCH  28  31
ENDBRANCH  19  21
ENDBRANCH  12  17
TORSDOF 4
ENDMDL
