MODEL 1
REMARK VINA RESULT:      -8.7      0.000      0.000
REMARK  Name = 
REMARK  6 active torsions:
REMARK  status: ('A' for Active; 'I' for Inactive)
REMARK    1  A    between atoms: C_4  and  S_5
REMARK    2  A    between atoms: S_5  and  C_6
REMARK    3  A    between atoms: C_6  and  C_7
REMARK    4  A    between atoms: C_17  and  S_18
REMARK    5  A    between atoms: S_18  and  C_19
REMARK    6  A    between atoms: C_19  and  C_20
REMARK                            x       y       z     vdW  Elec       q    Type
REMARK                         _______ _______ _______ _____ _____    ______ ____
ROOT
ATOM      1  O   UNL     1       8.728   5.169  20.218  0.00  0.00    +0.000 OA
ATOM      2  C   UNL     1       8.132   5.659  19.264  0.00  0.00    +0.000 A 
ATOM      3  N   UNL     1       7.292   4.951  18.471  0.00  0.00    +0.000 NA
ATOM      4  C   UNL     1       6.721   5.542  17.480  0.00  0.00    +0.000 A 
ATOM      5  N   UNL     1       6.891   6.856  17.156  0.00  0.00    +0.000 NA
ATOM      6  C   UNL     1       7.680   7.514  17.921  0.00  0.00    +0.000 A 
ATOM      7  N   UNL     1       8.312   6.968  18.970  0.00  0.00    +0.000 N 
ATOM      8  H   UNL     1       8.942   7.502  19.549  0.00  0.00    +0.000 HD
ENDROOT
BRANCH   4   9
ATOM      9  S   UNL     1       5.625   4.565  16.517  0.00  0.00    +0.000 S 
BRANCH   9  10
ATOM     10  C   UNL     1       4.041   5.344  16.907  0.00  0.00    +0.000 C 
BRANCH  10  11
ATOM     11  C   UNL     1       3.522   4.902  18.266  0.00  0.00    +0.000 A 
ATOM     12  C   UNL     1       2.615   5.746  18.981  0.00  0.00    +0.000 A 
ATOM     13  C   UNL     1       2.072   5.424  20.244  0.00  0.00    +0.000 A 
ATOM     14  C   UNL     1       2.489   4.185  20.762  0.00  0.00    +0.000 A 
ATOM     15  N   UNL     1       2.167   3.595  21.919  0.00  0.00    +0.000 NA
ATOM     16  O   UNL     1       2.850   2.390  21.930  0.00  0.00    +0.000 OA
ATOM     17  N   UNL     1       3.611   2.217  20.785  0.00  0.00    +0.000 NA
ATOM     18  C   UNL     1       3.405   3.312  20.043  0.00  0.00    +0.000 A 
ATOM     19  C   UNL     1       3.936   3.649  18.783  0.00  0.00    +0.000 A 
ENDBRANCH  10  11
ENDBRANCH   9  10
ENDBRANCH   4   9
BRANCH   6  20
ATOM     20  S   UNL     1       8.090   9.183  17.703  0.00  0.00    +0.000 S 
BRANCH  20  21
ATOM     21  C   UNL     1       9.135   9.495  19.154  0.00  0.00    +0.000 C 
BRANCH  21  22
ATOM     22  C   UNL     1       9.707  10.896  19.122  0.00  0.00    +0.000 A 
ATOM     23  C   UNL     1      10.057  11.500  17.903  0.00  0.00    +0.000 A 
ATOM     24  C   UNL     1      10.608  12.786  17.875  0.00  0.00    +0.000 A 
ATOM     25  C   UNL     1      10.817  13.476  19.066  0.00  0.00    +0.000 A 
ATOM     26 CL   UNL     1      11.502  15.054  19.032  0.00  0.00    +0.000 Cl
ATOM     27  C   UNL     1      10.480  12.893  20.285  0.00  0.00    +0.000 A 
ATOM     28  C   UNL     1       9.929  11.608  20.314  0.00  0.00    +0.000 A 
ENDBRANCH  21  22
ENDBRANCH  20  21
ENDBRANCH   6  20
TORSDOF 6
ENDMDL
MODEL 2
REMARK VINA RESULT:      -8.5      4.186      9.563
REMARK  Name = 
REMARK  6 active torsions:
REMARK  status: ('A' for Active; 'I' for Inactive)
REMARK    1  A    between atoms: C_4  and  S_5
REMARK    2  A    between atoms: S_5  and  C_6
REMARK    3  A    between atoms: C_6  and  C_7
REMARK    4  A    between atoms: C_17  and  S_18
REMARK    5  A    between atoms: S_18  and  C_19
REMARK    6  A    between atoms: C_19  and  C_20
REMARK                            x       y       z     vdW  Elec       q    Type
REMARK                         _______ _______ _______ _____ _____    ______ ____
ROOT
ATOM      1  O   UNL     1       8.330   5.139  20.401  0.00  0.00    +0.000 OA
ATOM      2  C   UNL     1       8.060   5.652  19.320  0.00  0.00    +0.000 A 
ATOM      3  N   UNL     1       8.172   6.981  19.080  0.00  0.00    +0.000 NA
ATOM      4  C   UNL     1       7.851   7.436  17.920  0.00  0.00    +0.000 A 
ATOM      5  N   UNL     1       7.399   6.673  16.883  0.00  0.00    +0.000 NA
ATOM      6  C   UNL     1       7.308   5.418  17.122  0.00  0.00    +0.000 A 
ATOM      7  N   UNL     1       7.623   4.870  18.306  0.00  0.00    +0.000 N 
ATOM      8  H   UNL     1       7.528   3.880  18.476  0.00  0.00    +0.000 HD
ENDROOT
BRANCH   4   9
ATOM      9  S   UNL     1       8.051   9.164  17.679  0.00  0.00    +0.000 S 
BRANCH   9  10
ATOM     10  C   UNL     1       9.122   9.581  19.073  0.00  0.00    +0.000 C 
BRANCH  10  11
ATOM     11  C   UNL     1       9.687  10.986  18.941  0.00  0.00    +0.000 A 
ATOM     12  C   UNL     1       9.533  11.911  20.023  0.00  0.00    +0.000 A 
ATOM     13  C   UNL     1      10.025  13.234  20.000  0.00  0.00    +0.000 A 
ATOM     14  C   UNL     1      10.698  13.589  18.817  0.00  0.00    +0.000 A 
ATOM     15  N   UNL     1      11.271  14.750  18.482  0.00  0.00    +0.000 NA
ATOM     16  O   UNL     1      11.791  14.560  17.212  0.00  0.00    +0.000 OA
ATOM     17  N   UNL     1      11.543  13.281  16.738  0.00  0.00    +0.000 NA
ATOM     18  C   UNL     1      10.869  12.657  17.713  0.00  0.00    +0.000 A 
ATOM     19  C   UNL     1      10.372  11.341  17.752  0.00  0.00    +0.000 A 
ENDBRANCH  10  11
ENDBRANCH   9  10
ENDBRANCH   4   9
BRANCH   6  20
ATOM     20  S   UNL     1       6.730   4.243  15.988  0.00  0.00    +0.000 S 
BRANCH  20  21
ATOM     21  C   UNL     1       5.010   4.774  15.757  0.00  0.00    +0.000 C 
BRANCH  21  22
ATOM     22  C   UNL     1       4.186   4.507  16.998  0.00  0.00    +0.000 A 
ATOM     23  C   UNL     1       4.095   3.212  17.534  0.00  0.00    +0.000 A 
ATOM     24  C   UNL     1       3.314   2.959  18.666  0.00  0.00    +0.000 A 
ATOM     25  C   UNL     1       2.614   4.000  19.270  0.00  0.00    +0.000 A 
ATOM     26 CL   UNL     1       1.647   3.689  20.660  0.00  0.00    +0.000 Cl
ATOM     27  C   UNL     1       2.688   5.291  18.753  0.00  0.00    +0.000 A 
ATOM     28  C   UNL     1       3.469   5.544  17.621  0.00  0.00    +0.000 A 
ENDBRANCH  21  22
ENDBRANCH  20  21
ENDBRANCH   6  20
TORSDOF 6
ENDMDL
MODEL 3
REMARK VINA RESULT:      -8.5      4.136      9.466
REMARK  Name = 
REMARK  6 active torsions:
REMARK  status: ('A' for Active; 'I' for Inactive)
REMARK    1  A    between atoms: C_4  and  S_5
REMARK    2  A    between atoms: S_5  and  C_6
REMARK    3  A    between atoms: C_6  and  C_7
REMARK    4  A    between atoms: C_17  and  S_18
REMARK    5  A    between atoms: S_18  and  C_19
REMARK    6  A    between atoms: C_19  and  C_20
REMARK                            x       y       z     vdW  Elec       q    Type
REMARK                         _______ _______ _______ _____ _____    ______ ____
ROOT
ATOM      1  O   UNL     1       8.015   5.177  20.417  0.00  0.00    +0.000 OA
ATOM      2  C   UNL     1       7.857   5.675  19.306  0.00  0.00    +0.000 A 
ATOM      3  N   UNL     1       8.052   6.991  19.049  0.00  0.00    +0.000 NA
ATOM      4  C   UNL     1       7.846   7.432  17.858  0.00  0.00    +0.000 A 
ATOM      5  N   UNL     1       7.441   6.666  16.804  0.00  0.00    +0.000 NA
ATOM      6  C   UNL     1       7.271   5.423  17.061  0.00  0.00    +0.000 A 
ATOM      7  N   UNL     1       7.464   4.890  18.277  0.00  0.00    +0.000 N 
ATOM      8  H   UNL     1       7.309   3.910  18.460  0.00  0.00    +0.000 HD
ENDROOT
BRANCH   4   9
ATOM      9  S   UNL     1       8.147   9.143  17.597  0.00  0.00    +0.000 S 
BRANCH   9  10
ATOM     10  C   UNL     1       8.990   9.578  19.136  0.00  0.00    +0.000 C 
BRANCH  10  11
ATOM     11  C   UNL     1       9.670  10.934  19.034  0.00  0.00    +0.000 A 
ATOM     12  C   UNL     1      10.169  11.377  17.768  0.00  0.00    +0.000 A 
ATOM     13  C   UNL     1      10.809  12.620  17.569  0.00  0.00    +0.000 A 
ATOM     14  C   UNL     1      10.920  13.414  18.724  0.00  0.00    +0.000 A 
ATOM     15  N   UNL     1      11.469  14.625  18.873  0.00  0.00    +0.000 NA
ATOM     16  O   UNL     1      11.307  14.950  20.209  0.00  0.00    +0.000 OA
ATOM     17  N   UNL     1      10.663  13.943  20.911  0.00  0.00    +0.000 NA
ATOM     18  C   UNL     1      10.410  12.981  20.016  0.00  0.00    +0.000 A 
ATOM     19  C   UNL     1       9.773  11.738  20.197  0.00  0.00    +0.000 A 
ENDBRANCH  10  11
ENDBRANCH   9  10
ENDBRANCH   4   9
BRANCH   6  20
ATOM     20  S   UNL     1       6.728   4.249  15.909  0.00  0.00    +0.000 S 
BRANCH  20  21
ATOM     21  C   UNL     1       4.996   4.737  15.677  0.00  0.00    +0.000 C 
BRANCH  21  22
ATOM     22  C   UNL     1       4.204   4.553  16.954  0.00  0.00    +0.000 A 
ATOM     23  C   UNL     1       4.051   3.280  17.526  0.00  0.00    +0.000 A 
ATOM     24  C   UNL     1       3.298   3.106  18.692  0.00  0.00    +0.000 A 
ATOM     25  C   UNL     1       2.688   4.204  19.292  0.00  0.00    +0.000 A 
ATOM     26 CL   UNL     1       1.756   3.988  20.723  0.00  0.00    +0.000 Cl
ATOM     27  C   UNL     1       2.825   5.475  18.740  0.00  0.00    +0.000 A 
ATOM     28  C   UNL     1       3.577   5.649  17.574  0.00  0.00    +0.000 A 
ENDBRANCH  21  22
ENDBRANCH  20  21
ENDBRANCH   6  20
TORSDOF 6
ENDMDL
MODEL 4
REMARK VINA RESULT:      -8.3      4.398      9.985
REMARK  Name = 
REMARK  6 active torsions:
REMARK  status: ('A' for Active; 'I' for Inactive)
REMARK    1  A    between atoms: C_4  and  S_5
REMARK    2  A    between atoms: S_5  and  C_6
REMARK    3  A    between atoms: C_6  and  C_7
REMARK    4  A    between atoms: C_17  and  S_18
REMARK    5  A    between atoms: S_18  and  C_19
REMARK    6  A    between atoms: C_19  and  C_20
REMARK                            x       y       z     vdW  Elec       q    Type
REMARK                         _______ _______ _______ _____ _____    ______ ____
ROOT
ATOM      1  O   UNL     1       8.374   5.139  19.739  0.00  0.00    +0.000 OA
ATOM      2  C   UNL     1       7.883   5.886  18.898  0.00  0.00    +0.000 A 
ATOM      3  N   UNL     1       8.281   7.169  18.723  0.00  0.00    +0.000 NA
ATOM      4  C   UNL     1       7.699   7.887  17.828  0.00  0.00    +0.000 A 
ATOM      5  N   UNL     1       6.692   7.452  17.016  0.00  0.00    +0.000 NA
ATOM      6  C   UNL     1       6.335   6.234  17.187  0.00  0.00    +0.000 A 
ATOM      7  N   UNL     1       6.892   5.425  18.100  0.00  0.00    +0.000 N 
ATOM      8  H   UNL     1       6.583   4.474  18.229  0.00  0.00    +0.000 HD
ENDROOT
BRANCH   4   9
ATOM      9  S   UNL     1       8.289   9.530  17.641  0.00  0.00    +0.000 S 
BRANCH   9  10
ATOM     10  C   UNL     1       9.189   9.748  19.194  0.00  0.00    +0.000 C 
BRANCH  10  11
ATOM     11  C   UNL     1       9.962  11.056  19.211  0.00  0.00    +0.000 A 
ATOM     12  C   UNL     1      10.174  11.731  20.455  0.00  0.00    +0.000 A 
ATOM     13  C   UNL     1      10.883  12.946  20.577  0.00  0.00    +0.000 A 
ATOM     14  C   UNL     1      11.384  13.457  19.367  0.00  0.00    +0.000 A 
ATOM     15  N   UNL     1      12.085  14.574  19.141  0.00  0.00    +0.000 NA
ATOM     16  O   UNL     1      12.325  14.599  17.777  0.00  0.00    +0.000 OA
ATOM     17  N   UNL     1      11.771  13.502  17.135  0.00  0.00    +0.000 NA
ATOM     18  C   UNL     1      11.183  12.778  18.096  0.00  0.00    +0.000 A 
ATOM     19  C   UNL     1      10.474  11.565  17.992  0.00  0.00    +0.000 A 
ENDBRANCH  10  11
ENDBRANCH   9  10
ENDBRANCH   4   9
BRANCH   6  20
ATOM     20  S   UNL     1       5.060   5.454  16.311  0.00  0.00    +0.000 S 
BRANCH  20  21
ATOM     21  C   UNL     1       5.156   3.760  16.956  0.00  0.00    +0.000 C 
BRANCH  21  22
ATOM     22  C   UNL     1       4.101   3.520  18.015  0.00  0.00    +0.000 A 
ATOM     23  C   UNL     1       3.773   4.524  18.940  0.00  0.00    +0.000 A 
ATOM     24  C   UNL     1       2.816   4.295  19.934  0.00  0.00    +0.000 A 
ATOM     25  C   UNL     1       2.183   3.057  20.013  0.00  0.00    +0.000 A 
ATOM     26 CL   UNL     1       1.010   2.772  21.241  0.00  0.00    +0.000 Cl
ATOM     27  C   UNL     1       2.496   2.047  19.107  0.00  0.00    +0.000 A 
ATOM     28  C   UNL     1       3.453   2.277  18.113  0.00  0.00    +0.000 A 
ENDBRANCH  21  22
ENDBRANCH  20  21
ENDBRANCH   6  20
TORSDOF 6
ENDMDL
MODEL 5
REMARK VINA RESULT:      -8.2      4.359      9.738
REMARK  Name = 
REMARK  6 active torsions:
REMARK  status: ('A' for Active; 'I' for Inactive)
REMARK    1  A    between atoms: C_4  and  S_5
REMARK    2  A    between atoms: S_5  and  C_6
REMARK    3  A    between atoms: C_6  and  C_7
REMARK    4  A    between atoms: C_17  and  S_18
REMARK    5  A    between atoms: S_18  and  C_19
REMARK    6  A    between atoms: C_19  and  C_20
REMARK                            x       y       z     vdW  Elec       q    Type
REMARK                         _______ _______ _______ _____ _____    ______ ____
ROOT
ATOM      1  O   UNL     1       8.260   5.061  19.572  0.00  0.00    +0.000 OA
ATOM      2  C   UNL     1       7.862   5.837  18.710  0.00  0.00    +0.000 A 
ATOM      3  N   UNL     1       8.200   7.150  18.680  0.00  0.00    +0.000 NA
ATOM      4  C   UNL     1       7.722   7.897  17.747  0.00  0.00    +0.000 A 
ATOM      5  N   UNL     1       6.887   7.467  16.758  0.00  0.00    +0.000 NA
ATOM      6  C   UNL     1       6.585   6.223  16.794  0.00  0.00    +0.000 A 
ATOM      7  N   UNL     1       7.041   5.382  17.735  0.00  0.00    +0.000 N 
ATOM      8  H   UNL     1       6.777   4.409  17.753  0.00  0.00    +0.000 HD
ENDROOT
BRANCH   4   9
ATOM      9  S   UNL     1       8.230   9.578  17.759  0.00  0.00    +0.000 S 
BRANCH   9  10
ATOM     10  C   UNL     1       9.194   9.632  19.287  0.00  0.00    +0.000 C 
BRANCH  10  11
ATOM     11  C   UNL     1       9.815  11.002  19.506  0.00  0.00    +0.000 A 
ATOM     12  C   UNL     1      10.755  11.509  18.553  0.00  0.00    +0.000 A 
ATOM     13  C   UNL     1      11.381  12.770  18.663  0.00  0.00    +0.000 A 
ATOM     14  C   UNL     1      11.004  13.514  19.795  0.00  0.00    +0.000 A 
ATOM     15  N   UNL     1      11.411  14.727  20.188  0.00  0.00    +0.000 NA
ATOM     16  O   UNL     1      10.728  14.990  21.365  0.00  0.00    +0.000 OA
ATOM     17  N   UNL     1       9.894  13.942  21.723  0.00  0.00    +0.000 NA
ATOM     18  C   UNL     1      10.043  13.016  20.768  0.00  0.00    +0.000 A 
ATOM     19  C   UNL     1       9.428  11.756  20.642  0.00  0.00    +0.000 A 
ENDBRANCH  10  11
ENDBRANCH   9  10
ENDBRANCH   4   9
BRANCH   6  20
ATOM     20  S   UNL     1       5.517   5.440  15.677  0.00  0.00    +0.000 S 
BRANCH  20  21
ATOM     21  C   UNL     1       5.355   3.792  16.420  0.00  0.00    +0.000 C 
BRANCH  21  22
ATOM     22  C   UNL     1       4.130   3.712  17.305  0.00  0.00    +0.000 A 
ATOM     23  C   UNL     1       3.341   4.849  17.542  0.00  0.00    +0.000 A 
ATOM     24  C   UNL     1       2.222   4.781  18.380  0.00  0.00    +0.000 A 
ATOM     25  C   UNL     1       1.888   3.576  18.991  0.00  0.00    +0.000 A 
ATOM     26 CL   UNL     1       0.516   3.494  20.028  0.00  0.00    +0.000 Cl
ATOM     27  C   UNL     1       2.659   2.437  18.772  0.00  0.00    +0.000 A 
ATOM     28  C   UNL     1       3.777   2.505  17.935  0.00  0.00    +0.000 A 
ENDBRANCH  21  22
ENDBRANCH  20  21
ENDBRANCH   6  20
TORSDOF 6
ENDMDL
MODEL 6
REMARK VINA RESULT:      -8.2      4.636      7.654
REMARK  Name = 
REMARK  6 active torsions:
REMARK  status: ('A' for Active; 'I' for Inactive)
REMARK    1  A    between atoms: C_4  and  S_5
REMARK    2  A    between atoms: S_5  and  C_6
REMARK    3  A    between atoms: C_6  and  C_7
REMARK    4  A    between atoms: C_17  and  S_18
REMARK    5  A    between atoms: S_18  and  C_19
REMARK    6  A    between atoms: C_19  and  C_20
REMARK                            x       y       z     vdW  Elec       q    Type
REMARK                         _______ _______ _______ _____ _____    ______ ____
ROOT
ATOM      1  O   UNL     1       2.333   3.468  22.175  0.00  0.00    +0.000 OA
ATOM      2  C   UNL     1       2.318   4.076  21.109  0.00  0.00    +0.000 A 
ATOM      3  N   UNL     1       2.489   3.471  19.908  0.00  0.00    +0.000 NA
ATOM      4  C   UNL     1       2.475   4.188  18.840  0.00  0.00    +0.000 A 
ATOM      5  N   UNL     1       2.292   5.540  18.813  0.00  0.00    +0.000 NA
ATOM      6  C   UNL     1       2.122   6.095  19.955  0.00  0.00    +0.000 A 
ATOM      7  N   UNL     1       2.126   5.415  21.111  0.00  0.00    +0.000 N 
ATOM      8  H   UNL     1       2.005   5.876  22.000  0.00  0.00    +0.000 HD
ENDROOT
BRANCH   4   9
ATOM      9  S   UNL     1       2.674   3.329  17.321  0.00  0.00    +0.000 S 
BRANCH   9  10
ATOM     10  C   UNL     1       4.457   3.027  17.332  0.00  0.00    +0.000 C 
BRANCH  10  11
ATOM     11  C   UNL     1       5.242   4.328  17.286  0.00  0.00    +0.000 A 
ATOM     12  C   UNL     1       4.939   5.297  16.277  0.00  0.00    +0.000 A 
ATOM     13  C   UNL     1       5.605   6.536  16.154  0.00  0.00    +0.000 A 
ATOM     14  C   UNL     1       6.606   6.761  17.116  0.00  0.00    +0.000 A 
ATOM     15  N   UNL     1       7.413   7.817  17.271  0.00  0.00    +0.000 NA
ATOM     16  O   UNL     1       8.205   7.527  18.370  0.00  0.00    +0.000 OA
ATOM     17  N   UNL     1       7.907   6.285  18.908  0.00  0.00    +0.000 NA
ATOM     18  C   UNL     1       6.919   5.789  18.152  0.00  0.00    +0.000 A 
ATOM     19  C   UNL     1       6.244   4.559  18.261  0.00  0.00    +0.000 A 
ENDBRANCH  10  11
ENDBRANCH   9  10
ENDBRANCH   4   9
BRANCH   6  20
ATOM     20  S   UNL     1       1.906   7.797  20.195  0.00  0.00    +0.000 S 
BRANCH  20  21
ATOM     21  C   UNL     1       0.595   7.826  21.448  0.00  0.00    +0.000 C 
BRANCH  21  22
ATOM     22  C   UNL     1       0.159   9.245  21.748  0.00  0.00    +0.000 A 
ATOM     23  C   UNL     1       0.579  10.310  20.935  0.00  0.00    +0.000 A 
ATOM     24  C   UNL     1       0.197  11.624  21.225  0.00  0.00    +0.000 A 
ATOM     25  C   UNL     1      -0.605  11.884  22.333  0.00  0.00    +0.000 A 
ATOM     26 CL   UNL     1      -1.069  13.501  22.695  0.00  0.00    +0.000 Cl
ATOM     27  C   UNL     1      -1.030  10.841  23.154  0.00  0.00    +0.000 A 
ATOM     28  C   UNL     1      -0.648   9.528  22.864  0.00  0.00    +0.000 A 
ENDBRANCH  21  22
ENDBRANCH  20  21
ENDBRANCH   6  20
TORSDOF 6
ENDMDL
MODEL 7
REMARK VINA RESULT:      -8.1      4.111      9.378
REMARK  Name = 
REMARK  6 active torsions:
REMARK  status: ('A' for Active; 'I' for Inactive)
REMARK    1  A    between atoms: C_4  and  S_5
REMARK    2  A    between atoms: S_5  and  C_6
REMARK    3  A    between atoms: C_6  and  C_7
REMARK    4  A    between atoms: C_17  and  S_18
REMARK    5  A    between atoms: S_18  and  C_19
REMARK    6  A    between atoms: C_19  and  C_20
REMARK                            x       y       z     vdW  Elec       q    Type
REMARK                         _______ _______ _______ _____ _____    ______ ____
ROOT
ATOM      1  O   UNL     1       7.970   5.263  20.387  0.00  0.00    +0.000 OA
ATOM      2  C   UNL     1       7.838   5.766  19.275  0.00  0.00    +0.000 A 
ATOM      3  N   UNL     1       8.007   7.089  19.034  0.00  0.00    +0.000 NA
ATOM      4  C   UNL     1       7.833   7.534  17.840  0.00  0.00    +0.000 A 
ATOM      5  N   UNL     1       7.487   6.766  16.766  0.00  0.00    +0.000 NA
ATOM      6  C   UNL     1       7.342   5.516  17.008  0.00  0.00    +0.000 A 
ATOM      7  N   UNL     1       7.504   4.979  18.226  0.00  0.00    +0.000 N 
ATOM      8  H   UNL     1       7.368   3.994  18.397  0.00  0.00    +0.000 HD
ENDROOT
BRANCH   4   9
ATOM      9  S   UNL     1       8.098   9.254  17.602  0.00  0.00    +0.000 S 
BRANCH   9  10
ATOM     10  C   UNL     1       9.141   9.638  19.028  0.00  0.00    +0.000 C 
BRANCH  10  11
ATOM     11  C   UNL     1       9.789  11.006  18.891  0.00  0.00    +0.000 A 
ATOM     12  C   UNL     1      11.182  11.096  18.572  0.00  0.00    +0.000 A 
ATOM     13  C   UNL     1      11.874  12.316  18.418  0.00  0.00    +0.000 A 
ATOM     14  C   UNL     1      11.083  13.465  18.597  0.00  0.00    +0.000 A 
ATOM     15  N   UNL     1      11.430  14.756  18.525  0.00  0.00    +0.000 NA
ATOM     16  O   UNL     1      10.273  15.471  18.781  0.00  0.00    +0.000 OA
ATOM     17  N   UNL     1       9.192  14.637  19.023  0.00  0.00    +0.000 NA
ATOM     18  C   UNL     1       9.665  13.390  18.913  0.00  0.00    +0.000 A 
ATOM     19  C   UNL     1       8.990  12.163  19.063  0.00  0.00    +0.000 A 
ENDBRANCH  10  11
ENDBRANCH   9  10
ENDBRANCH   4   9
BRANCH   6  20
ATOM     20  S   UNL     1       6.872   4.338  15.828  0.00  0.00    +0.000 S 
BRANCH  20  21
ATOM     21  C   UNL     1       5.135   4.778  15.542  0.00  0.00    +0.000 C 
BRANCH  21  22
ATOM     22  C   UNL     1       4.357   4.794  16.841  0.00  0.00    +0.000 A 
ATOM     23  C   UNL     1       3.953   6.008  17.420  0.00  0.00    +0.000 A 
ATOM     24  C   UNL     1       3.256   6.025  18.632  0.00  0.00    +0.000 A 
ATOM     25  C   UNL     1       2.960   4.828  19.277  0.00  0.00    +0.000 A 
ATOM     26 CL   UNL     1       2.108   4.848  20.773  0.00  0.00    +0.000 Cl
ATOM     27  C   UNL     1       3.354   3.613  18.722  0.00  0.00    +0.000 A 
ATOM     28  C   UNL     1       4.052   3.596  17.509  0.00  0.00    +0.000 A 
ENDBRANCH  21  22
ENDBRANCH  20  21
ENDBRANCH   6  20
TORSDOF 6
ENDMDL
MODEL 8
REMARK VINA RESULT:      -8.0      1.641      2.036
REMARK  Name = 
REMARK  6 active torsions:
REMARK  status: ('A' for Active; 'I' for Inactive)
REMARK    1  A    between atoms: C_4  and  S_5
REMARK    2  A    between atoms: S_5  and  C_6
REMARK    3  A    between atoms: C_6  and  C_7
REMARK    4  A    between atoms: C_17  and  S_18
REMARK    5  A    between atoms: S_18  and  C_19
REMARK    6  A    between atoms: C_19  and  C_20
REMARK                            x       y       z     vdW  Elec       q    Type
REMARK                         _______ _______ _______ _____ _____    ______ ____
ROOT
ATOM      1  O   UNL     1       8.363   5.243  19.978  0.00  0.00    +0.000 OA
ATOM      2  C   UNL     1       7.952   5.829  18.982  0.00  0.00    +0.000 A 
ATOM      3  N   UNL     1       7.269   5.211  17.987  0.00  0.00    +0.000 NA
ATOM      4  C   UNL     1       6.889   5.900  16.969  0.00  0.00    +0.000 A 
ATOM      5  N   UNL     1       7.116   7.235  16.805  0.00  0.00    +0.000 NA
ATOM      6  C   UNL     1       7.753   7.806  17.758  0.00  0.00    +0.000 A 
ATOM      7  N   UNL     1       8.183   7.155  18.849  0.00  0.00    +0.000 N 
ATOM      8  H   UNL     1       8.697   7.622  19.580  0.00  0.00    +0.000 HD
ENDROOT
BRANCH   4   9
ATOM      9  S   UNL     1       5.986   5.035  15.736  0.00  0.00    +0.000 S 
BRANCH   9  10
ATOM     10  C   UNL     1       4.702   4.252  16.740  0.00  0.00    +0.000 C 
BRANCH  10  11
ATOM     11  C   UNL     1       3.940   5.275  17.567  0.00  0.00    +0.000 A 
ATOM     12  C   UNL     1       3.814   6.617  17.084  0.00  0.00    +0.000 A 
ATOM     13  C   UNL     1       3.123   7.637  17.773  0.00  0.00    +0.000 A 
ATOM     14  C   UNL     1       2.548   7.235  18.992  0.00  0.00    +0.000 A 
ATOM     15  N   UNL     1       1.841   7.950  19.874  0.00  0.00    +0.000 NA
ATOM     16  O   UNL     1       1.513   7.072  20.893  0.00  0.00    +0.000 OA
ATOM     17  N   UNL     1       2.016   5.801  20.663  0.00  0.00    +0.000 NA
ATOM     18  C   UNL     1       2.660   5.873  19.491  0.00  0.00    +0.000 A 
ATOM     19  C   UNL     1       3.353   4.867  18.790  0.00  0.00    +0.000 A 
ENDBRANCH  10  11
ENDBRANCH   9  10
ENDBRANCH   4   9
BRANCH   6  20
ATOM     20  S   UNL     1       8.197   9.481  17.775  0.00  0.00    +0.000 S 
BRANCH  20  21
ATOM     21  C   UNL     1       9.284   9.555  19.226  0.00  0.00    +0.000 C 
BRANCH  21  22
ATOM     22  C   UNL     1       9.857  10.945  19.407  0.00  0.00    +0.000 A 
ATOM     23  C   UNL     1      10.706  11.502  18.437  0.00  0.00    +0.000 A 
ATOM     24  C   UNL     1      11.255  12.777  18.615  0.00  0.00    +0.000 A 
ATOM     25  C   UNL     1      10.961  13.503  19.766  0.00  0.00    +0.000 A 
ATOM     26 CL   UNL     1      11.642  15.068  19.988  0.00  0.00    +0.000 Cl
ATOM     27  C   UNL     1      10.124  12.967  20.741  0.00  0.00    +0.000 A 
ATOM     28  C   UNL     1       9.575  11.693  20.564  0.00  0.00    +0.000 A 
ENDBRANCH  21  22
ENDBRANCH  20  21
ENDBRANCH   6  20
TORSDOF 6
ENDMDL
MODEL 9
REMARK VINA RESULT:      -7.9      3.923      9.205
REMARK  Name = 
REMARK  6 active torsions:
REMARK  status: ('A' for Active; 'I' for Inactive)
REMARK    1  A    between atoms: C_4  and  S_5
REMARK    2  A    between atoms: S_5  and  C_6
REMARK    3  A    between atoms: C_6  and  C_7
REMARK    4  A    between atoms: C_17  and  S_18
REMARK    5  A    between atoms: S_18  and  C_19
REMARK    6  A    between atoms: C_19  and  C_20
REMARK                            x       y       z     vdW  Elec       q    Type
REMARK                         _______ _______ _______ _____ _____    ______ ____
ROOT
ATOM      1  O   UNL     1       8.287   5.173  19.881  0.00  0.00    +0.000 OA
ATOM      2  C   UNL     1       7.872   5.844  18.941  0.00  0.00    +0.000 A 
ATOM      3  N   UNL     1       8.181   7.152  18.769  0.00  0.00    +0.000 NA
ATOM      4  C   UNL     1       7.687   7.783  17.762  0.00  0.00    +0.000 A 
ATOM      5  N   UNL     1       6.861   7.231  16.827  0.00  0.00    +0.000 NA
ATOM      6  C   UNL     1       6.587   5.992  16.998  0.00  0.00    +0.000 A 
ATOM      7  N   UNL     1       7.062   5.268  18.023  0.00  0.00    +0.000 N 
ATOM      8  H   UNL     1       6.819   4.297  18.146  0.00  0.00    +0.000 HD
ENDROOT
BRANCH   4   9
ATOM      9  S   UNL     1       8.156   9.467  17.592  0.00  0.00    +0.000 S 
BRANCH   9  10
ATOM     10  C   UNL     1       9.119   9.707  19.103  0.00  0.00    +0.000 C 
BRANCH  10  11
ATOM     11  C   UNL     1       9.756  11.086  19.145  0.00  0.00    +0.000 A 
ATOM     12  C   UNL     1      10.924  11.298  19.944  0.00  0.00    +0.000 A 
ATOM     13  C   UNL     1      11.591  12.538  20.045  0.00  0.00    +0.000 A 
ATOM     14  C   UNL     1      11.021  13.574  19.284  0.00  0.00    +0.000 A 
ATOM     15  N   UNL     1      11.404  14.851  19.165  0.00  0.00    +0.000 NA
ATOM     16  O   UNL     1      10.500  15.435  18.293  0.00  0.00    +0.000 OA
ATOM     17  N   UNL     1       9.540  14.532  17.864  0.00  0.00    +0.000 NA
ATOM     18  C   UNL     1       9.839  13.372  18.460  0.00  0.00    +0.000 A 
ATOM     19  C   UNL     1       9.186  12.128  18.371  0.00  0.00    +0.000 A 
ENDBRANCH  10  11
ENDBRANCH   9  10
ENDBRANCH   4   9
BRANCH   6  20
ATOM     20  S   UNL     1       5.537   5.070  15.974  0.00  0.00    +0.000 S 
BRANCH  20  21
ATOM     21  C   UNL     1       4.511   4.199  17.191  0.00  0.00    +0.000 C 
BRANCH  21  22
ATOM     22  C   UNL     1       3.754   5.178  18.065  0.00  0.00    +0.000 A 
ATOM     23  C   UNL     1       3.408   4.841  19.384  0.00  0.00    +0.000 A 
ATOM     24  C   UNL     1       2.688   5.735  20.183  0.00  0.00    +0.000 A 
ATOM     25  C   UNL     1       2.304   6.971  19.668  0.00  0.00    +0.000 A 
ATOM     26 CL   UNL     1       1.412   8.068  20.649  0.00  0.00    +0.000 Cl
ATOM     27  C   UNL     1       2.636   7.322  18.362  0.00  0.00    +0.000 A 
ATOM     28  C   UNL     1       3.356   6.428  17.562  0.00  0.00    +0.000 A 
ENDBRANCH  21  22
ENDBRANCH  20  21
ENDBRANCH   6  20
TORSDOF 6
ENDMDL
