MODEL 1
REMARK VINA RESULT:      -9.4      0.000      0.000
REMARK  Name = 
REMARK  8 active torsions:
REMARK  status: ('A' for Active; 'I' for Inactive)
REMARK    1  A    between atoms: C_1  and  O_2
REMARK    2  A    between atoms: O_2  and  C_3
REMARK    3  A    between atoms: C_6  and  C_7
REMARK    4  A    between atoms: C_8  and  C_9
REMARK    5  A    between atoms: C_9  and  C_11
REMARK    6  A    between atoms: C_12  and  C_13
REMARK    7  A    between atoms: N_15  and  C_16
REMARK    8  A    between atoms: C_16  and  C_17
REMARK                            x       y       z     vdW  Elec       q    Type
REMARK                         _______ _______ _______ _____ _____    ______ ____
ROOT
ATOM      1  C   UNL     1       3.740   5.613  18.381  0.00  0.00    +0.000 A 
ATOM      2  C   UNL     1       2.786   6.613  18.513  0.00  0.00    +0.000 A 
ATOM      3  N   UNL     1       2.041   6.249  19.597  0.00  0.00    +0.000 N 
ATOM      4  C   UNL     1       1.882   4.897  19.538  0.00  0.00    +0.000 A 
ATOM      5  C   UNL     1       0.843   4.114  20.073  0.00  0.00    +0.000 A 
ATOM      6  C   UNL     1       1.000   2.745  20.041  0.00  0.00    +0.000 A 
ATOM      7  C   UNL     1       2.184   2.207  19.549  0.00  0.00    +0.000 A 
ATOM      8  C   UNL     1       3.235   3.021  19.021  0.00  0.00    +0.000 A 
ATOM      9  C   UNL     1       3.070   4.425  18.942  0.00  0.00    +0.000 A 
ENDROOT
BRANCH   1  11
ATOM     10  C   UNL     1       6.214   6.171  18.105  0.00  0.00    +0.000 C 
ATOM     11  C   UNL     1       4.947   6.024  17.669  0.00  0.00    +0.000 C 
BRANCH  10  12
ATOM     12  C   UNL     1       7.390   6.935  17.465  0.00  0.00    +0.000 C 
ATOM     13  O   UNL     1       7.684   6.645  16.302  0.00  0.00    +0.000 OA
BRANCH  12  15
ATOM     14  C   UNL     1       8.215   9.281  17.914  0.00  0.00    +0.000 C 
ATOM     15  C   UNL     1       8.244   7.954  18.220  0.00  0.00    +0.000 C 
BRANCH  14  19
ATOM     16  C   UNL     1      10.292  12.770  19.602  0.00  0.00    +0.000 A 
ATOM     17  C   UNL     1      10.249  11.546  20.280  0.00  0.00    +0.000 A 
ATOM     18  C   UNL     1       9.600  10.402  19.755  0.00  0.00    +0.000 A 
ATOM     19  C   UNL     1       8.949  10.456  18.512  0.00  0.00    +0.000 A 
ATOM     20  C   UNL     1       8.998  11.705  17.837  0.00  0.00    +0.000 A 
ATOM     21  C   UNL     1       9.658  12.848  18.369  0.00  0.00    +0.000 A 
BRANCH  16  23
ATOM     22  C   UNL     1      10.220  14.452  21.319  0.00  0.00    +0.000 C 
ATOM     23  O   UNL     1      10.921  13.786  20.272  0.00  0.00    +0.000 OA
ENDBRANCH  16  23
ENDBRANCH  14  19
ENDBRANCH  12  15
ENDBRANCH  10  12
ENDBRANCH   1  11
BRANCH   3  24
ATOM     24  C   UNL     1       2.062   6.965  20.871  0.00  0.00    +0.000 C 
BRANCH  24  25
ATOM     25  C   UNL     1       1.219   8.194  20.811  0.00  0.00    +0.000 A 
ATOM     26  C   UNL     1       1.207   8.993  19.658  0.00  0.00    +0.000 A 
ATOM     27  C   UNL     1       0.460  10.166  19.629  0.00  0.00    +0.000 A 
ATOM     28  C   UNL     1      -0.275  10.552  20.750  0.00  0.00    +0.000 A 
ATOM     29  C   UNL     1      -0.264   9.755  21.887  0.00  0.00    +0.000 A 
ATOM     30  F   UNL     1      -0.966  10.127  22.966  0.00  0.00    +0.000 F 
ATOM     31  C   UNL     1       0.467   8.581  21.928  0.00  0.00    +0.000 A 
ENDBRANCH  24  25
ENDBRANCH   3  24
TORSDOF 7
ENDMDL
MODEL 2
REMARK VINA RESULT:      -9.3      4.994      8.275
REMARK  Name = 
REMARK  8 active torsions:
REMARK  status: ('A' for Active; 'I' for Inactive)
REMARK    1  A    between atoms: C_1  and  O_2
REMARK    2  A    between atoms: O_2  and  C_3
REMARK    3  A    between atoms: C_6  and  C_7
REMARK    4  A    between atoms: C_8  and  C_9
REMARK    5  A    between atoms: C_9  and  C_11
REMARK    6  A    between atoms: C_12  and  C_13
REMARK    7  A    between atoms: N_15  and  C_16
REMARK    8  A    between atoms: C_16  and  C_17
REMARK                            x       y       z     vdW  Elec       q    Type
REMARK                         _______ _______ _______ _____ _____    ______ ____
ROOT
ATOM      1  C   UNL     1       2.682   5.845  18.799  0.00  0.00    +0.000 A 
ATOM      2  C   UNL     1       3.680   5.962  19.757  0.00  0.00    +0.000 A 
ATOM      3  N   UNL     1       4.556   4.953  19.479  0.00  0.00    +0.000 N 
ATOM      4  C   UNL     1       3.814   3.866  19.123  0.00  0.00    +0.000 A 
ATOM      5  C   UNL     1       4.150   2.504  19.230  0.00  0.00    +0.000 A 
ATOM      6  C   UNL     1       3.306   1.594  18.630  0.00  0.00    +0.000 A 
ATOM      7  C   UNL     1       2.214   2.055  17.903  0.00  0.00    +0.000 A 
ATOM      8  C   UNL     1       1.897   3.445  17.795  0.00  0.00    +0.000 A 
ATOM      9  C   UNL     1       2.680   4.405  18.481  0.00  0.00    +0.000 A 
ENDROOT
BRANCH   1  11
ATOM     10  C   UNL     1       2.367   8.269  18.066  0.00  0.00    +0.000 C 
ATOM     11  C   UNL     1       1.947   7.080  18.544  0.00  0.00    +0.000 C 
BRANCH  10  12
ATOM     12  C   UNL     1       1.689   9.651  18.135  0.00  0.00    +0.000 C 
ATOM     13  O   UNL     1       2.199  10.563  17.480  0.00  0.00    +0.000 OA
BRANCH  12  15
ATOM     14  C   UNL     1       0.569  10.835  20.067  0.00  0.00    +0.000 C 
ATOM     15  C   UNL     1       0.487   9.955  19.029  0.00  0.00    +0.000 C 
BRANCH  14  19
ATOM     16  C   UNL     1      -2.506  12.205  22.897  0.00  0.00    +0.000 A 
ATOM     17  C   UNL     1      -1.579  11.217  23.247  0.00  0.00    +0.000 A 
ATOM     18  C   UNL     1      -0.570  10.765  22.361  0.00  0.00    +0.000 A 
ATOM     19  C   UNL     1      -0.465  11.295  21.065  0.00  0.00    +0.000 A 
ATOM     20  C   UNL     1      -1.414  12.295  20.723  0.00  0.00    +0.000 A 
ATOM     21  C   UNL     1      -2.421  12.748  21.621  0.00  0.00    +0.000 A 
BRANCH  16  23
ATOM     22  C   UNL     1      -4.723  12.959  23.439  0.00  0.00    +0.000 C 
ATOM     23  O   UNL     1      -3.443  12.491  23.854  0.00  0.00    +0.000 OA
ENDBRANCH  16  23
ENDBRANCH  14  19
ENDBRANCH  12  15
ENDBRANCH  10  12
ENDBRANCH   1  11
BRANCH   3  24
ATOM     24  C   UNL     1       5.902   5.170  18.953  0.00  0.00    +0.000 C 
BRANCH  24  25
ATOM     25  C   UNL     1       5.905   5.155  17.461  0.00  0.00    +0.000 A 
ATOM     26  C   UNL     1       6.551   4.124  16.762  0.00  0.00    +0.000 A 
ATOM     27  C   UNL     1       6.595   4.145  15.372  0.00  0.00    +0.000 A 
ATOM     28  C   UNL     1       6.001   5.194  14.672  0.00  0.00    +0.000 A 
ATOM     29  C   UNL     1       5.359   6.209  15.368  0.00  0.00    +0.000 A 
ATOM     30  F   UNL     1       4.792   7.221  14.696  0.00  0.00    +0.000 F 
ATOM     31  C   UNL     1       5.298   6.198  16.750  0.00  0.00    +0.000 A 
ENDBRANCH  24  25
ENDBRANCH   3  24
TORSDOF 7
ENDMDL
MODEL 3
REMARK VINA RESULT:      -9.3      5.079      9.065
REMARK  Name = 
REMARK  8 active torsions:
REMARK  status: ('A' for Active; 'I' for Inactive)
REMARK    1  A    between atoms: C_1  and  O_2
REMARK    2  A    between atoms: O_2  and  C_3
REMARK    3  A    between atoms: C_6  and  C_7
REMARK    4  A    between atoms: C_8  and  C_9
REMARK    5  A    between atoms: C_9  and  C_11
REMARK    6  A    between atoms: C_12  and  C_13
REMARK    7  A    between atoms: N_15  and  C_16
REMARK    8  A    between atoms: C_16  and  C_17
REMARK                            x       y       z     vdW  Elec       q    Type
REMARK                         _______ _______ _______ _____ _____    ______ ____
ROOT
ATOM      1  C   UNL     1       2.593   5.927  18.683  0.00  0.00    +0.000 A 
ATOM      2  C   UNL     1       3.533   6.080  19.693  0.00  0.00    +0.000 A 
ATOM      3  N   UNL     1       4.444   5.086  19.480  0.00  0.00    +0.000 N 
ATOM      4  C   UNL     1       3.747   3.978  19.101  0.00  0.00    +0.000 A 
ATOM      5  C   UNL     1       4.105   2.626  19.247  0.00  0.00    +0.000 A 
ATOM      6  C   UNL     1       3.315   1.689  18.616  0.00  0.00    +0.000 A 
ATOM      7  C   UNL     1       2.256   2.115  17.822  0.00  0.00    +0.000 A 
ATOM      8  C   UNL     1       1.916   3.496  17.674  0.00  0.00    +0.000 A 
ATOM      9  C   UNL     1       2.639   4.483  18.389  0.00  0.00    +0.000 A 
ENDROOT
BRANCH   1  11
ATOM     10  C   UNL     1       2.277   8.358  17.977  0.00  0.00    +0.000 C 
ATOM     11  C   UNL     1       1.847   7.142  18.368  0.00  0.00    +0.000 C 
BRANCH  10  12
ATOM     12  C   UNL     1       1.541   9.712  17.995  0.00  0.00    +0.000 C 
ATOM     13  O   UNL     1       2.236  10.732  17.993  0.00  0.00    +0.000 OA
BRANCH  12  15
ATOM     14  C   UNL     1      -0.572  11.000  18.510  0.00  0.00    +0.000 C 
ATOM     15  C   UNL     1       0.021   9.844  18.098  0.00  0.00    +0.000 C 
BRANCH  14  19
ATOM     16  C   UNL     1      -4.780  12.150  19.062  0.00  0.00    +0.000 A 
ATOM     17  C   UNL     1      -4.380  11.329  18.001  0.00  0.00    +0.000 A 
ATOM     18  C   UNL     1      -3.035  10.931  17.807  0.00  0.00    +0.000 A 
ATOM     19  C   UNL     1      -2.026  11.365  18.681  0.00  0.00    +0.000 A 
ATOM     20  C   UNL     1      -2.446  12.200  19.751  0.00  0.00    +0.000 A 
ATOM     21  C   UNL     1      -3.801  12.590  19.943  0.00  0.00    +0.000 A 
BRANCH  16  23
ATOM     22  C   UNL     1      -6.981  11.846  18.140  0.00  0.00    +0.000 C 
ATOM     23  O   UNL     1      -6.111  12.477  19.076  0.00  0.00    +0.000 OA
ENDBRANCH  16  23
ENDBRANCH  14  19
ENDBRANCH  12  15
ENDBRANCH  10  12
ENDBRANCH   1  11
BRANCH   3  24
ATOM     24  C   UNL     1       5.813   5.325  19.027  0.00  0.00    +0.000 C 
BRANCH  24  25
ATOM     25  C   UNL     1       5.903   5.272  17.539  0.00  0.00    +0.000 A 
ATOM     26  C   UNL     1       6.661   4.275  16.907  0.00  0.00    +0.000 A 
ATOM     27  C   UNL     1       6.784   4.263  15.522  0.00  0.00    +0.000 A 
ATOM     28  C   UNL     1       6.156   5.248  14.759  0.00  0.00    +0.000 A 
ATOM     29  C   UNL     1       5.403   6.229  15.388  0.00  0.00    +0.000 A 
ATOM     30  F   UNL     1       4.803   7.179  14.655  0.00  0.00    +0.000 F 
ATOM     31  C   UNL     1       5.263   6.249  16.764  0.00  0.00    +0.000 A 
ENDBRANCH  24  25
ENDBRANCH   3  24
TORSDOF 7
ENDMDL
MODEL 4
REMARK VINA RESULT:      -9.3      5.108      8.458
REMARK  Name = 
REMARK  8 active torsions:
REMARK  status: ('A' for Active; 'I' for Inactive)
REMARK    1  A    between atoms: C_1  and  O_2
REMARK    2  A    between atoms: O_2  and  C_3
REMARK    3  A    between atoms: C_6  and  C_7
REMARK    4  A    between atoms: C_8  and  C_9
REMARK    5  A    between atoms: C_9  and  C_11
REMARK    6  A    between atoms: C_12  and  C_13
REMARK    7  A    between atoms: N_15  and  C_16
REMARK    8  A    between atoms: C_16  and  C_17
REMARK                            x       y       z     vdW  Elec       q    Type
REMARK                         _______ _______ _______ _____ _____    ______ ____
ROOT
ATOM      1  C   UNL     1       2.588   5.943  18.862  0.00  0.00    +0.000 A 
ATOM      2  C   UNL     1       3.600   6.031  19.809  0.00  0.00    +0.000 A 
ATOM      3  N   UNL     1       4.453   5.007  19.510  0.00  0.00    +0.000 N 
ATOM      4  C   UNL     1       3.687   3.939  19.151  0.00  0.00    +0.000 A 
ATOM      5  C   UNL     1       3.997   2.570  19.240  0.00  0.00    +0.000 A 
ATOM      6  C   UNL     1       3.129   1.683  18.640  0.00  0.00    +0.000 A 
ATOM      7  C   UNL     1       2.038   2.172  17.932  0.00  0.00    +0.000 A 
ATOM      8  C   UNL     1       1.746   3.569  17.841  0.00  0.00    +0.000 A 
ATOM      9  C   UNL     1       2.555   4.506  18.529  0.00  0.00    +0.000 A 
ENDROOT
BRANCH   1  11
ATOM     10  C   UNL     1       2.279   8.340  18.044  0.00  0.00    +0.000 C 
ATOM     11  C   UNL     1       1.874   7.194  18.628  0.00  0.00    +0.000 C 
BRANCH  10  12
ATOM     12  C   UNL     1       1.665   9.751  18.119  0.00  0.00    +0.000 C 
ATOM     13  O   UNL     1       2.299  10.671  17.596  0.00  0.00    +0.000 OA
BRANCH  12  15
ATOM     14  C   UNL     1       0.333  10.984  19.878  0.00  0.00    +0.000 C 
ATOM     15  C   UNL     1       0.371  10.068  18.870  0.00  0.00    +0.000 C 
BRANCH  14  19
ATOM     16  C   UNL     1      -2.922  12.375  22.487  0.00  0.00    +0.000 A 
ATOM     17  C   UNL     1      -2.907  12.668  21.118  0.00  0.00    +0.000 A 
ATOM     18  C   UNL     1      -1.879  12.222  20.252  0.00  0.00    +0.000 A 
ATOM     19  C   UNL     1      -0.806  11.463  20.744  0.00  0.00    +0.000 A 
ATOM     20  C   UNL     1      -0.833  11.176  22.135  0.00  0.00    +0.000 A 
ATOM     21  C   UNL     1      -1.873  11.622  22.998  0.00  0.00    +0.000 A 
BRANCH  16  23
ATOM     22  C   UNL     1      -4.071  12.645  24.582  0.00  0.00    +0.000 C 
ATOM     23  O   UNL     1      -3.964  12.922  23.188  0.00  0.00    +0.000 OA
ENDBRANCH  16  23
ENDBRANCH  14  19
ENDBRANCH  12  15
ENDBRANCH  10  12
ENDBRANCH   1  11
BRANCH   3  24
ATOM     24  C   UNL     1       5.796   5.205  18.970  0.00  0.00    +0.000 C 
BRANCH  24  25
ATOM     25  C   UNL     1       5.767   5.325  17.484  0.00  0.00    +0.000 A 
ATOM     26  C   UNL     1       5.353   6.518  16.874  0.00  0.00    +0.000 A 
ATOM     27  C   UNL     1       5.278   6.605  15.488  0.00  0.00    +0.000 A 
ATOM     28  C   UNL     1       5.611   5.502  14.702  0.00  0.00    +0.000 A 
ATOM     29  C   UNL     1       6.025   4.325  15.310  0.00  0.00    +0.000 A 
ATOM     30  F   UNL     1       6.341   3.263  14.556  0.00  0.00    +0.000 F 
ATOM     31  C   UNL     1       6.114   4.226  16.687  0.00  0.00    +0.000 A 
ENDBRANCH  24  25
ENDBRANCH   3  24
TORSDOF 7
ENDMDL
MODEL 5
REMARK VINA RESULT:      -9.2      4.418      9.018
REMARK  Name = 
REMARK  8 active torsions:
REMARK  status: ('A' for Active; 'I' for Inactive)
REMARK    1  A    between atoms: C_1  and  O_2
REMARK    2  A    between atoms: O_2  and  C_3
REMARK    3  A    between atoms: C_6  and  C_7
REMARK    4  A    between atoms: C_8  and  C_9
REMARK    5  A    between atoms: C_9  and  C_11
REMARK    6  A    between atoms: C_12  and  C_13
REMARK    7  A    between atoms: N_15  and  C_16
REMARK    8  A    between atoms: C_16  and  C_17
REMARK                            x       y       z     vdW  Elec       q    Type
REMARK                         _______ _______ _______ _____ _____    ______ ____
ROOT
ATOM      1  C   UNL     1       2.739   5.807  18.762  0.00  0.00    +0.000 A 
ATOM      2  C   UNL     1       3.742   5.677  19.713  0.00  0.00    +0.000 A 
ATOM      3  N   UNL     1       4.120   4.366  19.649  0.00  0.00    +0.000 N 
ATOM      4  C   UNL     1       2.987   3.630  19.473  0.00  0.00    +0.000 A 
ATOM      5  C   UNL     1       2.747   2.293  19.835  0.00  0.00    +0.000 A 
ATOM      6  C   UNL     1       1.580   1.714  19.384  0.00  0.00    +0.000 A 
ATOM      7  C   UNL     1       0.735   2.441  18.553  0.00  0.00    +0.000 A 
ATOM      8  C   UNL     1       1.003   3.797  18.186  0.00  0.00    +0.000 A 
ATOM      9  C   UNL     1       2.139   4.461  18.711  0.00  0.00    +0.000 A 
ENDROOT
BRANCH   1  11
ATOM     10  C   UNL     1       1.955   8.235  18.831  0.00  0.00    +0.000 C 
ATOM     11  C   UNL     1       2.555   7.168  18.266  0.00  0.00    +0.000 C 
BRANCH  10  12
ATOM     12  C   UNL     1       1.451   9.537  18.180  0.00  0.00    +0.000 C 
ATOM     13  O   UNL     1       2.150  10.030  17.290  0.00  0.00    +0.000 OA
BRANCH  12  15
ATOM     14  C   UNL     1      -0.985  10.174  17.958  0.00  0.00    +0.000 C 
ATOM     15  C   UNL     1       0.193  10.276  18.636  0.00  0.00    +0.000 C 
BRANCH  14  19
ATOM     16  C   UNL     1      -4.880  12.056  18.748  0.00  0.00    +0.000 A 
ATOM     17  C   UNL     1      -4.726  11.086  17.752  0.00  0.00    +0.000 A 
ATOM     18  C   UNL     1      -3.487  10.453  17.484  0.00  0.00    +0.000 A 
ATOM     19  C   UNL     1      -2.337  10.791  18.216  0.00  0.00    +0.000 A 
ATOM     20  C   UNL     1      -2.508  11.780  19.222  0.00  0.00    +0.000 A 
ATOM     21  C   UNL     1      -3.758  12.406  19.489  0.00  0.00    +0.000 A 
BRANCH  16  23
ATOM     22  C   UNL     1      -7.263  11.757  18.635  0.00  0.00    +0.000 C 
ATOM     23  O   UNL     1      -6.133  12.600  18.844  0.00  0.00    +0.000 OA
ENDBRANCH  16  23
ENDBRANCH  14  19
ENDBRANCH  12  15
ENDBRANCH  10  12
ENDBRANCH   1  11
BRANCH   3  24
ATOM     24  C   UNL     1       5.413   3.921  19.133  0.00  0.00    +0.000 C 
BRANCH  24  25
ATOM     25  C   UNL     1       6.103   5.017  18.392  0.00  0.00    +0.000 A 
ATOM     26  C   UNL     1       5.798   5.268  17.046  0.00  0.00    +0.000 A 
ATOM     27  C   UNL     1       6.483   6.256  16.347  0.00  0.00    +0.000 A 
ATOM     28  C   UNL     1       7.479   6.996  16.985  0.00  0.00    +0.000 A 
ATOM     29  C   UNL     1       7.774   6.748  18.318  0.00  0.00    +0.000 A 
ATOM     30  F   UNL     1       8.734   7.455  18.930  0.00  0.00    +0.000 F 
ATOM     31  C   UNL     1       7.094   5.774  19.029  0.00  0.00    +0.000 A 
ENDBRANCH  24  25
ENDBRANCH   3  24
TORSDOF 7
ENDMDL
MODEL 6
REMARK VINA RESULT:      -9.2      0.620      1.093
REMARK  Name = 
REMARK  8 active torsions:
REMARK  status: ('A' for Active; 'I' for Inactive)
REMARK    1  A    between atoms: C_1  and  O_2
REMARK    2  A    between atoms: O_2  and  C_3
REMARK    3  A    between atoms: C_6  and  C_7
REMARK    4  A    between atoms: C_8  and  C_9
REMARK    5  A    between atoms: C_9  and  C_11
REMARK    6  A    between atoms: C_12  and  C_13
REMARK    7  A    between atoms: N_15  and  C_16
REMARK    8  A    between atoms: C_16  and  C_17
REMARK                            x       y       z     vdW  Elec       q    Type
REMARK                         _______ _______ _______ _____ _____    ______ ____
ROOT
ATOM      1  C   UNL     1       3.814   5.706  18.625  0.00  0.00    +0.000 A 
ATOM      2  C   UNL     1       2.779   6.622  18.500  0.00  0.00    +0.000 A 
ATOM      3  N   UNL     1       2.020   6.452  19.622  0.00  0.00    +0.000 N 
ATOM      4  C   UNL     1       1.973   5.114  19.875  0.00  0.00    +0.000 A 
ATOM      5  C   UNL     1       0.979   4.386  20.554  0.00  0.00    +0.000 A 
ATOM      6  C   UNL     1       1.247   3.066  20.844  0.00  0.00    +0.000 A 
ATOM      7  C   UNL     1       2.490   2.536  20.518  0.00  0.00    +0.000 A 
ATOM      8  C   UNL     1       3.494   3.296  19.839  0.00  0.00    +0.000 A 
ATOM      9  C   UNL     1       3.219   4.624  19.432  0.00  0.00    +0.000 A 
ENDROOT
BRANCH   1  11
ATOM     10  C   UNL     1       6.280   6.263  18.275  0.00  0.00    +0.000 C 
ATOM     11  C   UNL     1       5.013   6.047  17.866  0.00  0.00    +0.000 C 
BRANCH  10  12
ATOM     12  C   UNL     1       7.442   6.962  17.544  0.00  0.00    +0.000 C 
ATOM     13  O   UNL     1       7.664   6.620  16.380  0.00  0.00    +0.000 OA
BRANCH  12  15
ATOM     14  C   UNL     1       8.239   9.318  17.997  0.00  0.00    +0.000 C 
ATOM     15  C   UNL     1       8.368   7.979  18.213  0.00  0.00    +0.000 C 
BRANCH  14  19
ATOM     16  C   UNL     1      10.551  12.676  19.644  0.00  0.00    +0.000 A 
ATOM     17  C   UNL     1       9.980  12.738  18.368  0.00  0.00    +0.000 A 
ATOM     18  C   UNL     1       9.219  11.678  17.817  0.00  0.00    +0.000 A 
ATOM     19  C   UNL     1       9.014  10.492  18.541  0.00  0.00    +0.000 A 
ATOM     20  C   UNL     1       9.603  10.442  19.833  0.00  0.00    +0.000 A 
ATOM     21  C   UNL     1      10.360  11.515  20.381  0.00  0.00    +0.000 A 
BRANCH  16  23
ATOM     22  C   UNL     1      10.778  14.651  20.997  0.00  0.00    +0.000 C 
ATOM     23  O   UNL     1      11.294  13.769  20.004  0.00  0.00    +0.000 OA
ENDBRANCH  16  23
ENDBRANCH  14  19
ENDBRANCH  12  15
ENDBRANCH  10  12
ENDBRANCH   1  11
BRANCH   3  24
ATOM     24  C   UNL     1       1.929   7.441  20.695  0.00  0.00    +0.000 C 
BRANCH  24  25
ATOM     25  C   UNL     1       1.147   8.634  20.262  0.00  0.00    +0.000 A 
ATOM     26  C   UNL     1       1.282   9.141  18.961  0.00  0.00    +0.000 A 
ATOM     27  C   UNL     1       0.590  10.285  18.580  0.00  0.00    +0.000 A 
ATOM     28  C   UNL     1      -0.240  10.933  19.496  0.00  0.00    +0.000 A 
ATOM     29  C   UNL     1      -0.375  10.425  20.781  0.00  0.00    +0.000 A 
ATOM     30  F   UNL     1      -1.168  11.050  21.663  0.00  0.00    +0.000 F 
ATOM     31  C   UNL     1       0.300   9.282  21.171  0.00  0.00    +0.000 A 
ENDBRANCH  24  25
ENDBRANCH   3  24
TORSDOF 7
ENDMDL
MODEL 7
REMARK VINA RESULT:      -9.2      5.167      9.090
REMARK  Name = 
REMARK  8 active torsions:
REMARK  status: ('A' for Active; 'I' for Inactive)
REMARK    1  A    between atoms: C_1  and  O_2
REMARK    2  A    between atoms: O_2  and  C_3
REMARK    3  A    between atoms: C_6  and  C_7
REMARK    4  A    between atoms: C_8  and  C_9
REMARK    5  A    between atoms: C_9  and  C_11
REMARK    6  A    between atoms: C_12  and  C_13
REMARK    7  A    between atoms: N_15  and  C_16
REMARK    8  A    between atoms: C_16  and  C_17
REMARK                            x       y       z     vdW  Elec       q    Type
REMARK                         _______ _______ _______ _____ _____    ______ ____
ROOT
ATOM      1  C   UNL     1       2.695   5.983  19.060  0.00  0.00    +0.000 A 
ATOM      2  C   UNL     1       3.748   5.948  19.965  0.00  0.00    +0.000 A 
ATOM      3  N   UNL     1       4.535   4.913  19.548  0.00  0.00    +0.000 N 
ATOM      4  C   UNL     1       3.702   3.914  19.142  0.00  0.00    +0.000 A 
ATOM      5  C   UNL     1       3.948   2.530  19.108  0.00  0.00    +0.000 A 
ATOM      6  C   UNL     1       3.012   1.735  18.481  0.00  0.00    +0.000 A 
ATOM      7  C   UNL     1       1.918   2.330  17.863  0.00  0.00    +0.000 A 
ATOM      8  C   UNL     1       1.693   3.742  17.896  0.00  0.00    +0.000 A 
ATOM      9  C   UNL     1       2.576   4.582  18.618  0.00  0.00    +0.000 A 
ENDROOT
BRANCH   1  11
ATOM     10  C   UNL     1       2.016   8.180  17.953  0.00  0.00    +0.000 C 
ATOM     11  C   UNL     1       2.035   7.282  18.959  0.00  0.00    +0.000 C 
BRANCH  10  12
ATOM     12  C   UNL     1       1.633   9.672  17.977  0.00  0.00    +0.000 C 
ATOM     13  O   UNL     1       2.480  10.478  17.584  0.00  0.00    +0.000 OA
BRANCH  12  15
ATOM     14  C   UNL     1      -0.810  10.284  17.760  0.00  0.00    +0.000 C 
ATOM     15  C   UNL     1       0.308  10.194  18.533  0.00  0.00    +0.000 C 
BRANCH  14  19
ATOM     16  C   UNL     1      -4.920  11.551  18.676  0.00  0.00    +0.000 A 
ATOM     17  C   UNL     1      -3.813  12.203  19.231  0.00  0.00    +0.000 A 
ATOM     18  C   UNL     1      -2.478  11.826  18.944  0.00  0.00    +0.000 A 
ATOM     19  C   UNL     1      -2.208  10.751  18.082  0.00  0.00    +0.000 A 
ATOM     20  C   UNL     1      -3.341  10.097  17.528  0.00  0.00    +0.000 A 
ATOM     21  C   UNL     1      -4.678  10.486  17.817  0.00  0.00    +0.000 A 
BRANCH  16  23
ATOM     22  C   UNL     1      -6.244  13.362  19.541  0.00  0.00    +0.000 C 
ATOM     23  O   UNL     1      -6.139  12.012  19.096  0.00  0.00    +0.000 OA
ENDBRANCH  16  23
ENDBRANCH  14  19
ENDBRANCH  12  15
ENDBRANCH  10  12
ENDBRANCH   1  11
BRANCH   3  24
ATOM     24  C   UNL     1       5.864   5.091  18.965  0.00  0.00    +0.000 C 
BRANCH  24  25
ATOM     25  C   UNL     1       5.784   5.252  17.484  0.00  0.00    +0.000 A 
ATOM     26  C   UNL     1       5.335   6.456  16.922  0.00  0.00    +0.000 A 
ATOM     27  C   UNL     1       5.213   6.581  15.543  0.00  0.00    +0.000 A 
ATOM     28  C   UNL     1       5.536   5.505  14.715  0.00  0.00    +0.000 A 
ATOM     29  C   UNL     1       5.985   4.317  15.276  0.00  0.00    +0.000 A 
ATOM     30  F   UNL     1       6.291   3.281  14.482  0.00  0.00    +0.000 F 
ATOM     31  C   UNL     1       6.120   4.181  16.646  0.00  0.00    +0.000 A 
ENDBRANCH  24  25
ENDBRANCH   3  24
TORSDOF 7
ENDMDL
MODEL 8
REMARK VINA RESULT:      -9.2      5.466      9.611
REMARK  Name = 
REMARK  8 active torsions:
REMARK  status: ('A' for Active; 'I' for Inactive)
REMARK    1  A    between atoms: C_1  and  O_2
REMARK    2  A    between atoms: O_2  and  C_3
REMARK    3  A    between atoms: C_6  and  C_7
REMARK    4  A    between atoms: C_8  and  C_9
REMARK    5  A    between atoms: C_9  and  C_11
REMARK    6  A    between atoms: C_12  and  C_13
REMARK    7  A    between atoms: N_15  and  C_16
REMARK    8  A    between atoms: C_16  and  C_17
REMARK                            x       y       z     vdW  Elec       q    Type
REMARK                         _______ _______ _______ _____ _____    ______ ____
ROOT
ATOM      1  C   UNL     1       2.465   6.039  18.628  0.00  0.00    +0.000 A 
ATOM      2  C   UNL     1       3.767   5.805  18.208  0.00  0.00    +0.000 A 
ATOM      3  N   UNL     1       3.926   4.451  18.291  0.00  0.00    +0.000 N 
ATOM      4  C   UNL     1       3.290   4.042  19.425  0.00  0.00    +0.000 A 
ATOM      5  C   UNL     1       3.555   2.911  20.217  0.00  0.00    +0.000 A 
ATOM      6  C   UNL     1       2.653   2.610  21.215  0.00  0.00    +0.000 A 
ATOM      7  C   UNL     1       1.508   3.385  21.353  0.00  0.00    +0.000 A 
ATOM      8  C   UNL     1       1.249   4.525  20.528  0.00  0.00    +0.000 A 
ATOM      9  C   UNL     1       2.200   4.927  19.560  0.00  0.00    +0.000 A 
ENDROOT
BRANCH   1  11
ATOM     10  C   UNL     1       2.206   8.568  18.406  0.00  0.00    +0.000 C 
ATOM     11  C   UNL     1       1.889   7.286  18.133  0.00  0.00    +0.000 C 
BRANCH  10  12
ATOM     12  C   UNL     1       1.387   9.853  18.174  0.00  0.00    +0.000 C 
ATOM     13  O   UNL     1       1.986  10.927  18.261  0.00  0.00    +0.000 OA
BRANCH  12  15
ATOM     14  C   UNL     1      -0.880  10.971  18.139  0.00  0.00    +0.000 C 
ATOM     15  C   UNL     1      -0.122   9.857  17.930  0.00  0.00    +0.000 C 
BRANCH  14  19
ATOM     16  C   UNL     1      -5.183  11.759  17.699  0.00  0.00    +0.000 A 
ATOM     17  C   UNL     1      -4.434  11.194  16.661  0.00  0.00    +0.000 A 
ATOM     18  C   UNL     1      -3.051  10.916  16.779  0.00  0.00    +0.000 A 
ATOM     19  C   UNL     1      -2.358  11.215  17.963  0.00  0.00    +0.000 A 
ATOM     20  C   UNL     1      -3.131  11.791  19.007  0.00  0.00    +0.000 A 
ATOM     21  C   UNL     1      -4.522  12.061  18.883  0.00  0.00    +0.000 A 
BRANCH  16  23
ATOM     22  C   UNL     1      -7.336  12.557  18.415  0.00  0.00    +0.000 C 
ATOM     23  O   UNL     1      -6.498  12.005  17.403  0.00  0.00    +0.000 OA
ENDBRANCH  16  23
ENDBRANCH  14  19
ENDBRANCH  12  15
ENDBRANCH  10  12
ENDBRANCH   1  11
BRANCH   3  24
ATOM     24  C   UNL     1       4.057   3.579  17.126  0.00  0.00    +0.000 C 
BRANCH  24  25
ATOM     25  C   UNL     1       5.222   3.976  16.284  0.00  0.00    +0.000 A 
ATOM     26  C   UNL     1       6.351   4.571  16.866  0.00  0.00    +0.000 A 
ATOM     27  C   UNL     1       7.411   4.987  16.068  0.00  0.00    +0.000 A 
ATOM     28  C   UNL     1       7.351   4.817  14.685  0.00  0.00    +0.000 A 
ATOM     29  C   UNL     1       6.233   4.223  14.114  0.00  0.00    +0.000 A 
ATOM     30  F   UNL     1       6.172   4.064  12.784  0.00  0.00    +0.000 F 
ATOM     31  C   UNL     1       5.175   3.795  14.895  0.00  0.00    +0.000 A 
ENDBRANCH  24  25
ENDBRANCH   3  24
TORSDOF 7
ENDMDL
MODEL 9
REMARK VINA RESULT:      -9.1      5.160      9.084
REMARK  Name = 
REMARK  8 active torsions:
REMARK  status: ('A' for Active; 'I' for Inactive)
REMARK    1  A    between atoms: C_1  and  O_2
REMARK    2  A    between atoms: O_2  and  C_3
REMARK    3  A    between atoms: C_6  and  C_7
REMARK    4  A    between atoms: C_8  and  C_9
REMARK    5  A    between atoms: C_9  and  C_11
REMARK    6  A    between atoms: C_12  and  C_13
REMARK    7  A    between atoms: N_15  and  C_16
REMARK    8  A    between atoms: C_16  and  C_17
REMARK                            x       y       z     vdW  Elec       q    Type
REMARK                         _______ _______ _______ _____ _____    ______ ____
ROOT
ATOM      1  C   UNL     1       2.442   6.084  18.649  0.00  0.00    +0.000 A 
ATOM      2  C   UNL     1       3.410   6.235  19.633  0.00  0.00    +0.000 A 
ATOM      3  N   UNL     1       4.182   5.113  19.543  0.00  0.00    +0.000 N 
ATOM      4  C   UNL     1       3.343   4.067  19.302  0.00  0.00    +0.000 A 
ATOM      5  C   UNL     1       3.526   2.708  19.612  0.00  0.00    +0.000 A 
ATOM      6  C   UNL     1       2.613   1.811  19.100  0.00  0.00    +0.000 A 
ATOM      7  C   UNL     1       1.605   2.272  18.260  0.00  0.00    +0.000 A 
ATOM      8  C   UNL     1       1.443   3.657  17.944  0.00  0.00    +0.000 A 
ATOM      9  C   UNL     1       2.298   4.621  18.533  0.00  0.00    +0.000 A 
ENDROOT
BRANCH   1  11
ATOM     10  C   UNL     1       2.391   8.569  18.074  0.00  0.00    +0.000 C 
ATOM     11  C   UNL     1       1.854   7.338  18.187  0.00  0.00    +0.000 C 
BRANCH  10  12
ATOM     12  C   UNL     1       1.693   9.936  17.937  0.00  0.00    +0.000 C 
ATOM     13  O   UNL     1       2.405  10.942  17.994  0.00  0.00    +0.000 OA
BRANCH  12  15
ATOM     14  C   UNL     1      -0.525  10.898  18.675  0.00  0.00    +0.000 C 
ATOM     15  C   UNL     1       0.177  10.101  17.823  0.00  0.00    +0.000 C 
BRANCH  14  19
ATOM     16  C   UNL     1      -4.792  11.927  18.939  0.00  0.00    +0.000 A 
ATOM     17  C   UNL     1      -4.329  10.955  18.045  0.00  0.00    +0.000 A 
ATOM     18  C   UNL     1      -2.963  10.593  17.948  0.00  0.00    +0.000 A 
ATOM     19  C   UNL     1      -1.997  11.219  18.753  0.00  0.00    +0.000 A 
ATOM     20  C   UNL     1      -2.482  12.205  19.654  0.00  0.00    +0.000 A 
ATOM     21  C   UNL     1      -3.857  12.557  19.750  0.00  0.00    +0.000 A 
BRANCH  16  23
ATOM     22  C   UNL     1      -7.022  11.128  18.524  0.00  0.00    +0.000 C 
ATOM     23  O   UNL     1      -6.135  12.188  18.872  0.00  0.00    +0.000 OA
ENDBRANCH  16  23
ENDBRANCH  14  19
ENDBRANCH  12  15
ENDBRANCH  10  12
ENDBRANCH   1  11
BRANCH   3  24
ATOM     24  C   UNL     1       5.563   5.116  19.065  0.00  0.00    +0.000 C 
BRANCH  24  25
ATOM     25  C   UNL     1       5.617   5.248  17.580  0.00  0.00    +0.000 A 
ATOM     26  C   UNL     1       5.310   6.469  16.962  0.00  0.00    +0.000 A 
ATOM     27  C   UNL     1       5.312   6.570  15.575  0.00  0.00    +0.000 A 
ATOM     28  C   UNL     1       5.615   5.453  14.796  0.00  0.00    +0.000 A 
ATOM     29  C   UNL     1       5.923   4.248  15.412  0.00  0.00    +0.000 A 
ATOM     30  F   UNL     1       6.210   3.173  14.664  0.00  0.00    +0.000 F 
ATOM     31  C   UNL     1       5.935   4.135  16.791  0.00  0.00    +0.000 A 
ENDBRANCH  24  25
ENDBRANCH   3  24
TORSDOF 7
ENDMDL
