MODEL 1
REMARK VINA RESULT:      -5.8      0.000      0.000
REMARK  Name = 
REMARK  15 active torsions:
REMARK  status: ('A' for Active; 'I' for Inactive)
REMARK    1  A    between atoms: C_2  and  C_3
REMARK    2  A    between atoms: C_3  and  O_4
REMARK    3  A    between atoms: C_3  and  C_5
REMARK    4  A    between atoms: C_6  and  C_7
REMARK    5  A    between atoms: C_8  and  C_9
REMARK    6  A    between atoms: C_9  and  C_10
REMARK    7  A    between atoms: C_11  and  C_12
REMARK    8  A    between atoms: C_12  and  C_13
REMARK    9  A    between atoms: C_13  and  C_14
REMARK   10  A    between atoms: C_14  and  C_15
REMARK   11  A    between atoms: C_15  and  C_16
REMARK   12  A    between atoms: C_16  and  C_17
REMARK   13  A    between atoms: C_17  and  C_18
REMARK   14  A    between atoms: C_18  and  C_19
REMARK   15  A    between atoms: C_19  and  O_20
REMARK                            x       y       z     vdW  Elec       q    Type
REMARK                         _______ _______ _______ _____ _____    ______ ____
ROOT
ATOM      1  C   UNL     1       6.038   5.776  16.155  0.00  0.00    +0.000 C 
ATOM      2  C   UNL     1       4.820   6.344  16.221  0.00  0.00    +0.000 C 
ENDROOT
BRANCH   1   3
ATOM      3  C   UNL     1       7.021   5.693  17.280  0.00  0.00    +0.000 C 
BRANCH   3   5
ATOM      4  C   UNL     1       8.061   8.252  17.861  0.00  0.00    +0.000 C 
ATOM      5  C   UNL     1       7.581   7.070  17.593  0.00  0.00    +0.000 C 
BRANCH   4   7
ATOM      6  C   UNL     1       9.102  10.813  18.441  0.00  0.00    +0.000 C 
ATOM      7  C   UNL     1       8.622   9.631  18.173  0.00  0.00    +0.000 C 
BRANCH   6   8
ATOM      8  C   UNL     1       9.662  12.190  18.754  0.00  0.00    +0.000 C 
BRANCH   8  10
ATOM      9  C   UNL     1       9.482  11.799  21.247  0.00  0.00    +0.000 C 
ATOM     10  C   UNL     1      10.140  12.268  20.176  0.00  0.00    +0.000 C 
ENDBRANCH   8  10
BRANCH   8  11
ATOM     11  O   UNL     1      10.723  12.468  17.851  0.00  0.00    +0.000 OA
ATOM     12  H   UNL     1      11.334  13.047  18.335  0.00  0.00    +0.000 HD
ENDBRANCH   8  11
ENDBRANCH   6   8
ENDBRANCH   4   7
ENDBRANCH   3   5
ENDBRANCH   1   3
BRANCH   2  13
ATOM     13  C   UNL     1       4.224   6.944  17.469  0.00  0.00    +0.000 C 
BRANCH  13  14
ATOM     14  C   UNL     1       3.374   5.972  18.293  0.00  0.00    +0.000 C 
BRANCH  14  15
ATOM     15  C   UNL     1       4.097   5.308  19.470  0.00  0.00    +0.000 C 
BRANCH  15  16
ATOM     16  C   UNL     1       4.470   3.849  19.211  0.00  0.00    +0.000 C 
BRANCH  16  17
ATOM     17  C   UNL     1       3.526   3.206  18.194  0.00  0.00    +0.000 C 
BRANCH  17  18
ATOM     18  C   UNL     1       2.652   2.145  18.862  0.00  0.00    +0.000 C 
BRANCH  18  19
ATOM     19  C   UNL     1       1.177   2.549  18.853  0.00  0.00    +0.000 C 
BRANCH  19  20
ATOM     20  C   UNL     1       0.846   3.511  19.989  0.00  0.00    +0.000 C 
BRANCH  20  21
ATOM     21  O   UNL     1       0.825   2.836  21.239  0.00  0.00    +0.000 OA
ATOM     22  H   UNL     1       0.799   1.881  21.054  0.00  0.00    +0.000 HD
ENDBRANCH  20  21
ENDBRANCH  19  20
ENDBRANCH  18  19
ENDBRANCH  17  18
ENDBRANCH  16  17
ENDBRANCH  15  16
ENDBRANCH  14  15
ENDBRANCH  13  14
ENDBRANCH   2  13
TORSDOF 15
ENDMDL
MODEL 2
REMARK VINA RESULT:      -5.8      1.402      1.963
REMARK  Name = 
REMARK  15 active torsions:
REMARK  status: ('A' for Active; 'I' for Inactive)
REMARK    1  A    between atoms: C_2  and  C_3
REMARK    2  A    between atoms: C_3  and  O_4
REMARK    3  A    between atoms: C_3  and  C_5
REMARK    4  A    between atoms: C_6  and  C_7
REMARK    5  A    between atoms: C_8  and  C_9
REMARK    6  A    between atoms: C_9  and  C_10
REMARK    7  A    between atoms: C_11  and  C_12
REMARK    8  A    between atoms: C_12  and  C_13
REMARK    9  A    between atoms: C_13  and  C_14
REMARK   10  A    between atoms: C_14  and  C_15
REMARK   11  A    between atoms: C_15  and  C_16
REMARK   12  A    between atoms: C_16  and  C_17
REMARK   13  A    between atoms: C_17  and  C_18
REMARK   14  A    between atoms: C_18  and  C_19
REMARK   15  A    between atoms: C_19  and  O_20
REMARK                            x       y       z     vdW  Elec       q    Type
REMARK                         _______ _______ _______ _____ _____    ______ ____
ROOT
ATOM      1  C   UNL     1       6.409   5.956  15.974  0.00  0.00    +0.000 C 
ATOM      2  C   UNL     1       5.700   4.933  15.465  0.00  0.00    +0.000 C 
ENDROOT
BRANCH   1   3
ATOM      3  C   UNL     1       6.925   6.046  17.376  0.00  0.00    +0.000 C 
BRANCH   3   5
ATOM      4  C   UNL     1       8.083   8.580  17.831  0.00  0.00    +0.000 C 
ATOM      5  C   UNL     1       7.548   7.410  17.621  0.00  0.00    +0.000 C 
BRANCH   4   7
ATOM      6  C   UNL     1       9.242  11.115  18.287  0.00  0.00    +0.000 C 
ATOM      7  C   UNL     1       8.707   9.945  18.077  0.00  0.00    +0.000 C 
BRANCH   6   8
ATOM      8  C   UNL     1       9.865  12.479  18.532  0.00  0.00    +0.000 C 
BRANCH   8  10
ATOM      9  C   UNL     1      12.005  11.844  19.726  0.00  0.00    +0.000 C 
ATOM     10  C   UNL     1      11.357  12.372  18.676  0.00  0.00    +0.000 C 
ENDBRANCH   8  10
BRANCH   8  11
ATOM     11  O   UNL     1       9.524  13.337  17.453  0.00  0.00    +0.000 OA
ATOM     12  H   UNL     1       8.837  13.931  17.799  0.00  0.00    +0.000 HD
ENDBRANCH   8  11
ENDBRANCH   6   8
ENDBRANCH   4   7
ENDBRANCH   3   5
ENDBRANCH   1   3
BRANCH   2  13
ATOM     13  C   UNL     1       5.355   3.675  16.220  0.00  0.00    +0.000 C 
BRANCH  13  14
ATOM     14  C   UNL     1       3.986   3.704  16.906  0.00  0.00    +0.000 C 
BRANCH  14  15
ATOM     15  C   UNL     1       3.946   3.090  18.310  0.00  0.00    +0.000 C 
BRANCH  15  16
ATOM     16  C   UNL     1       4.563   3.986  19.384  0.00  0.00    +0.000 C 
BRANCH  16  17
ATOM     17  C   UNL     1       3.850   5.337  19.458  0.00  0.00    +0.000 C 
BRANCH  17  18
ATOM     18  C   UNL     1       2.336   5.146  19.541  0.00  0.00    +0.000 C 
BRANCH  18  19
ATOM     19  C   UNL     1       1.890   4.825  20.968  0.00  0.00    +0.000 C 
BRANCH  19  20
ATOM     20  C   UNL     1       1.484   3.363  21.121  0.00  0.00    +0.000 C 
BRANCH  20  21
ATOM     21  O   UNL     1       2.340   2.689  22.032  0.00  0.00    +0.000 OA
ATOM     22  H   UNL     1       3.228   3.076  21.939  0.00  0.00    +0.000 HD
ENDBRANCH  20  21
ENDBRANCH  19  20
ENDBRANCH  18  19
ENDBRANCH  17  18
ENDBRANCH  16  17
ENDBRANCH  15  16
ENDBRANCH  14  15
ENDBRANCH  13  14
ENDBRANCH   2  13
TORSDOF 15
ENDMDL
MODEL 3
REMARK VINA RESULT:      -5.7      1.576      2.267
REMARK  Name = 
REMARK  15 active torsions:
REMARK  status: ('A' for Active; 'I' for Inactive)
REMARK    1  A    between atoms: C_2  and  C_3
REMARK    2  A    between atoms: C_3  and  O_4
REMARK    3  A    between atoms: C_3  and  C_5
REMARK    4  A    between atoms: C_6  and  C_7
REMARK    5  A    between atoms: C_8  and  C_9
REMARK    6  A    between atoms: C_9  and  C_10
REMARK    7  A    between atoms: C_11  and  C_12
REMARK    8  A    between atoms: C_12  and  C_13
REMARK    9  A    between atoms: C_13  and  C_14
REMARK   10  A    between atoms: C_14  and  C_15
REMARK   11  A    between atoms: C_15  and  C_16
REMARK   12  A    between atoms: C_16  and  C_17
REMARK   13  A    between atoms: C_17  and  C_18
REMARK   14  A    between atoms: C_18  and  C_19
REMARK   15  A    between atoms: C_19  and  O_20
REMARK                            x       y       z     vdW  Elec       q    Type
REMARK                         _______ _______ _______ _____ _____    ______ ____
ROOT
ATOM      1  C   UNL     1       6.343   5.423  19.210  0.00  0.00    +0.000 C 
ATOM      2  C   UNL     1       5.163   5.350  18.569  0.00  0.00    +0.000 C 
ENDROOT
BRANCH   1   3
ATOM      3  C   UNL     1       7.679   5.594  18.557  0.00  0.00    +0.000 C 
BRANCH   3   5
ATOM      4  C   UNL     1       8.296   8.337  18.298  0.00  0.00    +0.000 C 
ATOM      5  C   UNL     1       8.011   7.070  18.417  0.00  0.00    +0.000 C 
BRANCH   4   7
ATOM      6  C   UNL     1       8.914  11.081  18.038  0.00  0.00    +0.000 C 
ATOM      7  C   UNL     1       8.629   9.814  18.158  0.00  0.00    +0.000 C 
BRANCH   6   8
ATOM      8  C   UNL     1       9.246  12.557  17.899  0.00  0.00    +0.000 C 
BRANCH   8  10
ATOM      9  C   UNL     1      11.451  13.763  17.605  0.00  0.00    +0.000 C 
ATOM     10  C   UNL     1      10.621  12.748  17.323  0.00  0.00    +0.000 C 
ENDBRANCH   8  10
BRANCH   8  11
ATOM     11  O   UNL     1       8.266  13.169  17.074  0.00  0.00    +0.000 OA
ATOM     12  H   UNL     1       7.409  12.938  17.470  0.00  0.00    +0.000 HD
ENDBRANCH   8  11
ENDBRANCH   6   8
ENDBRANCH   4   7
ENDBRANCH   3   5
ENDBRANCH   1   3
BRANCH   2  13
ATOM     13  C   UNL     1       4.992   5.486  17.077  0.00  0.00    +0.000 C 
BRANCH  13  14
ATOM     14  C   UNL     1       4.387   4.254  16.396  0.00  0.00    +0.000 C 
BRANCH  14  15
ATOM     15  C   UNL     1       3.534   3.360  17.302  0.00  0.00    +0.000 C 
BRANCH  15  16
ATOM     16  C   UNL     1       2.086   3.832  17.436  0.00  0.00    +0.000 C 
BRANCH  16  17
ATOM     17  C   UNL     1       1.413   3.218  18.664  0.00  0.00    +0.000 C 
BRANCH  17  18
ATOM     18  C   UNL     1       2.370   2.273  19.390  0.00  0.00    +0.000 C 
BRANCH  18  19
ATOM     19  C   UNL     1       3.024   2.955  20.592  0.00  0.00    +0.000 C 
BRANCH  19  20
ATOM     20  C   UNL     1       1.988   3.462  21.589  0.00  0.00    +0.000 C 
BRANCH  20  21
ATOM     21  O   UNL     1       1.417   2.387  22.322  0.00  0.00    +0.000 OA
ATOM     22  H   UNL     1       0.451   2.445  22.218  0.00  0.00    +0.000 HD
ENDBRANCH  20  21
ENDBRANCH  19  20
ENDBRANCH  18  19
ENDBRANCH  17  18
ENDBRANCH  16  17
ENDBRANCH  15  16
ENDBRANCH  14  15
ENDBRANCH  13  14
ENDBRANCH   2  13
TORSDOF 15
ENDMDL
MODEL 4
REMARK VINA RESULT:      -5.7      1.494      2.082
REMARK  Name = 
REMARK  15 active torsions:
REMARK  status: ('A' for Active; 'I' for Inactive)
REMARK    1  A    between atoms: C_2  and  C_3
REMARK    2  A    between atoms: C_3  and  O_4
REMARK    3  A    between atoms: C_3  and  C_5
REMARK    4  A    between atoms: C_6  and  C_7
REMARK    5  A    between atoms: C_8  and  C_9
REMARK    6  A    between atoms: C_9  and  C_10
REMARK    7  A    between atoms: C_11  and  C_12
REMARK    8  A    between atoms: C_12  and  C_13
REMARK    9  A    between atoms: C_13  and  C_14
REMARK   10  A    between atoms: C_14  and  C_15
REMARK   11  A    between atoms: C_15  and  C_16
REMARK   12  A    between atoms: C_16  and  C_17
REMARK   13  A    between atoms: C_17  and  C_18
REMARK   14  A    between atoms: C_18  and  C_19
REMARK   15  A    between atoms: C_19  and  O_20
REMARK                            x       y       z     vdW  Elec       q    Type
REMARK                         _______ _______ _______ _____ _____    ______ ____
ROOT
ATOM      1  C   UNL     1       5.965   5.113  16.832  0.00  0.00    +0.000 C 
ATOM      2  C   UNL     1       4.737   5.564  17.142  0.00  0.00    +0.000 C 
ENDROOT
BRANCH   1   3
ATOM      3  C   UNL     1       7.138   5.074  17.761  0.00  0.00    +0.000 C 
BRANCH   3   5
ATOM      4  C   UNL     1       8.120   7.685  18.203  0.00  0.00    +0.000 C 
ATOM      5  C   UNL     1       7.667   6.479  17.999  0.00  0.00    +0.000 C 
BRANCH   4   7
ATOM      6  C   UNL     1       9.102  10.295  18.645  0.00  0.00    +0.000 C 
ATOM      7  C   UNL     1       8.648   9.090  18.441  0.00  0.00    +0.000 C 
BRANCH   6   8
ATOM      8  C   UNL     1       9.629  11.700  18.883  0.00  0.00    +0.000 C 
BRANCH   8  10
ATOM      9  C   UNL     1      12.049  11.854  19.609  0.00  0.00    +0.000 C 
ATOM     10  C   UNL     1      10.747  11.693  19.888  0.00  0.00    +0.000 C 
ENDBRANCH   8  10
BRANCH   8  11
ATOM     11  O   UNL     1      10.070  12.238  17.645  0.00  0.00    +0.000 OA
ATOM     12  H   UNL     1      10.141  11.480  17.040  0.00  0.00    +0.000 HD
ENDBRANCH   8  11
ENDBRANCH   6   8
ENDBRANCH   4   7
ENDBRANCH   3   5
ENDBRANCH   1   3
BRANCH   2  13
ATOM     13  C   UNL     1       4.327   6.057  18.507  0.00  0.00    +0.000 C 
BRANCH  13  14
ATOM     14  C   UNL     1       2.957   5.558  18.975  0.00  0.00    +0.000 C 
BRANCH  14  15
ATOM     15  C   UNL     1       1.960   5.241  17.854  0.00  0.00    +0.000 C 
BRANCH  15  16
ATOM     16  C   UNL     1       1.273   3.885  18.015  0.00  0.00    +0.000 C 
BRANCH  16  17
ATOM     17  C   UNL     1       1.267   3.434  19.476  0.00  0.00    +0.000 C 
BRANCH  17  18
ATOM     18  C   UNL     1       1.853   2.029  19.611  0.00  0.00    +0.000 C 
BRANCH  18  19
ATOM     19  C   UNL     1       3.094   1.855  18.734  0.00  0.00    +0.000 C 
BRANCH  19  20
ATOM     20  C   UNL     1       4.356   1.666  19.569  0.00  0.00    +0.000 C 
BRANCH  20  21
ATOM     21  O   UNL     1       5.159   2.838  19.550  0.00  0.00    +0.000 OA
ATOM     22  H   UNL     1       5.991   2.614  19.096  0.00  0.00    +0.000 HD
ENDBRANCH  20  21
ENDBRANCH  19  20
ENDBRANCH  18  19
ENDBRANCH  17  18
ENDBRANCH  16  17
ENDBRANCH  15  16
ENDBRANCH  14  15
ENDBRANCH  13  14
ENDBRANCH   2  13
TORSDOF 15
ENDMDL
MODEL 5
REMARK VINA RESULT:      -5.6      0.966      1.853
REMARK  Name = 
REMARK  15 active torsions:
REMARK  status: ('A' for Active; 'I' for Inactive)
REMARK    1  A    between atoms: C_2  and  C_3
REMARK    2  A    between atoms: C_3  and  O_4
REMARK    3  A    between atoms: C_3  and  C_5
REMARK    4  A    between atoms: C_6  and  C_7
REMARK    5  A    between atoms: C_8  and  C_9
REMARK    6  A    between atoms: C_9  and  C_10
REMARK    7  A    between atoms: C_11  and  C_12
REMARK    8  A    between atoms: C_12  and  C_13
REMARK    9  A    between atoms: C_13  and  C_14
REMARK   10  A    between atoms: C_14  and  C_15
REMARK   11  A    between atoms: C_15  and  C_16
REMARK   12  A    between atoms: C_16  and  C_17
REMARK   13  A    between atoms: C_17  and  C_18
REMARK   14  A    between atoms: C_18  and  C_19
REMARK   15  A    between atoms: C_19  and  O_20
REMARK                            x       y       z     vdW  Elec       q    Type
REMARK                         _______ _______ _______ _____ _____    ______ ____
ROOT
ATOM      1  C   UNL     1       4.558   6.695  17.453  0.00  0.00    +0.000 C 
ATOM      2  C   UNL     1       3.808   6.143  18.423  0.00  0.00    +0.000 C 
ENDROOT
BRANCH   1   3
ATOM      3  C   UNL     1       5.970   6.324  17.127  0.00  0.00    +0.000 C 
BRANCH   3   5
ATOM      4  C   UNL     1       7.703   8.480  17.694  0.00  0.00    +0.000 C 
ATOM      5  C   UNL     1       6.903   7.484  17.432  0.00  0.00    +0.000 C 
BRANCH   4   7
ATOM      6  C   UNL     1       9.436  10.636  18.261  0.00  0.00    +0.000 C 
ATOM      7  C   UNL     1       8.636   9.641  17.999  0.00  0.00    +0.000 C 
BRANCH   6   8
ATOM      8  C   UNL     1      10.369  11.796  18.566  0.00  0.00    +0.000 C 
BRANCH   8  10
ATOM      9  C   UNL     1      10.449  12.675  20.938  0.00  0.00    +0.000 C 
ATOM     10  C   UNL     1      10.799  11.776  20.006  0.00  0.00    +0.000 C 
ENDBRANCH   8  10
BRANCH   8  11
ATOM     11  O   UNL     1      11.493  11.718  17.703  0.00  0.00    +0.000 OA
ATOM     12  H   UNL     1      11.597  10.775  17.493  0.00  0.00    +0.000 HD
ENDBRANCH   8  11
ENDBRANCH   6   8
ENDBRANCH   4   7
ENDBRANCH   3   5
ENDBRANCH   1   3
BRANCH   2  13
ATOM     13  C   UNL     1       4.258   5.010  19.309  0.00  0.00    +0.000 C 
BRANCH  13  14
ATOM     14  C   UNL     1       4.755   3.774  18.553  0.00  0.00    +0.000 C 
BRANCH  14  15
ATOM     15  C   UNL     1       3.815   3.257  17.458  0.00  0.00    +0.000 C 
BRANCH  15  16
ATOM     16  C   UNL     1       2.707   2.346  17.987  0.00  0.00    +0.000 C 
BRANCH  16  17
ATOM     17  C   UNL     1       1.385   3.101  18.127  0.00  0.00    +0.000 C 
BRANCH  17  18
ATOM     18  C   UNL     1       0.679   2.717  19.427  0.00  0.00    +0.000 C 
BRANCH  18  19
ATOM     19  C   UNL     1       0.996   3.705  20.549  0.00  0.00    +0.000 C 
BRANCH  19  20
ATOM     20  C   UNL     1       1.674   3.022  21.732  0.00  0.00    +0.000 C 
BRANCH  20  21
ATOM     21  O   UNL     1       2.938   2.492  21.359  0.00  0.00    +0.000 OA
ATOM     22  H   UNL     1       2.858   2.164  20.446  0.00  0.00    +0.000 HD
ENDBRANCH  20  21
ENDBRANCH  19  20
ENDBRANCH  18  19
ENDBRANCH  17  18
ENDBRANCH  16  17
ENDBRANCH  15  16
ENDBRANCH  14  15
ENDBRANCH  13  14
ENDBRANCH   2  13
TORSDOF 15
ENDMDL
MODEL 6
REMARK VINA RESULT:      -5.6      4.169      6.944
REMARK  Name = 
REMARK  15 active torsions:
REMARK  status: ('A' for Active; 'I' for Inactive)
REMARK    1  A    between atoms: C_2  and  C_3
REMARK    2  A    between atoms: C_3  and  O_4
REMARK    3  A    between atoms: C_3  and  C_5
REMARK    4  A    between atoms: C_6  and  C_7
REMARK    5  A    between atoms: C_8  and  C_9
REMARK    6  A    between atoms: C_9  and  C_10
REMARK    7  A    between atoms: C_11  and  C_12
REMARK    8  A    between atoms: C_12  and  C_13
REMARK    9  A    between atoms: C_13  and  C_14
REMARK   10  A    between atoms: C_14  and  C_15
REMARK   11  A    between atoms: C_15  and  C_16
REMARK   12  A    between atoms: C_16  and  C_17
REMARK   13  A    between atoms: C_17  and  C_18
REMARK   14  A    between atoms: C_18  and  C_19
REMARK   15  A    between atoms: C_19  and  O_20
REMARK                            x       y       z     vdW  Elec       q    Type
REMARK                         _______ _______ _______ _____ _____    ______ ____
ROOT
ATOM      1  C   UNL     1       7.642   5.920  18.762  0.00  0.00    +0.000 C 
ATOM      2  C   UNL     1       6.604   5.275  19.321  0.00  0.00    +0.000 C 
ENDROOT
BRANCH   1   3
ATOM      3  C   UNL     1       7.588   6.734  17.507  0.00  0.00    +0.000 C 
BRANCH   3   5
ATOM      4  C   UNL     1       6.589   5.176  15.375  0.00  0.00    +0.000 C 
ATOM      5  C   UNL     1       7.050   5.895  16.359  0.00  0.00    +0.000 C 
BRANCH   4   7
ATOM      6  C   UNL     1       5.590   3.617  13.242  0.00  0.00    +0.000 C 
ATOM      7  C   UNL     1       6.051   4.336  14.227  0.00  0.00    +0.000 C 
BRANCH   6   8
ATOM      8  C   UNL     1       5.053   2.777  12.095  0.00  0.00    +0.000 C 
BRANCH   8  10
ATOM      9  C   UNL     1       3.324   3.388  10.350  0.00  0.00    +0.000 C 
ATOM     10  C   UNL     1       4.453   3.647  11.026  0.00  0.00    +0.000 C 
ENDBRANCH   8  10
BRANCH   8  11
ATOM     11  O   UNL     1       6.112   1.991  11.569  0.00  0.00    +0.000 OA
ATOM     12  H   UNL     1       6.884   2.580  11.537  0.00  0.00    +0.000 HD
ENDBRANCH   8  11
ENDBRANCH   6   8
ENDBRANCH   4   7
ENDBRANCH   3   5
ENDBRANCH   1   3
BRANCH   2  13
ATOM     13  C   UNL     1       5.191   5.315  18.796  0.00  0.00    +0.000 C 
BRANCH  13  14
ATOM     14  C   UNL     1       4.228   4.351  19.498  0.00  0.00    +0.000 C 
BRANCH  14  15
ATOM     15  C   UNL     1       4.399   2.874  19.129  0.00  0.00    +0.000 C 
BRANCH  15  16
ATOM     16  C   UNL     1       3.254   2.322  18.280  0.00  0.00    +0.000 C 
BRANCH  16  17
ATOM     17  C   UNL     1       2.051   3.265  18.288  0.00  0.00    +0.000 C 
BRANCH  17  18
ATOM     18  C   UNL     1       0.935   2.711  19.174  0.00  0.00    +0.000 C 
BRANCH  18  19
ATOM     19  C   UNL     1       0.669   3.623  20.372  0.00  0.00    +0.000 C 
BRANCH  19  20
ATOM     20  C   UNL     1       1.724   3.453  21.460  0.00  0.00    +0.000 C 
BRANCH  20  21
ATOM     21  O   UNL     1       1.602   2.187  22.094  0.00  0.00    +0.000 OA
ATOM     22  H   UNL     1       1.715   2.329  23.050  0.00  0.00    +0.000 HD
ENDBRANCH  20  21
ENDBRANCH  19  20
ENDBRANCH  18  19
ENDBRANCH  17  18
ENDBRANCH  16  17
ENDBRANCH  15  16
ENDBRANCH  14  15
ENDBRANCH  13  14
ENDBRANCH   2  13
TORSDOF 15
ENDMDL
MODEL 7
REMARK VINA RESULT:      -5.6      1.776      2.318
REMARK  Name = 
REMARK  15 active torsions:
REMARK  status: ('A' for Active; 'I' for Inactive)
REMARK    1  A    between atoms: C_2  and  C_3
REMARK    2  A    between atoms: C_3  and  O_4
REMARK    3  A    between atoms: C_3  and  C_5
REMARK    4  A    between atoms: C_6  and  C_7
REMARK    5  A    between atoms: C_8  and  C_9
REMARK    6  A    between atoms: C_9  and  C_10
REMARK    7  A    between atoms: C_11  and  C_12
REMARK    8  A    between atoms: C_12  and  C_13
REMARK    9  A    between atoms: C_13  and  C_14
REMARK   10  A    between atoms: C_14  and  C_15
REMARK   11  A    between atoms: C_15  and  C_16
REMARK   12  A    between atoms: C_16  and  C_17
REMARK   13  A    between atoms: C_17  and  C_18
REMARK   14  A    between atoms: C_18  and  C_19
REMARK   15  A    between atoms: C_19  and  O_20
REMARK                            x       y       z     vdW  Elec       q    Type
REMARK                         _______ _______ _______ _____ _____    ______ ____
ROOT
ATOM      1  C   UNL     1       6.863   4.837  17.419  0.00  0.00    +0.000 C 
ATOM      2  C   UNL     1       6.019   4.631  18.446  0.00  0.00    +0.000 C 
ENDROOT
BRANCH   1   3
ATOM      3  C   UNL     1       6.889   6.050  16.543  0.00  0.00    +0.000 C 
BRANCH   3   5
ATOM      4  C   UNL     1       8.076   8.217  17.910  0.00  0.00    +0.000 C 
ATOM      5  C   UNL     1       7.527   7.216  17.279  0.00  0.00    +0.000 C 
BRANCH   4   7
ATOM      6  C   UNL     1       9.264  10.384  19.277  0.00  0.00    +0.000 C 
ATOM      7  C   UNL     1       8.715   9.383  18.646  0.00  0.00    +0.000 C 
BRANCH   6   8
ATOM      8  C   UNL     1       9.903  11.549  20.013  0.00  0.00    +0.000 C 
BRANCH   8  10
ATOM      9  C   UNL     1       8.551  13.625  20.533  0.00  0.00    +0.000 C 
ATOM     10  C   UNL     1       9.218  12.843  19.671  0.00  0.00    +0.000 C 
ENDBRANCH   8  10
BRANCH   8  11
ATOM     11  O   UNL     1       9.837  11.299  21.410  0.00  0.00    +0.000 OA
ATOM     12  H   UNL     1      10.749  11.110  21.685  0.00  0.00    +0.000 HD
ENDBRANCH   8  11
ENDBRANCH   6   8
ENDBRANCH   4   7
ENDBRANCH   3   5
ENDBRANCH   1   3
BRANCH   2  13
ATOM     13  C   UNL     1       4.990   5.627  18.919  0.00  0.00    +0.000 C 
BRANCH  13  14
ATOM     14  C   UNL     1       3.678   5.602  18.128  0.00  0.00    +0.000 C 
BRANCH  14  15
ATOM     15  C   UNL     1       2.435   6.031  18.914  0.00  0.00    +0.000 C 
BRANCH  15  16
ATOM     16  C   UNL     1       2.291   5.323  20.261  0.00  0.00    +0.000 C 
BRANCH  16  17
ATOM     17  C   UNL     1       1.089   4.378  20.267  0.00  0.00    +0.000 C 
BRANCH  17  18
ATOM     18  C   UNL     1       1.540   2.927  20.098  0.00  0.00    +0.000 C 
BRANCH  18  19
ATOM     19  C   UNL     1       2.918   2.695  20.719  0.00  0.00    +0.000 C 
BRANCH  19  20
ATOM     20  C   UNL     1       3.873   2.017  19.743  0.00  0.00    +0.000 C 
BRANCH  20  21
ATOM     21  O   UNL     1       5.166   1.869  20.314  0.00  0.00    +0.000 OA
ATOM     22  H   UNL     1       5.816   2.029  19.608  0.00  0.00    +0.000 HD
ENDBRANCH  20  21
ENDBRANCH  19  20
ENDBRANCH  18  19
ENDBRANCH  17  18
ENDBRANCH  16  17
ENDBRANCH  15  16
ENDBRANCH  14  15
ENDBRANCH  13  14
ENDBRANCH   2  13
TORSDOF 15
ENDMDL
MODEL 8
REMARK VINA RESULT:      -5.5      3.838      7.341
REMARK  Name = 
REMARK  15 active torsions:
REMARK  status: ('A' for Active; 'I' for Inactive)
REMARK    1  A    between atoms: C_2  and  C_3
REMARK    2  A    between atoms: C_3  and  O_4
REMARK    3  A    between atoms: C_3  and  C_5
REMARK    4  A    between atoms: C_6  and  C_7
REMARK    5  A    between atoms: C_8  and  C_9
REMARK    6  A    between atoms: C_9  and  C_10
REMARK    7  A    between atoms: C_11  and  C_12
REMARK    8  A    between atoms: C_12  and  C_13
REMARK    9  A    between atoms: C_13  and  C_14
REMARK   10  A    between atoms: C_14  and  C_15
REMARK   11  A    between atoms: C_15  and  C_16
REMARK   12  A    between atoms: C_16  and  C_17
REMARK   13  A    between atoms: C_17  and  C_18
REMARK   14  A    between atoms: C_18  and  C_19
REMARK   15  A    between atoms: C_19  and  O_20
REMARK                            x       y       z     vdW  Elec       q    Type
REMARK                         _______ _______ _______ _____ _____    ______ ____
ROOT
ATOM      1  C   UNL     1       1.407   2.773  19.494  0.00  0.00    +0.000 C 
ATOM      2  C   UNL     1       0.895   3.934  19.940  0.00  0.00    +0.000 C 
ENDROOT
BRANCH   1   3
ATOM      3  C   UNL     1       2.823   2.322  19.668  0.00  0.00    +0.000 C 
BRANCH   3   5
ATOM      4  C   UNL     1       4.363   3.046  17.414  0.00  0.00    +0.000 C 
ATOM      5  C   UNL     1       3.652   2.712  18.455  0.00  0.00    +0.000 C 
BRANCH   4   7
ATOM      6  C   UNL     1       5.903   3.770  15.160  0.00  0.00    +0.000 C 
ATOM      7  C   UNL     1       5.192   3.436  16.201  0.00  0.00    +0.000 C 
BRANCH   6   8
ATOM      8  C   UNL     1       6.731   4.159  13.948  0.00  0.00    +0.000 C 
BRANCH   8  10
ATOM      9  C   UNL     1       5.846   2.782  12.018  0.00  0.00    +0.000 C 
ATOM     10  C   UNL     1       5.959   3.945  12.676  0.00  0.00    +0.000 C 
ENDBRANCH   8  10
BRANCH   8  11
ATOM     11  O   UNL     1       7.120   5.518  14.077  0.00  0.00    +0.000 OA
ATOM     12  H   UNL     1       7.816   5.656  13.413  0.00  0.00    +0.000 HD
ENDBRANCH   8  11
ENDBRANCH   6   8
ENDBRANCH   4   7
ENDBRANCH   3   5
ENDBRANCH   1   3
BRANCH   2  13
ATOM     13  C   UNL     1       1.662   4.952  20.746  0.00  0.00    +0.000 C 
BRANCH  13  14
ATOM     14  C   UNL     1       2.710   5.731  19.945  0.00  0.00    +0.000 C 
BRANCH  14  15
ATOM     15  C   UNL     1       2.346   7.188  19.637  0.00  0.00    +0.000 C 
BRANCH  15  16
ATOM     16  C   UNL     1       2.696   7.615  18.212  0.00  0.00    +0.000 C 
BRANCH  16  17
ATOM     17  C   UNL     1       3.472   6.520  17.478  0.00  0.00    +0.000 C 
BRANCH  17  18
ATOM     18  C   UNL     1       4.869   7.010  17.099  0.00  0.00    +0.000 C 
BRANCH  18  19
ATOM     19  C   UNL     1       5.946   6.349  17.960  0.00  0.00    +0.000 C 
BRANCH  19  20
ATOM     20  C   UNL     1       7.349   6.649  17.444  0.00  0.00    +0.000 C 
BRANCH  20  21
ATOM     21  O   UNL     1       8.082   7.426  18.381  0.00  0.00    +0.000 OA
ATOM     22  H   UNL     1       7.797   7.153  19.271  0.00  0.00    +0.000 HD
ENDBRANCH  20  21
ENDBRANCH  19  20
ENDBRANCH  18  19
ENDBRANCH  17  18
ENDBRANCH  16  17
ENDBRANCH  15  16
ENDBRANCH  14  15
ENDBRANCH  13  14
ENDBRANCH   2  13
TORSDOF 15
ENDMDL
MODEL 9
REMARK VINA RESULT:      -5.5      1.536      2.273
REMARK  Name = 
REMARK  15 active torsions:
REMARK  status: ('A' for Active; 'I' for Inactive)
REMARK    1  A    between atoms: C_2  and  C_3
REMARK    2  A    between atoms: C_3  and  O_4
REMARK    3  A    between atoms: C_3  and  C_5
REMARK    4  A    between atoms: C_6  and  C_7
REMARK    5  A    between atoms: C_8  and  C_9
REMARK    6  A    between atoms: C_9  and  C_10
REMARK    7  A    between atoms: C_11  and  C_12
REMARK    8  A    between atoms: C_12  and  C_13
REMARK    9  A    between atoms: C_13  and  C_14
REMARK   10  A    between atoms: C_14  and  C_15
REMARK   11  A    between atoms: C_15  and  C_16
REMARK   12  A    between atoms: C_16  and  C_17
REMARK   13  A    between atoms: C_17  and  C_18
REMARK   14  A    between atoms: C_18  and  C_19
REMARK   15  A    between atoms: C_19  and  O_20
REMARK                            x       y       z     vdW  Elec       q    Type
REMARK                         _______ _______ _______ _____ _____    ______ ____
ROOT
ATOM      1  C   UNL     1       4.855   6.602  16.559  0.00  0.00    +0.000 C 
ATOM      2  C   UNL     1       3.771   6.610  17.355  0.00  0.00    +0.000 C 
ENDROOT
BRANCH   1   3
ATOM      3  C   UNL     1       6.218   6.120  16.948  0.00  0.00    +0.000 C 
BRANCH   3   5
ATOM      4  C   UNL     1       7.796   8.281  17.847  0.00  0.00    +0.000 C 
ATOM      5  C   UNL     1       7.067   7.283  17.432  0.00  0.00    +0.000 C 
BRANCH   4   7
ATOM      6  C   UNL     1       9.375  10.443  18.748  0.00  0.00    +0.000 C 
ATOM      7  C   UNL     1       8.646   9.445  18.332  0.00  0.00    +0.000 C 
BRANCH   6   8
ATOM      8  C   UNL     1      10.225  11.605  19.232  0.00  0.00    +0.000 C 
BRANCH   8  10
ATOM      9  C   UNL     1       8.723  13.044  17.790  0.00  0.00    +0.000 C 
ATOM     10  C   UNL     1       9.766  12.900  18.621  0.00  0.00    +0.000 C 
ENDBRANCH   8  10
BRANCH   8  11
ATOM     11  O   UNL     1      10.153  11.664  20.649  0.00  0.00    +0.000 OA
ATOM     12  H   UNL     1      10.702  10.929  20.970  0.00  0.00    +0.000 HD
ENDBRANCH   8  11
ENDBRANCH   6   8
ENDBRANCH   4   7
ENDBRANCH   3   5
ENDBRANCH   1   3
BRANCH   2  13
ATOM     13  C   UNL     1       3.744   6.078  18.765  0.00  0.00    +0.000 C 
BRANCH  13  14
ATOM     14  C   UNL     1       2.343   5.973  19.375  0.00  0.00    +0.000 C 
BRANCH  14  15
ATOM     15  C   UNL     1       2.238   5.089  20.622  0.00  0.00    +0.000 C 
BRANCH  15  16
ATOM     16  C   UNL     1       1.163   4.007  20.514  0.00  0.00    +0.000 C 
BRANCH  16  17
ATOM     17  C   UNL     1       1.774   2.607  20.594  0.00  0.00    +0.000 C 
BRANCH  17  18
ATOM     18  C   UNL     1       3.289   2.667  20.407  0.00  0.00    +0.000 C 
BRANCH  18  19
ATOM     19  C   UNL     1       3.733   1.866  19.182  0.00  0.00    +0.000 C 
BRANCH  19  20
ATOM     20  C   UNL     1       3.294   2.529  17.881  0.00  0.00    +0.000 C 
BRANCH  20  21
ATOM     21  O   UNL     1       2.084   1.957  17.402  0.00  0.00    +0.000 OA
ATOM     22  H   UNL     1       2.246   1.007  17.265  0.00  0.00    +0.000 HD
ENDBRANCH  20  21
ENDBRANCH  19  20
ENDBRANCH  18  19
ENDBRANCH  17  18
ENDBRANCH  16  17
ENDBRANCH  15  16
ENDBRANCH  14  15
ENDBRANCH  13  14
ENDBRANCH   2  13
TORSDOF 15
ENDMDL
