MODEL 1
REMARK VINA RESULT:      -8.1      0.000      0.000
REMARK  Name = 
REMARK  4 active torsions:
REMARK  status: ('A' for Active; 'I' for Inactive)
REMARK    1  A    between atoms: C_7  and  C_8
REMARK    2  A    between atoms: C_8  and  C_9
REMARK    3  A    between atoms: C_9  and  N_10
REMARK    4  A    between atoms: N_10  and  C_11
REMARK                            x       y       z     vdW  Elec       q    Type
REMARK                         _______ _______ _______ _____ _____    ______ ____
ROOT
ATOM      1  C   UNL     1       2.939   4.188  17.100  0.00  0.00    +0.000 C 
ENDROOT
BRANCH   1   2
ATOM      2  C   UNL     1       2.659   4.124  18.643  0.00  0.00    +0.000 C 
ATOM      3  C   UNL     1       3.786   3.418  19.433  0.00  0.00    +0.000 C 
ATOM      4  C   UNL     1       3.471   1.926  19.385  0.00  0.00    +0.000 C 
ATOM      5  C   UNL     1       1.959   1.823  19.268  0.00  0.00    +0.000 C 
ATOM      6  C   UNL     1       1.448   3.236  19.026  0.00  0.00    +0.000 C 
BRANCH   2  13
ATOM      7  F   UNL     1       1.898   4.982  21.293  0.00  0.00    +0.000 F 
ATOM      8  C   UNL     1       2.036   5.933  20.357  0.00  0.00    +0.000 A 
ATOM      9  C   UNL     1       1.722   7.239  20.722  0.00  0.00    +0.000 A 
ATOM     10  C   UNL     1       1.773   8.250  19.771  0.00  0.00    +0.000 A 
ATOM     11  C   UNL     1       2.145   7.946  18.464  0.00  0.00    +0.000 A 
ATOM     12  C   UNL     1       2.473   6.633  18.105  0.00  0.00    +0.000 A 
ATOM     13  C   UNL     1       2.432   5.594  19.050  0.00  0.00    +0.000 A 
ENDBRANCH   2  13
ENDBRANCH   1   2
BRANCH   1  14
ATOM     14  N   UNL     1       4.305   3.968  16.609  0.00  0.00    +0.000 NA
ATOM     15  H   UNL     1       4.348   3.039  16.209  0.00  0.00    +0.000 HD
BRANCH  14  16
ATOM     16  C   UNL     1       4.747   4.999  15.643  0.00  0.00    +0.000 C 
ATOM     17  C   UNL     1       5.909   4.595  14.724  0.00  0.00    +0.000 C 
ATOM     18  C   UNL     1       7.224   4.547  15.477  0.00  0.00    +0.000 C 
ATOM     19  O   UNL     1       7.526   5.809  16.060  0.00  0.00    +0.000 OA
ATOM     20  C   UNL     1       6.551   6.329  16.982  0.00  0.00    +0.000 C 
ATOM     21  C   UNL     1       6.581   5.570  18.326  0.00  0.00    +0.000 C 
ATOM     22  C   UNL     1       7.901   5.748  19.062  0.00  0.00    +0.000 C 
ATOM     23  O   UNL     1       8.194   7.126  19.258  0.00  0.00    +0.000 OA
ATOM     24  C   UNL     1       8.323   7.811  18.011  0.00  0.00    +0.000 C 
ATOM     25  C   UNL     1       6.998   7.784  17.254  0.00  0.00    +0.000 C 
ATOM     26  C   UNL     1       5.146   6.323  16.333  0.00  0.00    +0.000 C 
ENDBRANCH  14  16
ENDBRANCH   1  14
TORSDOF 4
ENDMDL
MODEL 2
REMARK VINA RESULT:      -7.9      1.486      3.035
REMARK  Name = 
REMARK  4 active torsions:
REMARK  status: ('A' for Active; 'I' for Inactive)
REMARK    1  A    between atoms: C_7  and  C_8
REMARK    2  A    between atoms: C_8  and  C_9
REMARK    3  A    between atoms: C_9  and  N_10
REMARK    4  A    between atoms: N_10  and  C_11
REMARK                            x       y       z     vdW  Elec       q    Type
REMARK                         _______ _______ _______ _____ _____    ______ ____
ROOT
ATOM      1  C   UNL     1       3.625   4.914  20.075  0.00  0.00    +0.000 C 
ENDROOT
BRANCH   1   2
ATOM      2  C   UNL     1       2.258   5.097  19.327  0.00  0.00    +0.000 C 
ATOM      3  C   UNL     1       1.072   4.428  20.062  0.00  0.00    +0.000 C 
ATOM      4  C   UNL     1       1.051   2.973  19.601  0.00  0.00    +0.000 C 
ATOM      5  C   UNL     1       1.635   2.972  18.198  0.00  0.00    +0.000 C 
ATOM      6  C   UNL     1       2.187   4.371  17.960  0.00  0.00    +0.000 C 
BRANCH   2  13
ATOM      7  F   UNL     1       1.444   6.893  21.437  0.00  0.00    +0.000 F 
ATOM      8  C   UNL     1       1.687   7.432  20.234  0.00  0.00    +0.000 A 
ATOM      9  C   UNL     1       1.448   8.795  20.084  0.00  0.00    +0.000 A 
ATOM     10  C   UNL     1       1.610   9.389  18.839  0.00  0.00    +0.000 A 
ATOM     11  C   UNL     1       2.017   8.615  17.755  0.00  0.00    +0.000 A 
ATOM     12  C   UNL     1       2.269   7.247  17.913  0.00  0.00    +0.000 A 
ATOM     13  C   UNL     1       2.115   6.623  19.164  0.00  0.00    +0.000 A 
ENDBRANCH   2  13
ENDBRANCH   1   2
BRANCH   1  14
ATOM     14  N   UNL     1       4.785   5.712  19.658  0.00  0.00    +0.000 NA
ATOM     15  H   UNL     1       4.940   6.428  20.355  0.00  0.00    +0.000 HD
BRANCH  14  16
ATOM     16  C   UNL     1       6.000   4.897  19.433  0.00  0.00    +0.000 C 
ATOM     17  C   UNL     1       7.331   5.661  19.474  0.00  0.00    +0.000 C 
ATOM     18  C   UNL     1       7.518   6.520  18.239  0.00  0.00    +0.000 C 
ATOM     19  O   UNL     1       7.486   5.729  17.056  0.00  0.00    +0.000 OA
ATOM     20  C   UNL     1       6.287   4.966  16.839  0.00  0.00    +0.000 C 
ATOM     21  C   UNL     1       5.111   5.868  16.407  0.00  0.00    +0.000 C 
ATOM     22  C   UNL     1       5.358   6.537  15.063  0.00  0.00    +0.000 C 
ATOM     23  O   UNL     1       5.644   5.572  14.058  0.00  0.00    +0.000 OA
ATOM     24  C   UNL     1       6.825   4.832  14.371  0.00  0.00    +0.000 C 
ATOM     25  C   UNL     1       6.621   4.030  15.654  0.00  0.00    +0.000 C 
ATOM     26  C   UNL     1       5.954   4.124  18.095  0.00  0.00    +0.000 C 
ENDBRANCH  14  16
ENDBRANCH   1  14
TORSDOF 4
ENDMDL
MODEL 3
REMARK VINA RESULT:      -7.9      1.498      3.106
REMARK  Name = 
REMARK  4 active torsions:
REMARK  status: ('A' for Active; 'I' for Inactive)
REMARK    1  A    between atoms: C_7  and  C_8
REMARK    2  A    between atoms: C_8  and  C_9
REMARK    3  A    between atoms: C_9  and  N_10
REMARK    4  A    between atoms: N_10  and  C_11
REMARK                            x       y       z     vdW  Elec       q    Type
REMARK                         _______ _______ _______ _____ _____    ______ ____
ROOT
ATOM      1  C   UNL     1       4.502   4.491  19.205  0.00  0.00    +0.000 C 
ENDROOT
BRANCH   1   2
ATOM      2  C   UNL     1       2.973   4.518  18.849  0.00  0.00    +0.000 C 
ATOM      3  C   UNL     1       2.143   3.505  19.673  0.00  0.00    +0.000 C 
ATOM      4  C   UNL     1       2.224   2.178  18.923  0.00  0.00    +0.000 C 
ATOM      5  C   UNL     1       2.408   2.538  17.458  0.00  0.00    +0.000 C 
ATOM      6  C   UNL     1       2.654   4.040  17.410  0.00  0.00    +0.000 C 
BRANCH   2  13
ATOM      7  F   UNL     1       2.110   5.622  21.374  0.00  0.00    +0.000 F 
ATOM      8  C   UNL     1       2.124   6.447  20.317  0.00  0.00    +0.000 A 
ATOM      9  C   UNL     1       1.644   7.739  20.509  0.00  0.00    +0.000 A 
ATOM     10  C   UNL     1       1.564   8.612  19.431  0.00  0.00    +0.000 A 
ATOM     11  C   UNL     1       1.971   8.184  18.170  0.00  0.00    +0.000 A 
ATOM     12  C   UNL     1       2.465   6.887  17.984  0.00  0.00    +0.000 A 
ATOM     13  C   UNL     1       2.559   5.988  19.060  0.00  0.00    +0.000 A 
ENDBRANCH   2  13
ENDBRANCH   1   2
BRANCH   1  14
ATOM     14  N   UNL     1       5.469   4.074  18.183  0.00  0.00    +0.000 NA
ATOM     15  H   UNL     1       4.953   3.778  17.365  0.00  0.00    +0.000 HD
BRANCH  14  16
ATOM     16  C   UNL     1       6.457   5.127  17.854  0.00  0.00    +0.000 C 
ATOM     17  C   UNL     1       5.872   6.507  17.523  0.00  0.00    +0.000 C 
ATOM     18  C   UNL     1       5.207   6.519  16.161  0.00  0.00    +0.000 C 
ATOM     19  O   UNL     1       6.131   6.162  15.138  0.00  0.00    +0.000 OA
ATOM     20  C   UNL     1       6.755   4.873  15.273  0.00  0.00    +0.000 C 
ATOM     21  C   UNL     1       5.771   3.730  14.944  0.00  0.00    +0.000 C 
ATOM     22  C   UNL     1       5.315   3.758  13.493  0.00  0.00    +0.000 C 
ATOM     23  O   UNL     1       6.428   3.730  12.607  0.00  0.00    +0.000 OA
ATOM     24  C   UNL     1       7.269   4.870  12.796  0.00  0.00    +0.000 C 
ATOM     25  C   UNL     1       7.869   4.857  14.200  0.00  0.00    +0.000 C 
ATOM     26  C   UNL     1       7.380   4.726  16.681  0.00  0.00    +0.000 C 
ENDBRANCH  14  16
ENDBRANCH   1  14
TORSDOF 4
ENDMDL
MODEL 4
REMARK VINA RESULT:      -7.6      2.653      6.404
REMARK  Name = 
REMARK  4 active torsions:
REMARK  status: ('A' for Active; 'I' for Inactive)
REMARK    1  A    between atoms: C_7  and  C_8
REMARK    2  A    between atoms: C_8  and  C_9
REMARK    3  A    between atoms: C_9  and  N_10
REMARK    4  A    between atoms: N_10  and  C_11
REMARK                            x       y       z     vdW  Elec       q    Type
REMARK                         _______ _______ _______ _____ _____    ______ ____
ROOT
ATOM      1  C   UNL     1       4.950   6.506  16.915  0.00  0.00    +0.000 C 
ENDROOT
BRANCH   1   2
ATOM      2  C   UNL     1       6.371   5.853  16.786  0.00  0.00    +0.000 C 
ATOM      3  C   UNL     1       6.674   4.836  17.912  0.00  0.00    +0.000 C 
ATOM      4  C   UNL     1       7.229   5.647  19.080  0.00  0.00    +0.000 C 
ATOM      5  C   UNL     1       7.906   6.859  18.461  0.00  0.00    +0.000 C 
ATOM      6  C   UNL     1       7.542   6.849  16.983  0.00  0.00    +0.000 C 
BRANCH   2  13
ATOM      7  F   UNL     1       4.434   3.941  15.819  0.00  0.00    +0.000 F 
ATOM      8  C   UNL     1       5.417   4.296  14.979  0.00  0.00    +0.000 A 
ATOM      9  C   UNL     1       5.467   3.652  13.746  0.00  0.00    +0.000 A 
ATOM     10  C   UNL     1       6.508   3.925  12.869  0.00  0.00    +0.000 A 
ATOM     11  C   UNL     1       7.489   4.845  13.231  0.00  0.00    +0.000 A 
ATOM     12  C   UNL     1       7.428   5.500  14.467  0.00  0.00    +0.000 A 
ATOM     13  C   UNL     1       6.382   5.243  15.370  0.00  0.00    +0.000 A 
ENDBRANCH   2  13
ENDBRANCH   1   2
BRANCH   1  14
ATOM     14  N   UNL     1       4.382   6.730  18.250  0.00  0.00    +0.000 NA
ATOM     15  H   UNL     1       4.809   7.560  18.638  0.00  0.00    +0.000 HD
BRANCH  14  16
ATOM     16  C   UNL     1       2.904   6.829  18.243  0.00  0.00    +0.000 C 
ATOM     17  C   UNL     1       2.254   7.171  19.591  0.00  0.00    +0.000 C 
ATOM     18  C   UNL     1       2.303   5.995  20.547  0.00  0.00    +0.000 C 
ATOM     19  O   UNL     1       1.639   4.862  19.999  0.00  0.00    +0.000 OA
ATOM     20  C   UNL     1       2.145   4.381  18.741  0.00  0.00    +0.000 C 
ATOM     21  C   UNL     1       3.495   3.652  18.915  0.00  0.00    +0.000 C 
ATOM     22  C   UNL     1       3.367   2.391  19.756  0.00  0.00    +0.000 C 
ATOM     23  O   UNL     1       2.390   1.512  19.213  0.00  0.00    +0.000 OA
ATOM     24  C   UNL     1       1.099   2.122  19.191  0.00  0.00    +0.000 C 
ATOM     25  C   UNL     1       1.105   3.339  18.267  0.00  0.00    +0.000 C 
ATOM     26  C   UNL     1       2.228   5.541  17.720  0.00  0.00    +0.000 C 
ENDBRANCH  14  16
ENDBRANCH   1  14
TORSDOF 4
ENDMDL
MODEL 5
REMARK VINA RESULT:      -7.4      3.020      6.447
REMARK  Name = 
REMARK  4 active torsions:
REMARK  status: ('A' for Active; 'I' for Inactive)
REMARK    1  A    between atoms: C_7  and  C_8
REMARK    2  A    between atoms: C_8  and  C_9
REMARK    3  A    between atoms: C_9  and  N_10
REMARK    4  A    between atoms: N_10  and  C_11
REMARK                            x       y       z     vdW  Elec       q    Type
REMARK                         _______ _______ _______ _____ _____    ______ ____
ROOT
ATOM      1  C   UNL     1       4.933   3.920  16.508  0.00  0.00    +0.000 C 
ENDROOT
BRANCH   1   2
ATOM      2  C   UNL     1       5.938   4.915  15.829  0.00  0.00    +0.000 C 
ATOM      3  C   UNL     1       7.265   5.062  16.610  0.00  0.00    +0.000 C 
ATOM      4  C   UNL     1       7.022   6.138  17.665  0.00  0.00    +0.000 C 
ATOM      5  C   UNL     1       5.963   7.060  17.084  0.00  0.00    +0.000 C 
ATOM      6  C   UNL     1       5.454   6.387  15.817  0.00  0.00    +0.000 C 
BRANCH   2  13
ATOM      7  F   UNL     1       8.133   5.588  14.077  0.00  0.00    +0.000 F 
ATOM      8  C   UNL     1       7.194   4.761  13.593  0.00  0.00    +0.000 A 
ATOM      9  C   UNL     1       7.315   4.365  12.265  0.00  0.00    +0.000 A 
ATOM     10  C   UNL     1       6.330   3.571  11.691  0.00  0.00    +0.000 A 
ATOM     11  C   UNL     1       5.235   3.176  12.455  0.00  0.00    +0.000 A 
ATOM     12  C   UNL     1       5.124   3.566  13.795  0.00  0.00    +0.000 A 
ATOM     13  C   UNL     1       6.109   4.366  14.398  0.00  0.00    +0.000 A 
ENDBRANCH   2  13
ENDBRANCH   1   2
BRANCH   1  14
ATOM     14  N   UNL     1       5.191   3.464  17.880  0.00  0.00    +0.000 NA
ATOM     15  H   UNL     1       5.449   4.270  18.434  0.00  0.00    +0.000 HD
BRANCH  14  16
ATOM     16  C   UNL     1       4.048   2.735  18.474  0.00  0.00    +0.000 C 
ATOM     17  C   UNL     1       2.828   2.551  17.559  0.00  0.00    +0.000 C 
ATOM     18  C   UNL     1       2.073   3.852  17.370  0.00  0.00    +0.000 C 
ATOM     19  O   UNL     1       1.627   4.370  18.619  0.00  0.00    +0.000 OA
ATOM     20  C   UNL     1       2.651   4.635  19.593  0.00  0.00    +0.000 C 
ATOM     21  C   UNL     1       3.468   5.895  19.230  0.00  0.00    +0.000 C 
ATOM     22  C   UNL     1       2.621   7.158  19.246  0.00  0.00    +0.000 C 
ATOM     23  O   UNL     1       1.977   7.325  20.504  0.00  0.00    +0.000 OA
ATOM     24  C   UNL     1       1.095   6.236  20.783  0.00  0.00    +0.000 C 
ATOM     25  C   UNL     1       1.885   4.935  20.903  0.00  0.00    +0.000 C 
ATOM     26  C   UNL     1       3.546   3.386  19.783  0.00  0.00    +0.000 C 
ENDBRANCH  14  16
ENDBRANCH   1  14
TORSDOF 4
ENDMDL
MODEL 6
REMARK VINA RESULT:      -7.2      1.753      3.402
REMARK  Name = 
REMARK  4 active torsions:
REMARK  status: ('A' for Active; 'I' for Inactive)
REMARK    1  A    between atoms: C_7  and  C_8
REMARK    2  A    between atoms: C_8  and  C_9
REMARK    3  A    between atoms: C_9  and  N_10
REMARK    4  A    between atoms: N_10  and  C_11
REMARK                            x       y       z     vdW  Elec       q    Type
REMARK                         _______ _______ _______ _____ _____    ______ ____
ROOT
ATOM      1  C   UNL     1       4.495   4.552  19.142  0.00  0.00    +0.000 C 
ENDROOT
BRANCH   1   2
ATOM      2  C   UNL     1       2.945   4.373  18.974  0.00  0.00    +0.000 C 
ATOM      3  C   UNL     1       2.384   3.173  19.774  0.00  0.00    +0.000 C 
ATOM      4  C   UNL     1       2.553   1.948  18.879  0.00  0.00    +0.000 C 
ATOM      5  C   UNL     1       2.487   2.463  17.451  0.00  0.00    +0.000 C 
ATOM      6  C   UNL     1       2.509   3.983  17.539  0.00  0.00    +0.000 C 
BRANCH   2  13
ATOM      7  F   UNL     1       2.932   6.725  17.297  0.00  0.00    +0.000 F 
ATOM      8  C   UNL     1       2.411   6.846  18.527  0.00  0.00    +0.000 A 
ATOM      9  C   UNL     1       1.984   8.111  18.918  0.00  0.00    +0.000 A 
ATOM     10  C   UNL     1       1.506   8.309  20.207  0.00  0.00    +0.000 A 
ATOM     11  C   UNL     1       1.455   7.236  21.093  0.00  0.00    +0.000 A 
ATOM     12  C   UNL     1       1.873   5.961  20.691  0.00  0.00    +0.000 A 
ATOM     13  C   UNL     1       2.357   5.736  19.391  0.00  0.00    +0.000 A 
ENDBRANCH   2  13
ENDBRANCH   1   2
BRANCH   1  14
ATOM     14  N   UNL     1       5.391   4.091  18.074  0.00  0.00    +0.000 NA
ATOM     15  H   UNL     1       4.824   3.856  17.270  0.00  0.00    +0.000 HD
BRANCH  14  16
ATOM     16  C   UNL     1       6.441   5.077  17.733  0.00  0.00    +0.000 C 
ATOM     17  C   UNL     1       5.943   6.491  17.399  0.00  0.00    +0.000 C 
ATOM     18  C   UNL     1       5.271   6.538  16.041  0.00  0.00    +0.000 C 
ATOM     19  O   UNL     1       6.162   6.118  15.014  0.00  0.00    +0.000 OA
ATOM     20  C   UNL     1       6.703   4.792  15.151  0.00  0.00    +0.000 C 
ATOM     21  C   UNL     1       5.645   3.713  14.835  0.00  0.00    +0.000 C 
ATOM     22  C   UNL     1       5.181   3.763  13.387  0.00  0.00    +0.000 C 
ATOM     23  O   UNL     1       6.283   3.659  12.494  0.00  0.00    +0.000 OA
ATOM     24  C   UNL     1       7.197   4.743  12.671  0.00  0.00    +0.000 C 
ATOM     25  C   UNL     1       7.806   4.699  14.070  0.00  0.00    +0.000 C 
ATOM     26  C   UNL     1       7.328   4.612  16.556  0.00  0.00    +0.000 C 
ENDBRANCH  14  16
ENDBRANCH   1  14
TORSDOF 4
ENDMDL
MODEL 7
REMARK VINA RESULT:      -7.2      2.907      6.588
REMARK  Name = 
REMARK  4 active torsions:
REMARK  status: ('A' for Active; 'I' for Inactive)
REMARK    1  A    between atoms: C_7  and  C_8
REMARK    2  A    between atoms: C_8  and  C_9
REMARK    3  A    between atoms: C_9  and  N_10
REMARK    4  A    between atoms: N_10  and  C_11
REMARK                            x       y       z     vdW  Elec       q    Type
REMARK                         _______ _______ _______ _____ _____    ______ ____
ROOT
ATOM      1  C   UNL     1       4.932   5.870  16.417  0.00  0.00    +0.000 C 
ENDROOT
BRANCH   1   2
ATOM      2  C   UNL     1       6.463   5.546  16.294  0.00  0.00    +0.000 C 
ATOM      3  C   UNL     1       6.943   4.493  17.320  0.00  0.00    +0.000 C 
ATOM      4  C   UNL     1       7.279   5.262  18.595  0.00  0.00    +0.000 C 
ATOM      5  C   UNL     1       7.699   6.652  18.144  0.00  0.00    +0.000 C 
ATOM      6  C   UNL     1       7.388   6.736  16.657  0.00  0.00    +0.000 C 
BRANCH   2  13
ATOM      7  F   UNL     1       5.024   3.381  15.036  0.00  0.00    +0.000 F 
ATOM      8  C   UNL     1       5.924   4.035  14.288  0.00  0.00    +0.000 A 
ATOM      9  C   UNL     1       6.146   3.562  12.998  0.00  0.00    +0.000 A 
ATOM     10  C   UNL     1       7.123   4.154  12.206  0.00  0.00    +0.000 A 
ATOM     11  C   UNL     1       7.865   5.218  12.712  0.00  0.00    +0.000 A 
ATOM     12  C   UNL     1       7.629   5.699  14.005  0.00  0.00    +0.000 A 
ATOM     13  C   UNL     1       6.644   5.119  14.824  0.00  0.00    +0.000 A 
ENDBRANCH   2  13
ENDBRANCH   1   2
BRANCH   1  14
ATOM     14  N   UNL     1       4.050   4.916  17.101  0.00  0.00    +0.000 NA
ATOM     15  H   UNL     1       4.553   4.535  17.891  0.00  0.00    +0.000 HD
BRANCH  14  16
ATOM     16  C   UNL     1       2.758   5.512  17.511  0.00  0.00    +0.000 C 
ATOM     17  C   UNL     1       2.850   6.678  18.505  0.00  0.00    +0.000 C 
ATOM     18  C   UNL     1       3.221   6.197  19.894  0.00  0.00    +0.000 C 
ATOM     19  O   UNL     1       2.268   5.260  20.383  0.00  0.00    +0.000 OA
ATOM     20  C   UNL     1       2.078   4.079  19.585  0.00  0.00    +0.000 C 
ATOM     21  C   UNL     1       3.272   3.109  19.714  0.00  0.00    +0.000 C 
ATOM     22  C   UNL     1       3.426   2.566  21.126  0.00  0.00    +0.000 C 
ATOM     23  O   UNL     1       2.225   1.943  21.568  0.00  0.00    +0.000 OA
ATOM     24  C   UNL     1       1.142   2.874  21.602  0.00  0.00    +0.000 C 
ATOM     25  C   UNL     1       0.838   3.383  20.195  0.00  0.00    +0.000 C 
ATOM     26  C   UNL     1       1.790   4.468  18.114  0.00  0.00    +0.000 C 
ENDBRANCH  14  16
ENDBRANCH   1  14
TORSDOF 4
ENDMDL
MODEL 8
REMARK VINA RESULT:      -7.1      1.664      4.226
REMARK  Name = 
REMARK  4 active torsions:
REMARK  status: ('A' for Active; 'I' for Inactive)
REMARK    1  A    between atoms: C_7  and  C_8
REMARK    2  A    between atoms: C_8  and  C_9
REMARK    3  A    between atoms: C_9  and  N_10
REMARK    4  A    between atoms: N_10  and  C_11
REMARK                            x       y       z     vdW  Elec       q    Type
REMARK                         _______ _______ _______ _____ _____    ______ ____
ROOT
ATOM      1  C   UNL     1       4.048   5.749  19.569  0.00  0.00    +0.000 C 
ENDROOT
BRANCH   1   2
ATOM      2  C   UNL     1       2.511   5.934  19.314  0.00  0.00    +0.000 C 
ATOM      3  C   UNL     1       2.200   6.611  17.958  0.00  0.00    +0.000 C 
ATOM      4  C   UNL     1       2.269   8.115  18.207  0.00  0.00    +0.000 C 
ATOM      5  C   UNL     1       1.889   8.314  19.665  0.00  0.00    +0.000 C 
ATOM      6  C   UNL     1       1.827   6.927  20.288  0.00  0.00    +0.000 C 
BRANCH   2  13
ATOM      7  F   UNL     1       2.376   4.466  21.798  0.00  0.00    +0.000 F 
ATOM      8  C   UNL     1       1.920   3.851  20.698  0.00  0.00    +0.000 A 
ATOM      9  C   UNL     1       1.498   2.532  20.832  0.00  0.00    +0.000 A 
ATOM     10  C   UNL     1       1.088   1.823  19.710  0.00  0.00    +0.000 A 
ATOM     11  C   UNL     1       1.099   2.443  18.463  0.00  0.00    +0.000 A 
ATOM     12  C   UNL     1       1.512   3.775  18.334  0.00  0.00    +0.000 A 
ATOM     13  C   UNL     1       1.928   4.514  19.455  0.00  0.00    +0.000 A 
ENDBRANCH   2  13
ENDBRANCH   1   2
BRANCH   1  14
ATOM     14  N   UNL     1       4.866   5.063  18.561  0.00  0.00    +0.000 NA
ATOM     15  H   UNL     1       4.267   4.824  17.781  0.00  0.00    +0.000 HD
BRANCH  14  16
ATOM     16  C   UNL     1       6.037   5.857  18.126  0.00  0.00    +0.000 C 
ATOM     17  C   UNL     1       5.721   7.228  17.512  0.00  0.00    +0.000 C 
ATOM     18  C   UNL     1       5.130   7.092  16.122  0.00  0.00    +0.000 C 
ATOM     19  O   UNL     1       6.021   6.402  15.253  0.00  0.00    +0.000 OA
ATOM     20  C   UNL     1       6.400   5.076  15.662  0.00  0.00    +0.000 C 
ATOM     21  C   UNL     1       5.245   4.070  15.467  0.00  0.00    +0.000 C 
ATOM     22  C   UNL     1       4.867   3.900  14.004  0.00  0.00    +0.000 C 
ATOM     23  O   UNL     1       5.996   3.522  13.225  0.00  0.00    +0.000 OA
ATOM     24  C   UNL     1       7.015   4.522  13.272  0.00  0.00    +0.000 C 
ATOM     25  C   UNL     1       7.541   4.674  14.697  0.00  0.00    +0.000 C 
ATOM     26  C   UNL     1       6.927   5.096  17.118  0.00  0.00    +0.000 C 
ENDBRANCH  14  16
ENDBRANCH   1  14
TORSDOF 4
ENDMDL
MODEL 9
REMARK VINA RESULT:      -7.0      1.674      3.315
REMARK  Name = 
REMARK  4 active torsions:
REMARK  status: ('A' for Active; 'I' for Inactive)
REMARK    1  A    between atoms: C_7  and  C_8
REMARK    2  A    between atoms: C_8  and  C_9
REMARK    3  A    between atoms: C_9  and  N_10
REMARK    4  A    between atoms: N_10  and  C_11
REMARK                            x       y       z     vdW  Elec       q    Type
REMARK                         _______ _______ _______ _____ _____    ______ ____
ROOT
ATOM      1  C   UNL     1       3.592   4.962  20.085  0.00  0.00    +0.000 C 
ENDROOT
BRANCH   1   2
ATOM      2  C   UNL     1       2.181   5.103  19.412  0.00  0.00    +0.000 C 
ATOM      3  C   UNL     1       1.159   4.061  19.925  0.00  0.00    +0.000 C 
ATOM      4  C   UNL     1       1.362   2.810  19.076  0.00  0.00    +0.000 C 
ATOM      5  C   UNL     1       1.875   3.298  17.731  0.00  0.00    +0.000 C 
ATOM      6  C   UNL     1       2.173   4.782  17.895  0.00  0.00    +0.000 C 
BRANCH   2  13
ATOM      7  F   UNL     1       2.586   7.274  17.551  0.00  0.00    +0.000 F 
ATOM      8  C   UNL     1       2.030   7.576  18.733  0.00  0.00    +0.000 A 
ATOM      9  C   UNL     1       1.771   8.919  18.993  0.00  0.00    +0.000 A 
ATOM     10  C   UNL     1       1.267   9.295  20.231  0.00  0.00    +0.000 A 
ATOM     11  C   UNL     1       1.020   8.323  21.197  0.00  0.00    +0.000 A 
ATOM     12  C   UNL     1       1.269   6.972  20.927  0.00  0.00    +0.000 A 
ATOM     13  C   UNL     1       1.776   6.566  19.680  0.00  0.00    +0.000 A 
ENDBRANCH   2  13
ENDBRANCH   1   2
BRANCH   1  14
ATOM     14  N   UNL     1       4.720   5.739  19.557  0.00  0.00    +0.000 NA
ATOM     15  H   UNL     1       4.874   6.526  20.174  0.00  0.00    +0.000 HD
BRANCH  14  16
ATOM     16  C   UNL     1       5.949   4.932  19.384  0.00  0.00    +0.000 C 
ATOM     17  C   UNL     1       7.267   5.722  19.373  0.00  0.00    +0.000 C 
ATOM     18  C   UNL     1       7.437   6.501  18.084  0.00  0.00    +0.000 C 
ATOM     19  O   UNL     1       7.420   5.635  16.956  0.00  0.00    +0.000 OA
ATOM     20  C   UNL     1       6.234   4.837  16.791  0.00  0.00    +0.000 C 
ATOM     21  C   UNL     1       5.042   5.688  16.303  0.00  0.00    +0.000 C 
ATOM     22  C   UNL     1       5.276   6.272  14.918  0.00  0.00    +0.000 C 
ATOM     23  O   UNL     1       5.580   5.249  13.977  0.00  0.00    +0.000 OA
ATOM     24  C   UNL     1       6.774   4.553  14.336  0.00  0.00    +0.000 C 
ATOM     25  C   UNL     1       6.585   3.832  15.669  0.00  0.00    +0.000 C 
ATOM     26  C   UNL     1       5.917   4.073  18.100  0.00  0.00    +0.000 C 
ENDBRANCH  14  16
ENDBRANCH   1  14
TORSDOF 4
ENDMDL
