MODEL 1
REMARK VINA RESULT:      -7.8      0.000      0.000
REMARK  Name = 
REMARK  6 active torsions:
REMARK  status: ('A' for Active; 'I' for Inactive)
REMARK    1  A    between atoms: C_1  and  C_2
REMARK    2  A    between atoms: C_2  and  C_3
REMARK    3  A    between atoms: N_5  and  C_6
REMARK    4  A    between atoms: C_15  and  C_16
REMARK    5  A    between atoms: C_19  and  C_20
REMARK    6  A    between atoms: C_22  and  C_23
REMARK                            x       y       z     vdW  Elec       q    Type
REMARK                         _______ _______ _______ _____ _____    ______ ____
ROOT
ATOM      1  C   UNL     1       2.891  13.917  18.767  0.00  0.00    +0.000 A 
ATOM      2  C   UNL     1       2.083  13.616  19.843  0.00  0.00    +0.000 A 
ATOM      3  N   UNL     1       1.656  12.340  19.611  0.00  0.00    +0.000 N 
ATOM      4  C   UNL     1       2.221  11.912  18.440  0.00  0.00    +0.000 A 
ATOM      5  N   UNL     1       2.965  12.861  17.909  0.00  0.00    +0.000 NA
ATOM      6  C   UNL     1       1.984  10.529  17.919  0.00  0.00    +0.000 C 
ATOM      7  N   UNL     1       1.160   9.669  18.790  0.00  0.00    +0.000 N 
ATOM      8  C   UNL     1       1.620   8.414  19.147  0.00  0.00    +0.000 A 
ATOM      9  C   UNL     1       2.358   7.644  18.242  0.00  0.00    +0.000 A 
ATOM     10  C   UNL     1       3.006   6.445  18.597  0.00  0.00    +0.000 A 
ATOM     11  C   UNL     1       2.709   5.960  19.877  0.00  0.00    +0.000 A 
ATOM     12 CL   UNL     1       3.333   4.497  20.556  0.00  0.00    +0.000 Cl
ATOM     13  C   UNL     1       1.870   6.716  20.693  0.00  0.00    +0.000 A 
ATOM     14  N   UNL     1       1.353   7.928  20.371  0.00  0.00    +0.000 NA
ATOM     15  C   UNL     1       0.177  10.357  19.633  0.00  0.00    +0.000 C 
ATOM     16  C   UNL     1       0.789  11.518  20.428  0.00  0.00    +0.000 C 
ENDROOT
BRANCH  10  17
ATOM     17  C   UNL     1       3.961   5.802  17.648  0.00  0.00    +0.000 A 
ATOM     18  N   UNL     1       5.062   6.546  17.367  0.00  0.00    +0.000 NA
ATOM     19  C   UNL     1       5.933   6.106  16.429  0.00  0.00    +0.000 A 
ATOM     20  C   UNL     1       5.804   4.907  15.754  0.00  0.00    +0.000 A 
ATOM     21  C   UNL     1       6.766   4.475  14.695  0.00  0.00    +0.000 C 
ATOM     22  C   UNL     1       4.717   4.111  16.091  0.00  0.00    +0.000 A 
ATOM     23  C   UNL     1       3.767   4.547  17.031  0.00  0.00    +0.000 A 
ATOM     24  C   UNL     1       2.615   3.620  17.305  0.00  0.00    +0.000 C 
ENDBRANCH  10  17
BRANCH   1  27
ATOM     25  C   UNL     1       4.666  15.512  19.273  0.00  0.00    +0.000 C 
ATOM     26  O   UNL     1       5.242  14.893  20.158  0.00  0.00    +0.000 OA
ATOM     27  N   UNL     1       3.536  15.116  18.574  0.00  0.00    +0.000 N 
ATOM     28  H   UNL     1       3.149  15.728  17.872  0.00  0.00    +0.000 HD
BRANCH  25  30
ATOM     29  C   UNL     1       6.580  17.160  19.256  0.00  0.00    +0.000 C 
ATOM     30  C   UNL     1       5.149  16.878  18.811  0.00  0.00    +0.000 C 
ENDBRANCH  25  30
ENDBRANCH   1  27
TORSDOF 3
ENDMDL
MODEL 2
REMARK VINA RESULT:      -7.4      1.113      1.193
REMARK  Name = 
REMARK  6 active torsions:
REMARK  status: ('A' for Active; 'I' for Inactive)
REMARK    1  A    between atoms: C_1  and  C_2
REMARK    2  A    between atoms: C_2  and  C_3
REMARK    3  A    between atoms: N_5  and  C_6
REMARK    4  A    between atoms: C_15  and  C_16
REMARK    5  A    between atoms: C_19  and  C_20
REMARK    6  A    between atoms: C_22  and  C_23
REMARK                            x       y       z     vdW  Elec       q    Type
REMARK                         _______ _______ _______ _____ _____    ______ ____
ROOT
ATOM      1  C   UNL     1       2.476  13.558  19.152  0.00  0.00    +0.000 A 
ATOM      2  C   UNL     1       1.732  13.146  20.237  0.00  0.00    +0.000 A 
ATOM      3  N   UNL     1       1.390  11.855  19.953  0.00  0.00    +0.000 N 
ATOM      4  C   UNL     1       1.942  11.528  18.743  0.00  0.00    +0.000 A 
ATOM      5  N   UNL     1       2.595  12.555  18.238  0.00  0.00    +0.000 NA
ATOM      6  C   UNL     1       1.786  10.160  18.159  0.00  0.00    +0.000 C 
ATOM      7  N   UNL     1       1.058   9.198  19.011  0.00  0.00    +0.000 N 
ATOM      8  C   UNL     1       1.621   7.965  19.287  0.00  0.00    +0.000 A 
ATOM      9  C   UNL     1       2.379   7.297  18.319  0.00  0.00    +0.000 A 
ATOM     10  C   UNL     1       3.123   6.133  18.590  0.00  0.00    +0.000 A 
ATOM     11  C   UNL     1       2.910   5.565  19.852  0.00  0.00    +0.000 A 
ATOM     12 CL   UNL     1       3.662   4.120  20.432  0.00  0.00    +0.000 Cl
ATOM     13  C   UNL     1       2.049   6.216  20.733  0.00  0.00    +0.000 A 
ATOM     14  N   UNL     1       1.434   7.401  20.491  0.00  0.00    +0.000 NA
ATOM     15  C   UNL     1       0.060   9.770  19.921  0.00  0.00    +0.000 C 
ATOM     16  C   UNL     1       0.616  10.932  20.754  0.00  0.00    +0.000 C 
ENDROOT
BRANCH  10  17
ATOM     17  C   UNL     1       4.087   5.611  17.578  0.00  0.00    +0.000 A 
ATOM     18  N   UNL     1       5.142   6.429  17.328  0.00  0.00    +0.000 NA
ATOM     19  C   UNL     1       6.011   6.104  16.343  0.00  0.00    +0.000 A 
ATOM     20  C   UNL     1       5.928   4.951  15.586  0.00  0.00    +0.000 A 
ATOM     21  C   UNL     1       6.884   4.646  14.479  0.00  0.00    +0.000 C 
ATOM     22  C   UNL     1       4.891   4.076  15.887  0.00  0.00    +0.000 A 
ATOM     23  C   UNL     1       3.943   4.394  16.875  0.00  0.00    +0.000 A 
ATOM     24  C   UNL     1       2.846   3.390  17.105  0.00  0.00    +0.000 C 
ENDBRANCH  10  17
BRANCH   1  27
ATOM     25  C   UNL     1       2.294  15.952  18.717  0.00  0.00    +0.000 C 
ATOM     26  O   UNL     1       1.086  16.030  18.539  0.00  0.00    +0.000 OA
ATOM     27  N   UNL     1       3.026  14.810  19.001  0.00  0.00    +0.000 N 
ATOM     28  H   UNL     1       4.027  14.879  19.114  0.00  0.00    +0.000 HD
BRANCH  25  30
ATOM     29  C   UNL     1       4.666  16.818  18.791  0.00  0.00    +0.000 C 
ATOM     30  C   UNL     1       3.193  17.177  18.635  0.00  0.00    +0.000 C 
ENDBRANCH  25  30
ENDBRANCH   1  27
TORSDOF 3
ENDMDL
MODEL 3
REMARK VINA RESULT:      -7.1      4.854      6.969
REMARK  Name = 
REMARK  6 active torsions:
REMARK  status: ('A' for Active; 'I' for Inactive)
REMARK    1  A    between atoms: C_1  and  C_2
REMARK    2  A    between atoms: C_2  and  C_3
REMARK    3  A    between atoms: N_5  and  C_6
REMARK    4  A    between atoms: C_15  and  C_16
REMARK    5  A    between atoms: C_19  and  C_20
REMARK    6  A    between atoms: C_22  and  C_23
REMARK                            x       y       z     vdW  Elec       q    Type
REMARK                         _______ _______ _______ _____ _____    ______ ____
ROOT
ATOM      1  C   UNL     1       7.233  14.701  18.280  0.00  0.00    +0.000 A 
ATOM      2  C   UNL     1       7.035  15.321  19.496  0.00  0.00    +0.000 A 
ATOM      3  N   UNL     1       5.680  15.473  19.590  0.00  0.00    +0.000 N 
ATOM      4  C   UNL     1       5.115  14.935  18.466  0.00  0.00    +0.000 A 
ATOM      5  N   UNL     1       6.044  14.472  17.654  0.00  0.00    +0.000 NA
ATOM      6  C   UNL     1       3.631  14.906  18.277  0.00  0.00    +0.000 C 
ATOM      7  N   UNL     1       2.848  15.436  19.410  0.00  0.00    +0.000 N 
ATOM      8  C   UNL     1       1.825  14.678  19.950  0.00  0.00    +0.000 A 
ATOM      9  C   UNL     1       1.028  13.872  19.128  0.00  0.00    +0.000 A 
ATOM     10  C   UNL     1       0.094  12.945  19.629  0.00  0.00    +0.000 A 
ATOM     11  C   UNL     1      -0.134  13.009  21.010  0.00  0.00    +0.000 A 
ATOM     12 CL   UNL     1      -1.250  12.018  21.881  0.00  0.00    +0.000 Cl
ATOM     13  C   UNL     1       0.609  13.918  21.760  0.00  0.00    +0.000 A 
ATOM     14  N   UNL     1       1.589  14.719  21.271  0.00  0.00    +0.000 NA
ATOM     15  C   UNL     1       3.505  16.466  20.221  0.00  0.00    +0.000 C 
ATOM     16  C   UNL     1       4.914  16.058  20.670  0.00  0.00    +0.000 C 
ENDROOT
BRANCH  10  17
ATOM     17  C   UNL     1      -0.548  11.961  18.710  0.00  0.00    +0.000 A 
ATOM     18  N   UNL     1      -1.597  12.454  18.001  0.00  0.00    +0.000 NA
ATOM     19  C   UNL     1      -2.322  11.613  17.226  0.00  0.00    +0.000 A 
ATOM     20  C   UNL     1      -2.039  10.270  17.065  0.00  0.00    +0.000 A 
ATOM     21  C   UNL     1      -2.888   9.365  16.233  0.00  0.00    +0.000 C 
ATOM     22  C   UNL     1      -0.924   9.779  17.733  0.00  0.00    +0.000 A 
ATOM     23  C   UNL     1      -0.167  10.608  18.579  0.00  0.00    +0.000 A 
ATOM     24  C   UNL     1       1.005   9.971  19.274  0.00  0.00    +0.000 C 
ENDBRANCH  10  17
BRANCH   1  27
ATOM     25  C   UNL     1       9.224  13.292  18.208  0.00  0.00    +0.000 C 
ATOM     26  O   UNL     1       8.955  12.522  19.120  0.00  0.00    +0.000 OA
ATOM     27  N   UNL     1       8.459  14.358  17.760  0.00  0.00    +0.000 N 
ATOM     28  H   UNL     1       8.802  14.929  17.001  0.00  0.00    +0.000 HD
BRANCH  25  30
ATOM     29  C   UNL     1      11.138  11.782  17.549  0.00  0.00    +0.000 C 
ATOM     30  C   UNL     1      10.514  13.166  17.412  0.00  0.00    +0.000 C 
ENDBRANCH  25  30
ENDBRANCH   1  27
TORSDOF 3
ENDMDL
MODEL 4
REMARK VINA RESULT:      -7.0      6.299     10.510
REMARK  Name = 
REMARK  6 active torsions:
REMARK  status: ('A' for Active; 'I' for Inactive)
REMARK    1  A    between atoms: C_1  and  C_2
REMARK    2  A    between atoms: C_2  and  C_3
REMARK    3  A    between atoms: N_5  and  C_6
REMARK    4  A    between atoms: C_15  and  C_16
REMARK    5  A    between atoms: C_19  and  C_20
REMARK    6  A    between atoms: C_22  and  C_23
REMARK                            x       y       z     vdW  Elec       q    Type
REMARK                         _______ _______ _______ _____ _____    ______ ____
ROOT
ATOM      1  C   UNL     1       0.633   9.409  20.016  0.00  0.00    +0.000 A 
ATOM      2  C   UNL     1       0.405   9.292  21.371  0.00  0.00    +0.000 A 
ATOM      3  N   UNL     1      -0.372  10.371  21.685  0.00  0.00    +0.000 N 
ATOM      4  C   UNL     1      -0.601  11.076  20.535  0.00  0.00    +0.000 A 
ATOM      5  N   UNL     1       0.011  10.512  19.514  0.00  0.00    +0.000 NA
ATOM      6  C   UNL     1      -1.459  12.302  20.530  0.00  0.00    +0.000 C 
ATOM      7  N   UNL     1      -2.073  12.638  21.829  0.00  0.00    +0.000 N 
ATOM      8  C   UNL     1      -3.436  12.858  21.906  0.00  0.00    +0.000 A 
ATOM      9  C   UNL     1      -4.114  13.490  20.858  0.00  0.00    +0.000 A 
ATOM     10  C   UNL     1      -5.518  13.584  20.792  0.00  0.00    +0.000 A 
ATOM     11  C   UNL     1      -6.201  13.171  21.943  0.00  0.00    +0.000 A 
ATOM     12 CL   UNL     1      -7.917  13.212  22.150  0.00  0.00    +0.000 Cl
ATOM     13  C   UNL     1      -5.458  12.658  23.004  0.00  0.00    +0.000 A 
ATOM     14  N   UNL     1      -4.115  12.468  22.998  0.00  0.00    +0.000 NA
ATOM     15  C   UNL     1      -1.328  12.219  23.022  0.00  0.00    +0.000 C 
ATOM     16  C   UNL     1      -0.917  10.742  22.974  0.00  0.00    +0.000 C 
ENDROOT
BRANCH  10  17
ATOM     17  C   UNL     1      -6.177  14.061  19.541  0.00  0.00    +0.000 A 
ATOM     18  N   UNL     1      -6.437  13.084  18.634  0.00  0.00    +0.000 NA
ATOM     19  C   UNL     1      -6.926  13.426  17.419  0.00  0.00    +0.000 A 
ATOM     20  C   UNL     1      -7.229  14.720  17.042  0.00  0.00    +0.000 A 
ATOM     21  C   UNL     1      -7.729  15.063  15.677  0.00  0.00    +0.000 C 
ATOM     22  C   UNL     1      -7.030  15.714  17.993  0.00  0.00    +0.000 A 
ATOM     23  C   UNL     1      -6.487  15.408  19.253  0.00  0.00    +0.000 A 
ATOM     24  C   UNL     1      -6.289  16.560  20.199  0.00  0.00    +0.000 C 
ENDBRANCH  10  17
BRANCH   1  27
ATOM     25  C   UNL     1       2.088   8.897  18.125  0.00  0.00    +0.000 C 
ATOM     26  O   UNL     1       2.137  10.005  17.607  0.00  0.00    +0.000 OA
ATOM     27  N   UNL     1       1.385   8.536  19.264  0.00  0.00    +0.000 N 
ATOM     28  H   UNL     1       1.418   7.579  19.583  0.00  0.00    +0.000 HD
BRANCH  25  30
ATOM     29  C   UNL     1       3.090   6.623  18.577  0.00  0.00    +0.000 C 
ATOM     30  C   UNL     1       2.835   7.709  17.538  0.00  0.00    +0.000 C 
ENDBRANCH  25  30
ENDBRANCH   1  27
TORSDOF 3
ENDMDL
MODEL 5
REMARK VINA RESULT:      -6.9      6.180      8.605
REMARK  Name = 
REMARK  6 active torsions:
REMARK  status: ('A' for Active; 'I' for Inactive)
REMARK    1  A    between atoms: C_1  and  C_2
REMARK    2  A    between atoms: C_2  and  C_3
REMARK    3  A    between atoms: N_5  and  C_6
REMARK    4  A    between atoms: C_15  and  C_16
REMARK    5  A    between atoms: C_19  and  C_20
REMARK    6  A    between atoms: C_22  and  C_23
REMARK                            x       y       z     vdW  Elec       q    Type
REMARK                         _______ _______ _______ _____ _____    ______ ____
ROOT
ATOM      1  C   UNL     1      -0.226  13.428  18.402  0.00  0.00    +0.000 A 
ATOM      2  C   UNL     1      -0.386  14.747  18.770  0.00  0.00    +0.000 A 
ATOM      3  N   UNL     1       0.745  15.050  19.474  0.00  0.00    +0.000 N 
ATOM      4  C   UNL     1       1.543  13.938  19.492  0.00  0.00    +0.000 A 
ATOM      5  N   UNL     1       0.963  12.940  18.854  0.00  0.00    +0.000 NA
ATOM      6  C   UNL     1       2.884  13.950  20.154  0.00  0.00    +0.000 C 
ATOM      7  N   UNL     1       3.288  15.254  20.718  0.00  0.00    +0.000 N 
ATOM      8  C   UNL     1       4.519  15.791  20.387  0.00  0.00    +0.000 A 
ATOM      9  C   UNL     1       5.631  14.960  20.207  0.00  0.00    +0.000 A 
ATOM     10  C   UNL     1       6.861  15.419  19.698  0.00  0.00    +0.000 A 
ATOM     11  C   UNL     1       6.972  16.808  19.558  0.00  0.00    +0.000 A 
ATOM     12 CL   UNL     1       8.377  17.641  18.993  0.00  0.00    +0.000 Cl
ATOM     13  C   UNL     1       5.865  17.594  19.867  0.00  0.00    +0.000 A 
ATOM     14  N   UNL     1       4.650  17.120  20.243  0.00  0.00    +0.000 NA
ATOM     15  C   UNL     1       2.198  16.131  21.158  0.00  0.00    +0.000 C 
ATOM     16  C   UNL     1       1.111  16.307  20.090  0.00  0.00    +0.000 C 
ENDROOT
BRANCH  10  17
ATOM     17  C   UNL     1       7.922  14.442  19.315  0.00  0.00    +0.000 A 
ATOM     18  N   UNL     1       7.811  13.956  18.051  0.00  0.00    +0.000 NA
ATOM     19  C   UNL     1       8.653  12.977  17.644  0.00  0.00    +0.000 A 
ATOM     20  C   UNL     1       9.668  12.456  18.423  0.00  0.00    +0.000 A 
ATOM     21  C   UNL     1      10.552  11.346  17.953  0.00  0.00    +0.000 C 
ATOM     22  C   UNL     1       9.829  13.001  19.691  0.00  0.00    +0.000 A 
ATOM     23  C   UNL     1       8.953  13.991  20.168  0.00  0.00    +0.000 A 
ATOM     24  C   UNL     1       9.199  14.494  21.564  0.00  0.00    +0.000 C 
ENDBRANCH  10  17
BRANCH   1  27
ATOM     25  C   UNL     1      -2.048  11.814  18.239  0.00  0.00    +0.000 C 
ATOM     26  O   UNL     1      -2.176  11.539  19.425  0.00  0.00    +0.000 OA
ATOM     27  N   UNL     1      -1.136  12.694  17.678  0.00  0.00    +0.000 N 
ATOM     28  H   UNL     1      -1.125  12.824  16.677  0.00  0.00    +0.000 HD
BRANCH  25  30
ATOM     29  C   UNL     1      -2.991   9.661  17.315  0.00  0.00    +0.000 C 
ATOM     30  C   UNL     1      -2.928  11.177  17.173  0.00  0.00    +0.000 C 
ENDBRANCH  25  30
ENDBRANCH   1  27
TORSDOF 3
ENDMDL
MODEL 6
REMARK VINA RESULT:      -6.9      1.390      1.957
REMARK  Name = 
REMARK  6 active torsions:
REMARK  status: ('A' for Active; 'I' for Inactive)
REMARK    1  A    between atoms: C_1  and  C_2
REMARK    2  A    between atoms: C_2  and  C_3
REMARK    3  A    between atoms: N_5  and  C_6
REMARK    4  A    between atoms: C_15  and  C_16
REMARK    5  A    between atoms: C_19  and  C_20
REMARK    6  A    between atoms: C_22  and  C_23
REMARK                            x       y       z     vdW  Elec       q    Type
REMARK                         _______ _______ _______ _____ _____    ______ ____
ROOT
ATOM      1  C   UNL     1       2.230  13.279  18.888  0.00  0.00    +0.000 A 
ATOM      2  C   UNL     1       1.685  12.738  20.033  0.00  0.00    +0.000 A 
ATOM      3  N   UNL     1       1.502  11.416  19.738  0.00  0.00    +0.000 N 
ATOM      4  C   UNL     1       1.950  11.202  18.462  0.00  0.00    +0.000 A 
ATOM      5  N   UNL     1       2.385  12.325  17.928  0.00  0.00    +0.000 NA
ATOM      6  C   UNL     1       1.926   9.839  17.846  0.00  0.00    +0.000 C 
ATOM      7  N   UNL     1       1.449   8.762  18.735  0.00  0.00    +0.000 N 
ATOM      8  C   UNL     1       2.212   7.619  18.898  0.00  0.00    +0.000 A 
ATOM      9  C   UNL     1       2.941   7.093  17.825  0.00  0.00    +0.000 A 
ATOM     10  C   UNL     1       3.872   6.046  17.965  0.00  0.00    +0.000 A 
ATOM     11  C   UNL     1       3.892   5.424  19.220  0.00  0.00    +0.000 A 
ATOM     12 CL   UNL     1       4.907   4.094  19.655  0.00  0.00    +0.000 Cl
ATOM     13  C   UNL     1       3.055   5.920  20.216  0.00  0.00    +0.000 A 
ATOM     14  N   UNL     1       2.251   7.007  20.093  0.00  0.00    +0.000 NA
ATOM     15  C   UNL     1       0.492   9.159  19.773  0.00  0.00    +0.000 C 
ATOM     16  C   UNL     1       0.968  10.371  20.584  0.00  0.00    +0.000 C 
ENDROOT
BRANCH  10  17
ATOM     17  C   UNL     1       4.776   5.695  16.831  0.00  0.00    +0.000 A 
ATOM     18  N   UNL     1       4.291   4.737  16.000  0.00  0.00    +0.000 NA
ATOM     19  C   UNL     1       5.081   4.262  15.008  0.00  0.00    +0.000 A 
ATOM     20  C   UNL     1       6.357   4.724  14.747  0.00  0.00    +0.000 A 
ATOM     21  C   UNL     1       7.215   4.146  13.668  0.00  0.00    +0.000 C 
ATOM     22  C   UNL     1       6.830   5.753  15.551  0.00  0.00    +0.000 A 
ATOM     23  C   UNL     1       6.058   6.248  16.617  0.00  0.00    +0.000 A 
ATOM     24  C   UNL     1       6.673   7.345  17.442  0.00  0.00    +0.000 C 
ENDBRANCH  10  17
BRANCH   1  27
ATOM     25  C   UNL     1       3.830  15.038  18.341  0.00  0.00    +0.000 C 
ATOM     26  O   UNL     1       4.814  14.346  18.111  0.00  0.00    +0.000 OA
ATOM     27  N   UNL     1       2.572  14.601  18.726  0.00  0.00    +0.000 N 
ATOM     28  H   UNL     1       1.844  15.280  18.898  0.00  0.00    +0.000 HD
BRANCH  25  30
ATOM     29  C   UNL     1       2.719  17.106  17.410  0.00  0.00    +0.000 C 
ATOM     30  C   UNL     1       3.879  16.554  18.231  0.00  0.00    +0.000 C 
ENDBRANCH  25  30
ENDBRANCH   1  27
TORSDOF 3
ENDMDL
MODEL 7
REMARK VINA RESULT:      -6.9      5.961      8.607
REMARK  Name = 
REMARK  6 active torsions:
REMARK  status: ('A' for Active; 'I' for Inactive)
REMARK    1  A    between atoms: C_1  and  C_2
REMARK    2  A    between atoms: C_2  and  C_3
REMARK    3  A    between atoms: N_5  and  C_6
REMARK    4  A    between atoms: C_15  and  C_16
REMARK    5  A    between atoms: C_19  and  C_20
REMARK    6  A    between atoms: C_22  and  C_23
REMARK                            x       y       z     vdW  Elec       q    Type
REMARK                         _______ _______ _______ _____ _____    ______ ____
ROOT
ATOM      1  C   UNL     1       0.454  12.688  18.658  0.00  0.00    +0.000 A 
ATOM      2  C   UNL     1       0.244  14.045  18.532  0.00  0.00    +0.000 A 
ATOM      3  N   UNL     1       1.321  14.621  19.145  0.00  0.00    +0.000 N 
ATOM      4  C   UNL     1       2.138  13.618  19.592  0.00  0.00    +0.000 A 
ATOM      5  N   UNL     1       1.621  12.439  19.315  0.00  0.00    +0.000 NA
ATOM      6  C   UNL     1       3.433  13.917  20.279  0.00  0.00    +0.000 C 
ATOM      7  N   UNL     1       3.774  15.350  20.371  0.00  0.00    +0.000 N 
ATOM      8  C   UNL     1       5.013  15.789  19.939  0.00  0.00    +0.000 A 
ATOM      9  C   UNL     1       6.151  14.994  20.120  0.00  0.00    +0.000 A 
ATOM     10  C   UNL     1       7.402  15.297  19.549  0.00  0.00    +0.000 A 
ATOM     11  C   UNL     1       7.494  16.554  18.938  0.00  0.00    +0.000 A 
ATOM     12 CL   UNL     1       8.915  17.195  18.192  0.00  0.00    +0.000 Cl
ATOM     13  C   UNL     1       6.353  17.352  18.892  0.00  0.00    +0.000 A 
ATOM     14  N   UNL     1       5.127  16.988  19.346  0.00  0.00    +0.000 NA
ATOM     15  C   UNL     1       2.641  16.280  20.417  0.00  0.00    +0.000 C 
ATOM     16  C   UNL     1       1.622  16.028  19.299  0.00  0.00    +0.000 C 
ENDROOT
BRANCH  10  17
ATOM     17  C   UNL     1       8.504  14.292  19.589  0.00  0.00    +0.000 A 
ATOM     18  N   UNL     1       9.325  14.399  20.666  0.00  0.00    +0.000 NA
ATOM     19  C   UNL     1      10.424  13.612  20.739  0.00  0.00    +0.000 A 
ATOM     20  C   UNL     1      10.754  12.655  19.799  0.00  0.00    +0.000 A 
ATOM     21  C   UNL     1      11.998  11.833  19.893  0.00  0.00    +0.000 C 
ATOM     22  C   UNL     1       9.878  12.493  18.732  0.00  0.00    +0.000 A 
ATOM     23  C   UNL     1       8.747  13.316  18.597  0.00  0.00    +0.000 A 
ATOM     24  C   UNL     1       7.878  13.076  17.393  0.00  0.00    +0.000 C 
ENDBRANCH  10  17
BRANCH   1  27
ATOM     25  C   UNL     1      -1.499  11.243  18.882  0.00  0.00    +0.000 C 
ATOM     26  O   UNL     1      -1.877  11.592  19.992  0.00  0.00    +0.000 OA
ATOM     27  N   UNL     1      -0.393  11.711  18.190  0.00  0.00    +0.000 N 
ATOM     28  H   UNL     1      -0.181  11.329  17.280  0.00  0.00    +0.000 HD
BRANCH  25  30
ATOM     29  C   UNL     1      -2.325  10.532  16.604  0.00  0.00    +0.000 C 
ATOM     30  C   UNL     1      -2.240  10.180  18.085  0.00  0.00    +0.000 C 
ENDBRANCH  25  30
ENDBRANCH   1  27
TORSDOF 3
ENDMDL
MODEL 8
REMARK VINA RESULT:      -6.8      1.861      2.276
REMARK  Name = 
REMARK  6 active torsions:
REMARK  status: ('A' for Active; 'I' for Inactive)
REMARK    1  A    between atoms: C_1  and  C_2
REMARK    2  A    between atoms: C_2  and  C_3
REMARK    3  A    between atoms: N_5  and  C_6
REMARK    4  A    between atoms: C_15  and  C_16
REMARK    5  A    between atoms: C_19  and  C_20
REMARK    6  A    between atoms: C_22  and  C_23
REMARK                            x       y       z     vdW  Elec       q    Type
REMARK                         _______ _______ _______ _____ _____    ______ ____
ROOT
ATOM      1  C   UNL     1       2.164  13.243  18.983  0.00  0.00    +0.000 A 
ATOM      2  C   UNL     1       1.621  12.675  20.116  0.00  0.00    +0.000 A 
ATOM      3  N   UNL     1       1.458  11.356  19.799  0.00  0.00    +0.000 N 
ATOM      4  C   UNL     1       1.916  11.170  18.522  0.00  0.00    +0.000 A 
ATOM      5  N   UNL     1       2.338  12.307  18.008  0.00  0.00    +0.000 NA
ATOM      6  C   UNL     1       1.914   9.817  17.884  0.00  0.00    +0.000 C 
ATOM      7  N   UNL     1       1.447   8.718  18.753  0.00  0.00    +0.000 N 
ATOM      8  C   UNL     1       2.225   7.584  18.901  0.00  0.00    +0.000 A 
ATOM      9  C   UNL     1       2.966   7.085  17.823  0.00  0.00    +0.000 A 
ATOM     10  C   UNL     1       3.911   6.049  17.951  0.00  0.00    +0.000 A 
ATOM     11  C   UNL     1       3.933   5.407  19.196  0.00  0.00    +0.000 A 
ATOM     12 CL   UNL     1       4.965   4.085  19.614  0.00  0.00    +0.000 Cl
ATOM     13  C   UNL     1       3.084   5.876  20.196  0.00  0.00    +0.000 A 
ATOM     14  N   UNL     1       2.266   6.952  20.085  0.00  0.00    +0.000 NA
ATOM     15  C   UNL     1       0.480   9.085  19.792  0.00  0.00    +0.000 C 
ATOM     16  C   UNL     1       0.934  10.291  20.625  0.00  0.00    +0.000 C 
ENDROOT
BRANCH  10  17
ATOM     17  C   UNL     1       4.826   5.729  16.817  0.00  0.00    +0.000 A 
ATOM     18  N   UNL     1       4.350   4.792  15.956  0.00  0.00    +0.000 NA
ATOM     19  C   UNL     1       5.150   4.345  14.960  0.00  0.00    +0.000 A 
ATOM     20  C   UNL     1       6.428   4.815  14.722  0.00  0.00    +0.000 A 
ATOM     21  C   UNL     1       7.296   4.267  13.636  0.00  0.00    +0.000 C 
ATOM     22  C   UNL     1       6.890   5.825  15.556  0.00  0.00    +0.000 A 
ATOM     23  C   UNL     1       6.108   6.291  16.628  0.00  0.00    +0.000 A 
ATOM     24  C   UNL     1       6.713   7.368  17.486  0.00  0.00    +0.000 C 
ENDBRANCH  10  17
BRANCH   1  27
ATOM     25  C   UNL     1       1.558  15.590  18.706  0.00  0.00    +0.000 C 
ATOM     26  O   UNL     1       0.340  15.477  18.665  0.00  0.00    +0.000 OA
ATOM     27  N   UNL     1       2.489  14.572  18.844  0.00  0.00    +0.000 N 
ATOM     28  H   UNL     1       3.473  14.799  18.851  0.00  0.00    +0.000 HD
BRANCH  25  30
ATOM     29  C   UNL     1       2.940  17.129  17.256  0.00  0.00    +0.000 C 
ATOM     30  C   UNL     1       2.236  16.947  18.596  0.00  0.00    +0.000 C 
ENDBRANCH  25  30
ENDBRANCH   1  27
TORSDOF 3
ENDMDL
MODEL 9
REMARK VINA RESULT:      -6.8      5.372      7.630
REMARK  Name = 
REMARK  6 active torsions:
REMARK  status: ('A' for Active; 'I' for Inactive)
REMARK    1  A    between atoms: C_1  and  C_2
REMARK    2  A    between atoms: C_2  and  C_3
REMARK    3  A    between atoms: N_5  and  C_6
REMARK    4  A    between atoms: C_15  and  C_16
REMARK    5  A    between atoms: C_19  and  C_20
REMARK    6  A    between atoms: C_22  and  C_23
REMARK                            x       y       z     vdW  Elec       q    Type
REMARK                         _______ _______ _______ _____ _____    ______ ____
ROOT
ATOM      1  C   UNL     1       8.270  14.506  18.225  0.00  0.00    +0.000 A 
ATOM      2  C   UNL     1       8.155  15.443  19.230  0.00  0.00    +0.000 A 
ATOM      3  N   UNL     1       6.823  15.743  19.273  0.00  0.00    +0.000 N 
ATOM      4  C   UNL     1       6.188  14.981  18.330  0.00  0.00    +0.000 A 
ATOM      5  N   UNL     1       7.053  14.232  17.677  0.00  0.00    +0.000 NA
ATOM      6  C   UNL     1       4.704  15.044  18.147  0.00  0.00    +0.000 C 
ATOM      7  N   UNL     1       3.997  15.929  19.093  0.00  0.00    +0.000 N 
ATOM      8  C   UNL     1       2.918  15.443  19.810  0.00  0.00    +0.000 A 
ATOM      9  C   UNL     1       2.033  14.527  19.230  0.00  0.00    +0.000 A 
ATOM     10  C   UNL     1       1.027  13.861  19.955  0.00  0.00    +0.000 A 
ATOM     11  C   UNL     1       0.835  14.312  21.267  0.00  0.00    +0.000 A 
ATOM     12 CL   UNL     1      -0.351  13.699  22.365  0.00  0.00    +0.000 Cl
ATOM     13  C   UNL     1       1.674  15.313  21.752  0.00  0.00    +0.000 A 
ATOM     14  N   UNL     1       2.714  15.857  21.072  0.00  0.00    +0.000 NA
ATOM     15  C   UNL     1       4.762  17.071  19.603  0.00  0.00    +0.000 C 
ATOM     16  C   UNL     1       6.136  16.665  20.152  0.00  0.00    +0.000 C 
ENDROOT
BRANCH  10  17
ATOM     17  C   UNL     1       0.278  12.733  19.329  0.00  0.00    +0.000 A 
ATOM     18  N   UNL     1      -0.554  13.100  18.320  0.00  0.00    +0.000 NA
ATOM     19  C   UNL     1      -1.367  12.171  17.764  0.00  0.00    +0.000 A 
ATOM     20  C   UNL     1      -1.379  10.837  18.124  0.00  0.00    +0.000 A 
ATOM     21  C   UNL     1      -2.319   9.849  17.515  0.00  0.00    +0.000 C 
ATOM     22  C   UNL     1      -0.478  10.444  19.106  0.00  0.00    +0.000 A 
ATOM     23  C   UNL     1       0.356  11.383  19.738  0.00  0.00    +0.000 A 
ATOM     24  C   UNL     1       1.275  10.857  20.806  0.00  0.00    +0.000 C 
ENDBRANCH  10  17
BRANCH   1  27
ATOM     25  C   UNL     1       9.748  12.578  17.991  0.00  0.00    +0.000 C 
ATOM     26  O   UNL     1       9.049  11.727  18.524  0.00  0.00    +0.000 OA
ATOM     27  N   UNL     1       9.448  13.921  17.823  0.00  0.00    +0.000 N 
ATOM     28  H   UNL     1      10.121  14.526  17.374  0.00  0.00    +0.000 HD
BRANCH  25  30
ATOM     29  C   UNL     1      12.239  12.958  18.163  0.00  0.00    +0.000 C 
ATOM     30  C   UNL     1      11.117  12.243  17.419  0.00  0.00    +0.000 C 
ENDBRANCH  25  30
ENDBRANCH   1  27
TORSDOF 3
ENDMDL
