MODEL 1
REMARK VINA RESULT:      -8.0      0.000      0.000
REMARK  Name = 
REMARK  11 active torsions:
REMARK  status: ('A' for Active; 'I' for Inactive)
REMARK    1  A    between atoms: C_1  and  C_2
REMARK    2  A    between atoms: C_2  and  O_3
REMARK    3  A    between atoms: O_3  and  C_4
REMARK    4  A    between atoms: C_4  and  C_6
REMARK    5  A    between atoms: C_12  and  O_13
REMARK    6  A    between atoms: O_13  and  C_14
REMARK    7  A    between atoms: C_14  and  C_15
REMARK    8  A    between atoms: C_23  and  S_24
REMARK    9  A    between atoms: S_24  and  C_25
REMARK   10  A    between atoms: C_25  and  C_26
REMARK   11  A    between atoms: C_25  and  C_27
REMARK                            x       y       z     vdW  Elec       q    Type
REMARK                         _______ _______ _______ _____ _____    ______ ____
ROOT
ATOM      1  C   UNL     1       5.192   4.333  16.533  0.00  0.00    +0.000 A 
ATOM      2  C   UNL     1       4.510   3.145  16.772  0.00  0.00    +0.000 A 
ATOM      3  N   UNL     1       3.569   2.976  17.722  0.00  0.00    +0.000 NA
ATOM      4  C   UNL     1       3.229   4.037  18.453  0.00  0.00    +0.000 A 
ATOM      5  C   UNL     1       2.247   3.849  19.414  0.00  0.00    +0.000 A 
ATOM      6  C   UNL     1       1.783   4.903  20.197  0.00  0.00    +0.000 A 
ATOM      7  C   UNL     1       2.278   6.179  19.988  0.00  0.00    +0.000 A 
ATOM      8  C   UNL     1       3.287   6.378  19.040  0.00  0.00    +0.000 A 
ATOM      9  C   UNL     1       3.810   5.316  18.272  0.00  0.00    +0.000 A 
ATOM     10  C   UNL     1       4.853   5.455  17.304  0.00  0.00    +0.000 A 
ENDROOT
BRANCH   1  11
ATOM     11  C   UNL     1       6.144   4.341  15.401  0.00  0.00    +0.000 C 
ATOM     12  O   UNL     1       7.355   4.429  15.491  0.00  0.00    +0.000 OA
BRANCH  11  13
ATOM     13  O   UNL     1       5.432   4.372  14.243  0.00  0.00    +0.000 OA
BRANCH  13  15
ATOM     14  C   UNL     1       5.178   3.264  12.131  0.00  0.00    +0.000 C 
ATOM     15  C   UNL     1       6.153   3.941  13.082  0.00  0.00    +0.000 C 
ENDBRANCH  13  15
ENDBRANCH  11  13
ENDBRANCH   1  11
BRANCH   7  16
ATOM     16  O   UNL     1       1.721   7.166  20.748  0.00  0.00    +0.000 OA
BRANCH  16  17
ATOM     17  C   UNL     1       1.467   8.389  20.054  0.00  0.00    +0.000 C 
BRANCH  17  18
ATOM     18  C   UNL     1       0.643   9.283  20.941  0.00  0.00    +0.000 A 
ATOM     19  C   UNL     1       0.465   8.960  22.292  0.00  0.00    +0.000 A 
ATOM     20  C   UNL     1      -0.300   9.791  23.111  0.00  0.00    +0.000 A 
ATOM     21  C   UNL     1      -0.889  10.941  22.586  0.00  0.00    +0.000 A 
ATOM     22  C   UNL     1      -0.714  11.263  21.241  0.00  0.00    +0.000 A 
ATOM     23  C   UNL     1       0.048  10.435  20.420  0.00  0.00    +0.000 A 
ENDBRANCH  17  18
ENDBRANCH  16  17
ENDBRANCH   7  16
BRANCH  10  24
ATOM     24  S   UNL     1       5.656   7.046  16.966  0.00  0.00    +0.000 S 
BRANCH  24  25
ATOM     25  C   UNL     1       7.374   6.862  17.609  0.00  0.00    +0.000 C 
ATOM     26  C   UNL     1       8.033   8.187  17.969  0.00  0.00    +0.000 C 
ATOM     27  C   UNL     1       7.293   5.972  18.854  0.00  0.00    +0.000 C 
ENDBRANCH  24  25
ENDBRANCH  10  24
TORSDOF 8
ENDMDL
MODEL 2
REMARK VINA RESULT:      -7.8      0.260      1.176
REMARK  Name = 
REMARK  11 active torsions:
REMARK  status: ('A' for Active; 'I' for Inactive)
REMARK    1  A    between atoms: C_1  and  C_2
REMARK    2  A    between atoms: C_2  and  O_3
REMARK    3  A    between atoms: O_3  and  C_4
REMARK    4  A    between atoms: C_4  and  C_6
REMARK    5  A    between atoms: C_12  and  O_13
REMARK    6  A    between atoms: O_13  and  C_14
REMARK    7  A    between atoms: C_14  and  C_15
REMARK    8  A    between atoms: C_23  and  S_24
REMARK    9  A    between atoms: S_24  and  C_25
REMARK   10  A    between atoms: C_25  and  C_26
REMARK   11  A    between atoms: C_25  and  C_27
REMARK                            x       y       z     vdW  Elec       q    Type
REMARK                         _______ _______ _______ _____ _____    ______ ____
ROOT
ATOM      1  C   UNL     1       5.178   4.347  16.471  0.00  0.00    +0.000 A 
ATOM      2  C   UNL     1       4.537   3.133  16.683  0.00  0.00    +0.000 A 
ATOM      3  N   UNL     1       3.603   2.911  17.629  0.00  0.00    +0.000 NA
ATOM      4  C   UNL     1       3.230   3.943  18.385  0.00  0.00    +0.000 A 
ATOM      5  C   UNL     1       2.256   3.700  19.343  0.00  0.00    +0.000 A 
ATOM      6  C   UNL     1       1.761   4.720  20.151  0.00  0.00    +0.000 A 
ATOM      7  C   UNL     1       2.212   6.016  19.972  0.00  0.00    +0.000 A 
ATOM      8  C   UNL     1       3.213   6.270  19.028  0.00  0.00    +0.000 A 
ATOM      9  C   UNL     1       3.769   5.244  18.234  0.00  0.00    +0.000 A 
ATOM     10  C   UNL     1       4.805   5.440  17.269  0.00  0.00    +0.000 A 
ENDROOT
BRANCH   1  11
ATOM     11  C   UNL     1       6.127   4.414  15.338  0.00  0.00    +0.000 C 
ATOM     12  O   UNL     1       7.324   4.623  15.423  0.00  0.00    +0.000 OA
BRANCH  11  13
ATOM     13  O   UNL     1       5.418   4.339  14.180  0.00  0.00    +0.000 OA
BRANCH  13  15
ATOM     14  C   UNL     1       5.045   3.362  12.022  0.00  0.00    +0.000 C 
ATOM     15  C   UNL     1       6.059   3.607  13.128  0.00  0.00    +0.000 C 
ENDBRANCH  13  15
ENDBRANCH  11  13
ENDBRANCH   1  11
BRANCH   7  16
ATOM     16  O   UNL     1       1.625   6.966  20.755  0.00  0.00    +0.000 OA
BRANCH  16  17
ATOM     17  C   UNL     1       1.697   8.297  20.242  0.00  0.00    +0.000 C 
BRANCH  17  18
ATOM     18  C   UNL     1       0.783   9.175  21.055  0.00  0.00    +0.000 A 
ATOM     19  C   UNL     1       0.071  10.211  20.437  0.00  0.00    +0.000 A 
ATOM     20  C   UNL     1      -0.775  11.022  21.194  0.00  0.00    +0.000 A 
ATOM     21  C   UNL     1      -0.910  10.805  22.565  0.00  0.00    +0.000 A 
ATOM     22  C   UNL     1      -0.201   9.776  23.182  0.00  0.00    +0.000 A 
ATOM     23  C   UNL     1       0.645   8.964  22.430  0.00  0.00    +0.000 A 
ENDBRANCH  17  18
ENDBRANCH  16  17
ENDBRANCH   7  16
BRANCH  10  24
ATOM     24  S   UNL     1       5.555   7.064  16.967  0.00  0.00    +0.000 S 
BRANCH  24  25
ATOM     25  C   UNL     1       6.911   7.203  18.207  0.00  0.00    +0.000 C 
ATOM     26  C   UNL     1       7.606   5.878  18.498  0.00  0.00    +0.000 C 
ATOM     27  C   UNL     1       7.928   8.205  17.649  0.00  0.00    +0.000 C 
ENDBRANCH  24  25
ENDBRANCH  10  24
TORSDOF 8
ENDMDL
MODEL 3
REMARK VINA RESULT:      -7.8      0.608      1.090
REMARK  Name = 
REMARK  11 active torsions:
REMARK  status: ('A' for Active; 'I' for Inactive)
REMARK    1  A    between atoms: C_1  and  C_2
REMARK    2  A    between atoms: C_2  and  O_3
REMARK    3  A    between atoms: O_3  and  C_4
REMARK    4  A    between atoms: C_4  and  C_6
REMARK    5  A    between atoms: C_12  and  O_13
REMARK    6  A    between atoms: O_13  and  C_14
REMARK    7  A    between atoms: C_14  and  C_15
REMARK    8  A    between atoms: C_23  and  S_24
REMARK    9  A    between atoms: S_24  and  C_25
REMARK   10  A    between atoms: C_25  and  C_26
REMARK   11  A    between atoms: C_25  and  C_27
REMARK                            x       y       z     vdW  Elec       q    Type
REMARK                         _______ _______ _______ _____ _____    ______ ____
ROOT
ATOM      1  C   UNL     1       5.251   4.380  16.690  0.00  0.00    +0.000 A 
ATOM      2  C   UNL     1       4.529   3.287  17.155  0.00  0.00    +0.000 A 
ATOM      3  N   UNL     1       3.570   3.344  18.100  0.00  0.00    +0.000 NA
ATOM      4  C   UNL     1       3.253   4.543  18.589  0.00  0.00    +0.000 A 
ATOM      5  C   UNL     1       2.252   4.585  19.548  0.00  0.00    +0.000 A 
ATOM      6  C   UNL     1       1.812   5.791  20.087  0.00  0.00    +0.000 A 
ATOM      7  C   UNL     1       2.349   6.982  19.630  0.00  0.00    +0.000 A 
ATOM      8  C   UNL     1       3.377   6.952  18.682  0.00  0.00    +0.000 A 
ATOM      9  C   UNL     1       3.877   5.740  18.161  0.00  0.00    +0.000 A 
ATOM     10  C   UNL     1       4.938   5.646  17.206  0.00  0.00    +0.000 A 
ENDROOT
BRANCH   1  11
ATOM     11  C   UNL     1       6.219   4.127  15.600  0.00  0.00    +0.000 C 
ATOM     12  O   UNL     1       7.431   4.184  15.698  0.00  0.00    +0.000 OA
BRANCH  11  13
ATOM     13  O   UNL     1       5.526   3.957  14.443  0.00  0.00    +0.000 OA
BRANCH  13  15
ATOM     14  C   UNL     1       5.503   3.205  12.165  0.00  0.00    +0.000 C 
ATOM     15  C   UNL     1       6.337   3.839  13.268  0.00  0.00    +0.000 C 
ENDBRANCH  13  15
ENDBRANCH  11  13
ENDBRANCH   1  11
BRANCH   7  16
ATOM     16  O   UNL     1       1.813   8.120  20.159  0.00  0.00    +0.000 OA
BRANCH  16  17
ATOM     17  C   UNL     1       1.045   7.928  21.347  0.00  0.00    +0.000 C 
BRANCH  17  18
ATOM     18  C   UNL     1       0.338   9.216  21.675  0.00  0.00    +0.000 A 
ATOM     19  C   UNL     1       0.372  10.286  20.772  0.00  0.00    +0.000 A 
ATOM     20  C   UNL     1      -0.285  11.477  21.080  0.00  0.00    +0.000 A 
ATOM     21  C   UNL     1      -0.971  11.607  22.286  0.00  0.00    +0.000 A 
ATOM     22  C   UNL     1      -1.005  10.543  23.188  0.00  0.00    +0.000 A 
ATOM     23  C   UNL     1      -0.350   9.353  22.884  0.00  0.00    +0.000 A 
ENDBRANCH  17  18
ENDBRANCH  16  17
ENDBRANCH   7  16
BRANCH  10  24
ATOM     24  S   UNL     1       5.796   7.110  16.564  0.00  0.00    +0.000 S 
BRANCH  24  25
ATOM     25  C   UNL     1       7.446   7.097  17.385  0.00  0.00    +0.000 C 
ATOM     26  C   UNL     1       7.922   8.479  17.814  0.00  0.00    +0.000 C 
ATOM     27  C   UNL     1       7.327   6.189  18.615  0.00  0.00    +0.000 C 
ENDBRANCH  24  25
ENDBRANCH  10  24
TORSDOF 8
ENDMDL
MODEL 4
REMARK VINA RESULT:      -7.5      0.880      1.391
REMARK  Name = 
REMARK  11 active torsions:
REMARK  status: ('A' for Active; 'I' for Inactive)
REMARK    1  A    between atoms: C_1  and  C_2
REMARK    2  A    between atoms: C_2  and  O_3
REMARK    3  A    between atoms: O_3  and  C_4
REMARK    4  A    between atoms: C_4  and  C_6
REMARK    5  A    between atoms: C_12  and  O_13
REMARK    6  A    between atoms: O_13  and  C_14
REMARK    7  A    between atoms: C_14  and  C_15
REMARK    8  A    between atoms: C_23  and  S_24
REMARK    9  A    between atoms: S_24  and  C_25
REMARK   10  A    between atoms: C_25  and  C_26
REMARK   11  A    between atoms: C_25  and  C_27
REMARK                            x       y       z     vdW  Elec       q    Type
REMARK                         _______ _______ _______ _____ _____    ______ ____
ROOT
ATOM      1  C   UNL     1       5.237   4.185  16.613  0.00  0.00    +0.000 A 
ATOM      2  C   UNL     1       4.641   2.951  16.841  0.00  0.00    +0.000 A 
ATOM      3  N   UNL     1       3.695   2.713  17.771  0.00  0.00    +0.000 NA
ATOM      4  C   UNL     1       3.261   3.747  18.492  0.00  0.00    +0.000 A 
ATOM      5  C   UNL     1       2.276   3.487  19.433  0.00  0.00    +0.000 A 
ATOM      6  C   UNL     1       1.719   4.505  20.203  0.00  0.00    +0.000 A 
ATOM      7  C   UNL     1       2.122   5.814  20.002  0.00  0.00    +0.000 A 
ATOM      8  C   UNL     1       3.133   6.086  19.074  0.00  0.00    +0.000 A 
ATOM      9  C   UNL     1       3.750   5.065  18.320  0.00  0.00    +0.000 A 
ATOM     10  C   UNL     1       4.800   5.280  17.374  0.00  0.00    +0.000 A 
ENDROOT
BRANCH   1  11
ATOM     11  C   UNL     1       6.210   4.263  15.501  0.00  0.00    +0.000 C 
ATOM     12  O   UNL     1       7.414   4.396  15.618  0.00  0.00    +0.000 OA
BRANCH  11  13
ATOM     13  O   UNL     1       5.519   4.300  14.330  0.00  0.00    +0.000 OA
BRANCH  13  15
ATOM     14  C   UNL     1       5.219   3.308  12.167  0.00  0.00    +0.000 C 
ATOM     15  C   UNL     1       6.230   3.788  13.197  0.00  0.00    +0.000 C 
ENDBRANCH  13  15
ENDBRANCH  11  13
ENDBRANCH   1  11
BRANCH   7  16
ATOM     16  O   UNL     1       1.477   6.758  20.747  0.00  0.00    +0.000 OA
BRANCH  16  17
ATOM     17  C   UNL     1       2.039   8.069  20.673  0.00  0.00    +0.000 C 
BRANCH  17  18
ATOM     18  C   UNL     1       1.063   8.969  19.964  0.00  0.00    +0.000 A 
ATOM     19  C   UNL     1       0.041   9.603  20.682  0.00  0.00    +0.000 A 
ATOM     20  C   UNL     1      -0.861  10.436  20.021  0.00  0.00    +0.000 A 
ATOM     21  C   UNL     1      -0.749  10.637  18.645  0.00  0.00    +0.000 A 
ATOM     22  C   UNL     1       0.267  10.007  17.928  0.00  0.00    +0.000 A 
ATOM     23  C   UNL     1       1.169   9.173  18.585  0.00  0.00    +0.000 A 
ENDBRANCH  17  18
ENDBRANCH  16  17
ENDBRANCH   7  16
BRANCH  10  24
ATOM     24  S   UNL     1       5.490   6.926  17.049  0.00  0.00    +0.000 S 
BRANCH  24  25
ATOM     25  C   UNL     1       7.254   6.818  17.569  0.00  0.00    +0.000 C 
ATOM     26  C   UNL     1       7.904   8.176  17.801  0.00  0.00    +0.000 C 
ATOM     27  C   UNL     1       7.289   6.003  18.868  0.00  0.00    +0.000 C 
ENDBRANCH  24  25
ENDBRANCH  10  24
TORSDOF 8
ENDMDL
MODEL 5
REMARK VINA RESULT:      -7.4      1.863      3.084
REMARK  Name = 
REMARK  11 active torsions:
REMARK  status: ('A' for Active; 'I' for Inactive)
REMARK    1  A    between atoms: C_1  and  C_2
REMARK    2  A    between atoms: C_2  and  O_3
REMARK    3  A    between atoms: O_3  and  C_4
REMARK    4  A    between atoms: C_4  and  C_6
REMARK    5  A    between atoms: C_12  and  O_13
REMARK    6  A    between atoms: O_13  and  C_14
REMARK    7  A    between atoms: C_14  and  C_15
REMARK    8  A    between atoms: C_23  and  S_24
REMARK    9  A    between atoms: S_24  and  C_25
REMARK   10  A    between atoms: C_25  and  C_26
REMARK   11  A    between atoms: C_25  and  C_27
REMARK                            x       y       z     vdW  Elec       q    Type
REMARK                         _______ _______ _______ _____ _____    ______ ____
ROOT
ATOM      1  C   UNL     1       5.426   5.360  16.934  0.00  0.00    +0.000 A 
ATOM      2  C   UNL     1       5.294   6.500  16.151  0.00  0.00    +0.000 A 
ATOM      3  N   UNL     1       4.398   7.483  16.368  0.00  0.00    +0.000 NA
ATOM      4  C   UNL     1       3.615   7.382  17.442  0.00  0.00    +0.000 A 
ATOM      5  C   UNL     1       2.711   8.410  17.659  0.00  0.00    +0.000 A 
ATOM      6  C   UNL     1       1.881   8.426  18.778  0.00  0.00    +0.000 A 
ATOM      7  C   UNL     1       1.985   7.418  19.720  0.00  0.00    +0.000 A 
ATOM      8  C   UNL     1       2.875   6.361  19.500  0.00  0.00    +0.000 A 
ATOM      9  C   UNL     1       3.687   6.296  18.349  0.00  0.00    +0.000 A 
ATOM     10  C   UNL     1       4.599   5.232  18.060  0.00  0.00    +0.000 A 
ENDROOT
BRANCH   1  11
ATOM     11  C   UNL     1       6.513   4.423  16.575  0.00  0.00    +0.000 C 
ATOM     12  O   UNL     1       7.638   4.426  17.041  0.00  0.00    +0.000 OA
BRANCH  11  13
ATOM     13  O   UNL     1       6.088   3.651  15.539  0.00  0.00    +0.000 OA
BRANCH  13  15
ATOM     14  C   UNL     1       5.571   3.676  13.198  0.00  0.00    +0.000 C 
ATOM     15  C   UNL     1       6.604   4.026  14.257  0.00  0.00    +0.000 C 
ENDBRANCH  13  15
ENDBRANCH  11  13
ENDBRANCH   1  11
BRANCH   7  16
ATOM     16  O   UNL     1       1.188   7.545  20.820  0.00  0.00    +0.000 OA
BRANCH  16  17
ATOM     17  C   UNL     1       1.669   8.453  21.811  0.00  0.00    +0.000 C 
BRANCH  17  18
ATOM     18  C   UNL     1       0.662   9.559  21.980  0.00  0.00    +0.000 A 
ATOM     19  C   UNL     1      -0.269   9.507  23.025  0.00  0.00    +0.000 A 
ATOM     20  C   UNL     1      -1.202  10.533  23.178  0.00  0.00    +0.000 A 
ATOM     21  C   UNL     1      -1.211  11.608  22.291  0.00  0.00    +0.000 A 
ATOM     22  C   UNL     1      -0.286  11.661  21.249  0.00  0.00    +0.000 A 
ATOM     23  C   UNL     1       0.646  10.638  21.092  0.00  0.00    +0.000 A 
ENDBRANCH  17  18
ENDBRANCH  16  17
ENDBRANCH   7  16
BRANCH  10  24
ATOM     24  S   UNL     1       4.798   3.803  19.158  0.00  0.00    +0.000 S 
BRANCH  24  25
ATOM     25  C   UNL     1       3.445   2.643  18.686  0.00  0.00    +0.000 C 
ATOM     26  C   UNL     1       2.280   2.638  19.667  0.00  0.00    +0.000 C 
ATOM     27  C   UNL     1       2.949   3.074  17.301  0.00  0.00    +0.000 C 
ENDBRANCH  24  25
ENDBRANCH  10  24
TORSDOF 8
ENDMDL
MODEL 6
REMARK VINA RESULT:      -7.3      4.410      9.864
REMARK  Name = 
REMARK  11 active torsions:
REMARK  status: ('A' for Active; 'I' for Inactive)
REMARK    1  A    between atoms: C_1  and  C_2
REMARK    2  A    between atoms: C_2  and  O_3
REMARK    3  A    between atoms: O_3  and  C_4
REMARK    4  A    between atoms: C_4  and  C_6
REMARK    5  A    between atoms: C_12  and  O_13
REMARK    6  A    between atoms: O_13  and  C_14
REMARK    7  A    between atoms: C_14  and  C_15
REMARK    8  A    between atoms: C_23  and  S_24
REMARK    9  A    between atoms: S_24  and  C_25
REMARK   10  A    between atoms: C_25  and  C_26
REMARK   11  A    between atoms: C_25  and  C_27
REMARK                            x       y       z     vdW  Elec       q    Type
REMARK                         _______ _______ _______ _____ _____    ______ ____
ROOT
ATOM      1  C   UNL     1      -1.559  12.328  21.158  0.00  0.00    +0.000 A 
ATOM      2  C   UNL     1      -1.204  12.043  22.471  0.00  0.00    +0.000 A 
ATOM      3  N   UNL     1      -0.425  11.011  22.851  0.00  0.00    +0.000 NA
ATOM      4  C   UNL     1       0.084  10.235  21.895  0.00  0.00    +0.000 A 
ATOM      5  C   UNL     1       0.897   9.188  22.303  0.00  0.00    +0.000 A 
ATOM      6  C   UNL     1       1.519   8.348  21.382  0.00  0.00    +0.000 A 
ATOM      7  C   UNL     1       1.363   8.583  20.027  0.00  0.00    +0.000 A 
ATOM      8  C   UNL     1       0.526   9.620  19.602  0.00  0.00    +0.000 A 
ATOM      9  C   UNL     1      -0.158  10.450  20.516  0.00  0.00    +0.000 A 
ATOM     10  C   UNL     1      -1.040  11.511  20.142  0.00  0.00    +0.000 A 
ENDROOT
BRANCH   1  11
ATOM     11  C   UNL     1      -2.369  13.545  20.933  0.00  0.00    +0.000 C 
ATOM     12  O   UNL     1      -1.950  14.688  20.928  0.00  0.00    +0.000 OA
BRANCH  11  13
ATOM     13  O   UNL     1      -3.678  13.183  20.870  0.00  0.00    +0.000 OA
BRANCH  13  15
ATOM     14  C   UNL     1      -5.956  13.411  21.585  0.00  0.00    +0.000 C 
ATOM     15  C   UNL     1      -4.577  14.051  21.571  0.00  0.00    +0.000 C 
ENDBRANCH  13  15
ENDBRANCH  11  13
ENDBRANCH   1  11
BRANCH   7  16
ATOM     16  O   UNL     1       2.062   7.759  19.194  0.00  0.00    +0.000 OA
BRANCH  16  17
ATOM     17  C   UNL     1       2.768   6.703  19.846  0.00  0.00    +0.000 C 
BRANCH  17  18
ATOM     18  C   UNL     1       2.117   5.395  19.484  0.00  0.00    +0.000 A 
ATOM     19  C   UNL     1       1.449   4.648  20.463  0.00  0.00    +0.000 A 
ATOM     20  C   UNL     1       0.847   3.437  20.123  0.00  0.00    +0.000 A 
ATOM     21  C   UNL     1       0.912   2.966  18.812  0.00  0.00    +0.000 A 
ATOM     22  C   UNL     1       1.578   3.707  17.837  0.00  0.00    +0.000 A 
ATOM     23  C   UNL     1       2.181   4.917  18.172  0.00  0.00    +0.000 A 
ENDBRANCH  17  18
ENDBRANCH  16  17
ENDBRANCH   7  16
BRANCH  10  24
ATOM     24  S   UNL     1      -1.408  11.900  18.408  0.00  0.00    +0.000 S 
BRANCH  24  25
ATOM     25  C   UNL     1      -2.798  10.779  17.950  0.00  0.00    +0.000 C 
ATOM     26  C   UNL     1      -4.092  11.517  17.630  0.00  0.00    +0.000 C 
ATOM     27  C   UNL     1      -2.343   9.981  16.723  0.00  0.00    +0.000 C 
ENDBRANCH  24  25
ENDBRANCH  10  24
TORSDOF 8
ENDMDL
MODEL 7
REMARK VINA RESULT:      -7.3      2.727      4.241
REMARK  Name = 
REMARK  11 active torsions:
REMARK  status: ('A' for Active; 'I' for Inactive)
REMARK    1  A    between atoms: C_1  and  C_2
REMARK    2  A    between atoms: C_2  and  O_3
REMARK    3  A    between atoms: O_3  and  C_4
REMARK    4  A    between atoms: C_4  and  C_6
REMARK    5  A    between atoms: C_12  and  O_13
REMARK    6  A    between atoms: O_13  and  C_14
REMARK    7  A    between atoms: C_14  and  C_15
REMARK    8  A    between atoms: C_23  and  S_24
REMARK    9  A    between atoms: S_24  and  C_25
REMARK   10  A    between atoms: C_25  and  C_26
REMARK   11  A    between atoms: C_25  and  C_27
REMARK                            x       y       z     vdW  Elec       q    Type
REMARK                         _______ _______ _______ _____ _____    ______ ____
ROOT
ATOM      1  C   UNL     1       3.528   4.775  19.504  0.00  0.00    +0.000 A 
ATOM      2  C   UNL     1       2.758   4.704  20.658  0.00  0.00    +0.000 A 
ATOM      3  N   UNL     1       1.977   5.699  21.126  0.00  0.00    +0.000 NA
ATOM      4  C   UNL     1       1.897   6.815  20.402  0.00  0.00    +0.000 A 
ATOM      5  C   UNL     1       1.077   7.821  20.888  0.00  0.00    +0.000 A 
ATOM      6  C   UNL     1       0.885   9.007  20.184  0.00  0.00    +0.000 A 
ATOM      7  C   UNL     1       1.488   9.176  18.950  0.00  0.00    +0.000 A 
ATOM      8  C   UNL     1       2.338   8.180  18.460  0.00  0.00    +0.000 A 
ATOM      9  C   UNL     1       2.591   6.992  19.179  0.00  0.00    +0.000 A 
ATOM     10  C   UNL     1       3.464   5.949  18.739  0.00  0.00    +0.000 A 
ENDROOT
BRANCH   1  11
ATOM     11  C   UNL     1       4.268   3.554  19.118  0.00  0.00    +0.000 C 
ATOM     12  O   UNL     1       5.333   3.190  19.584  0.00  0.00    +0.000 OA
BRANCH  11  13
ATOM     13  O   UNL     1       3.630   2.982  18.061  0.00  0.00    +0.000 OA
BRANCH  13  15
ATOM     14  C   UNL     1       1.488   2.037  18.580  0.00  0.00    +0.000 C 
ATOM     15  C   UNL     1       2.964   1.749  18.357  0.00  0.00    +0.000 C 
ENDBRANCH  13  15
ENDBRANCH  11  13
ENDBRANCH   1  11
BRANCH   7  16
ATOM     16  O   UNL     1       1.192  10.336  18.295  0.00  0.00    +0.000 OA
BRANCH  16  17
ATOM     17  C   UNL     1       0.265  11.188  18.969  0.00  0.00    +0.000 C 
BRANCH  17  18
ATOM     18  C   UNL     1      -1.101  10.981  18.370  0.00  0.00    +0.000 A 
ATOM     19  C   UNL     1      -2.187  11.742  18.819  0.00  0.00    +0.000 A 
ATOM     20  C   UNL     1      -3.451  11.547  18.262  0.00  0.00    +0.000 A 
ATOM     21  C   UNL     1      -3.635  10.594  17.261  0.00  0.00    +0.000 A 
ATOM     22  C   UNL     1      -2.555   9.834  16.813  0.00  0.00    +0.000 A 
ATOM     23  C   UNL     1      -1.292  10.026  17.368  0.00  0.00    +0.000 A 
ENDBRANCH  17  18
ENDBRANCH  16  17
ENDBRANCH   7  16
BRANCH  10  24
ATOM     24  S   UNL     1       4.385   6.050  17.179  0.00  0.00    +0.000 S 
BRANCH  24  25
ATOM     25  C   UNL     1       6.162   6.009  17.669  0.00  0.00    +0.000 C 
ATOM     26  C   UNL     1       6.960   4.918  16.967  0.00  0.00    +0.000 C 
ATOM     27  C   UNL     1       6.753   7.381  17.327  0.00  0.00    +0.000 C 
ENDBRANCH  24  25
ENDBRANCH  10  24
TORSDOF 8
ENDMDL
MODEL 8
REMARK VINA RESULT:      -7.2      0.870      1.452
REMARK  Name = 
REMARK  11 active torsions:
REMARK  status: ('A' for Active; 'I' for Inactive)
REMARK    1  A    between atoms: C_1  and  C_2
REMARK    2  A    between atoms: C_2  and  O_3
REMARK    3  A    between atoms: O_3  and  C_4
REMARK    4  A    between atoms: C_4  and  C_6
REMARK    5  A    between atoms: C_12  and  O_13
REMARK    6  A    between atoms: O_13  and  C_14
REMARK    7  A    between atoms: C_14  and  C_15
REMARK    8  A    between atoms: C_23  and  S_24
REMARK    9  A    between atoms: S_24  and  C_25
REMARK   10  A    between atoms: C_25  and  C_26
REMARK   11  A    between atoms: C_25  and  C_27
REMARK                            x       y       z     vdW  Elec       q    Type
REMARK                         _______ _______ _______ _____ _____    ______ ____
ROOT
ATOM      1  C   UNL     1       4.929   4.052  16.992  0.00  0.00    +0.000 A 
ATOM      2  C   UNL     1       4.282   2.877  17.353  0.00  0.00    +0.000 A 
ATOM      3  N   UNL     1       3.330   2.782  18.303  0.00  0.00    +0.000 NA
ATOM      4  C   UNL     1       2.944   3.906  18.906  0.00  0.00    +0.000 A 
ATOM      5  C   UNL     1       1.952   3.794  19.869  0.00  0.00    +0.000 A 
ATOM      6  C   UNL     1       1.442   4.912  20.523  0.00  0.00    +0.000 A 
ATOM      7  C   UNL     1       1.899   6.172  20.180  0.00  0.00    +0.000 A 
ATOM      8  C   UNL     1       2.917   6.299  19.229  0.00  0.00    +0.000 A 
ATOM      9  C   UNL     1       3.487   5.176  18.592  0.00  0.00    +0.000 A 
ATOM     10  C   UNL     1       4.542   5.242  17.628  0.00  0.00    +0.000 A 
ENDROOT
BRANCH   1  11
ATOM     11  C   UNL     1       5.900   3.967  15.879  0.00  0.00    +0.000 C 
ATOM     12  O   UNL     1       7.110   3.902  15.994  0.00  0.00    +0.000 OA
BRANCH  11  13
ATOM     13  O   UNL     1       5.223   4.111  14.709  0.00  0.00    +0.000 OA
BRANCH  13  15
ATOM     14  C   UNL     1       5.579   3.328  12.470  0.00  0.00    +0.000 C 
ATOM     15  C   UNL     1       6.052   4.285  13.553  0.00  0.00    +0.000 C 
ENDBRANCH  13  15
ENDBRANCH  11  13
ENDBRANCH   1  11
BRANCH   7  16
ATOM     16  O   UNL     1       1.298   7.219  20.817  0.00  0.00    +0.000 OA
BRANCH  16  17
ATOM     17  C   UNL     1       1.880   8.497  20.556  0.00  0.00    +0.000 C 
BRANCH  17  18
ATOM     18  C   UNL     1       0.801   9.426  20.068  0.00  0.00    +0.000 A 
ATOM     19  C   UNL     1       0.525   9.524  18.699  0.00  0.00    +0.000 A 
ATOM     20  C   UNL     1      -0.476  10.387  18.251  0.00  0.00    +0.000 A 
ATOM     21  C   UNL     1      -1.200  11.153  19.165  0.00  0.00    +0.000 A 
ATOM     22  C   UNL     1      -0.925  11.057  20.528  0.00  0.00    +0.000 A 
ATOM     23  C   UNL     1       0.074  10.199  20.979  0.00  0.00    +0.000 A 
ENDBRANCH  17  18
ENDBRANCH  16  17
ENDBRANCH   7  16
BRANCH  10  24
ATOM     24  S   UNL     1       5.300   6.811  17.125  0.00  0.00    +0.000 S 
BRANCH  24  25
ATOM     25  C   UNL     1       7.078   6.652  17.582  0.00  0.00    +0.000 C 
ATOM     26  C   UNL     1       7.786   7.992  17.742  0.00  0.00    +0.000 C 
ATOM     27  C   UNL     1       7.134   5.880  18.905  0.00  0.00    +0.000 C 
ENDBRANCH  24  25
ENDBRANCH  10  24
TORSDOF 8
ENDMDL
MODEL 9
REMARK VINA RESULT:      -7.2      2.435      4.358
REMARK  Name = 
REMARK  11 active torsions:
REMARK  status: ('A' for Active; 'I' for Inactive)
REMARK    1  A    between atoms: C_1  and  C_2
REMARK    2  A    between atoms: C_2  and  O_3
REMARK    3  A    between atoms: O_3  and  C_4
REMARK    4  A    between atoms: C_4  and  C_6
REMARK    5  A    between atoms: C_12  and  O_13
REMARK    6  A    between atoms: O_13  and  C_14
REMARK    7  A    between atoms: C_14  and  C_15
REMARK    8  A    between atoms: C_23  and  S_24
REMARK    9  A    between atoms: S_24  and  C_25
REMARK   10  A    between atoms: C_25  and  C_26
REMARK   11  A    between atoms: C_25  and  C_27
REMARK                            x       y       z     vdW  Elec       q    Type
REMARK                         _______ _______ _______ _____ _____    ______ ____
ROOT
ATOM      1  C   UNL     1       4.328   5.639  17.876  0.00  0.00    +0.000 A 
ATOM      2  C   UNL     1       4.486   6.701  16.995  0.00  0.00    +0.000 A 
ATOM      3  N   UNL     1       3.774   7.845  17.033  0.00  0.00    +0.000 NA
ATOM      4  C   UNL     1       2.889   7.991  18.019  0.00  0.00    +0.000 A 
ATOM      5  C   UNL     1       2.177   9.181  18.053  0.00  0.00    +0.000 A 
ATOM      6  C   UNL     1       1.264   9.454  19.069  0.00  0.00    +0.000 A 
ATOM      7  C   UNL     1       1.089   8.541  20.094  0.00  0.00    +0.000 A 
ATOM      8  C   UNL     1       1.781   7.326  20.058  0.00  0.00    +0.000 A 
ATOM      9  C   UNL     1       2.670   7.004  19.012  0.00  0.00    +0.000 A 
ATOM     10  C   UNL     1       3.390   5.772  18.911  0.00  0.00    +0.000 A 
ENDROOT
BRANCH   1  11
ATOM     11  C   UNL     1       5.249   4.493  17.714  0.00  0.00    +0.000 C 
ATOM     12  O   UNL     1       5.092   3.555  16.954  0.00  0.00    +0.000 OA
BRANCH  11  13
ATOM     13  O   UNL     1       6.228   4.594  18.654  0.00  0.00    +0.000 OA
BRANCH  13  15
ATOM     14  C   UNL     1       7.888   6.320  18.782  0.00  0.00    +0.000 C 
ATOM     15  C   UNL     1       7.508   4.991  18.148  0.00  0.00    +0.000 C 
ENDBRANCH  13  15
ENDBRANCH  11  13
ENDBRANCH   1  11
BRANCH   7  16
ATOM     16  O   UNL     1       0.230   8.916  21.086  0.00  0.00    +0.000 OA
BRANCH  16  17
ATOM     17  C   UNL     1       0.593  10.113  21.776  0.00  0.00    +0.000 C 
BRANCH  17  18
ATOM     18  C   UNL     1      -0.610  11.017  21.836  0.00  0.00    +0.000 A 
ATOM     19  C   UNL     1      -1.117  11.589  20.663  0.00  0.00    +0.000 A 
ATOM     20  C   UNL     1      -2.231  12.427  20.722  0.00  0.00    +0.000 A 
ATOM     21  C   UNL     1      -2.839  12.697  21.948  0.00  0.00    +0.000 A 
ATOM     22  C   UNL     1      -2.334  12.128  23.117  0.00  0.00    +0.000 A 
ATOM     23  C   UNL     1      -1.222  11.293  23.062  0.00  0.00    +0.000 A 
ENDBRANCH  17  18
ENDBRANCH  16  17
ENDBRANCH   7  16
BRANCH  10  24
ATOM     24  S   UNL     1       3.214   4.445  20.135  0.00  0.00    +0.000 S 
BRANCH  24  25
ATOM     25  C   UNL     1       2.001   3.270  19.396  0.00  0.00    +0.000 C 
ATOM     26  C   UNL     1       2.617   1.935  18.995  0.00  0.00    +0.000 C 
ATOM     27  C   UNL     1       0.906   3.038  20.443  0.00  0.00    +0.000 C 
ENDBRANCH  24  25
ENDBRANCH  10  24
TORSDOF 8
ENDMDL
