MODEL 1
REMARK VINA RESULT:      -7.4      0.000      0.000
REMARK  Name = 
REMARK  7 active torsions:
REMARK  status: ('A' for Active; 'I' for Inactive)
REMARK    1  A    between atoms: C_1  and  C_2
REMARK    2  A    between atoms: C_5  and  S_6
REMARK    3  A    between atoms: S_6  and  C_9
REMARK    4  A    between atoms: C_13  and  S_14
REMARK    5  A    between atoms: S_14  and  C_17
REMARK    6  A    between atoms: C_17  and  C_18
REMARK    7  A    between atoms: C_21  and  S_22
REMARK                            x       y       z     vdW  Elec       q    Type
REMARK                         _______ _______ _______ _____ _____    ______ ____
ROOT
ATOM      1  C   UNL     1       2.614   3.605  19.128  0.00  0.00    +0.000 A 
ATOM      2  C   UNL     1       1.921   2.527  18.595  0.00  0.00    +0.000 A 
ATOM      3  N   UNL     1       2.730   1.879  17.705  0.00  0.00    +0.000 N 
ATOM      4  C   UNL     1       3.931   2.524  17.643  0.00  0.00    +0.000 A 
ATOM      5  C   UNL     1       3.913   3.591  18.531  0.00  0.00    +0.000 A 
ATOM      6  H   UNL     1       2.475   1.060  17.165  0.00  0.00    +0.000 HD
ENDROOT
BRANCH   1   7
ATOM      7  S   UNL     1       1.916   4.669  20.304  0.00  0.00    +0.000 S 
ATOM      8  O   UNL     1       2.828   4.628  21.428  0.00  0.00    +0.000 OA
ATOM      9  O   UNL     1       0.539   4.220  20.439  0.00  0.00    +0.000 OA
BRANCH   7  14
ATOM     10  C   UNL     1       1.901  10.306  18.057  0.00  0.00    +0.000 C 
ATOM     11  C   UNL     1       1.856   8.905  18.591  0.00  0.00    +0.000 A 
ATOM     12  C   UNL     1       1.645   8.679  19.954  0.00  0.00    +0.000 A 
ATOM     13  C   UNL     1       1.651   7.382  20.463  0.00  0.00    +0.000 A 
ATOM     14  C   UNL     1       1.907   6.302  19.620  0.00  0.00    +0.000 A 
ATOM     15  C   UNL     1       2.058   6.505  18.246  0.00  0.00    +0.000 A 
ATOM     16  C   UNL     1       2.038   7.808  17.735  0.00  0.00    +0.000 A 
ENDBRANCH   7  14
ENDBRANCH   1   7
BRANCH   5  17
ATOM     17  S   UNL     1       5.226   4.718  18.649  0.00  0.00    +0.000 S 
ATOM     18  O   UNL     1       4.978   5.425  19.901  0.00  0.00    +0.000 OA
ATOM     19  O   UNL     1       6.398   3.878  18.531  0.00  0.00    +0.000 OA
BRANCH  17  20
ATOM     20  C   UNL     1       5.228   5.905  17.347  0.00  0.00    +0.000 C 
BRANCH  20  21
ATOM     21  C   UNL     1       6.008   5.427  16.187  0.00  0.00    +0.000 A 
ATOM     22  N   UNL     1       7.224   5.830  15.878  0.00  0.00    +0.000 NA
ATOM     23  N   UNL     1       7.633   5.356  14.647  0.00  0.00    +0.000 NA
ATOM     24  C   UNL     1       6.714   4.614  14.071  0.00  0.00    +0.000 A 
ATOM     25  S   UNL     1       5.290   4.409  14.995  0.00  0.00    +0.000 S 
BRANCH  24  26
ATOM     26  S   UNL     1       6.944   3.927  12.488  0.00  0.00    +0.000 S 
ATOM     27  H   UNL     1       7.197   5.083  11.861  0.00  0.00    +0.000 HD
ENDBRANCH  24  26
ENDBRANCH  20  21
ENDBRANCH  17  20
ENDBRANCH   5  17
TORSDOF 6
ENDMDL
MODEL 2
REMARK VINA RESULT:      -6.7      3.282      6.283
REMARK  Name = 
REMARK  7 active torsions:
REMARK  status: ('A' for Active; 'I' for Inactive)
REMARK    1  A    between atoms: C_1  and  C_2
REMARK    2  A    between atoms: C_5  and  S_6
REMARK    3  A    between atoms: S_6  and  C_9
REMARK    4  A    between atoms: C_13  and  S_14
REMARK    5  A    between atoms: S_14  and  C_17
REMARK    6  A    between atoms: C_17  and  C_18
REMARK    7  A    between atoms: C_21  and  S_22
REMARK                            x       y       z     vdW  Elec       q    Type
REMARK                         _______ _______ _______ _____ _____    ______ ____
ROOT
ATOM      1  C   UNL     1       3.343   4.214  18.738  0.00  0.00    +0.000 A 
ATOM      2  C   UNL     1       2.595   3.045  18.781  0.00  0.00    +0.000 A 
ATOM      3  N   UNL     1       1.275   3.360  18.618  0.00  0.00    +0.000 N 
ATOM      4  C   UNL     1       1.153   4.712  18.481  0.00  0.00    +0.000 A 
ATOM      5  C   UNL     1       2.418   5.283  18.526  0.00  0.00    +0.000 A 
ATOM      6  H   UNL     1       0.507   2.698  18.615  0.00  0.00    +0.000 HD
ENDROOT
BRANCH   1   7
ATOM      7  S   UNL     1       5.068   4.219  18.903  0.00  0.00    +0.000 S 
ATOM      8  O   UNL     1       5.396   2.902  19.407  0.00  0.00    +0.000 OA
ATOM      9  O   UNL     1       5.362   5.414  19.679  0.00  0.00    +0.000 OA
BRANCH   7  14
ATOM     10  C   UNL     1       7.360   4.898  13.325  0.00  0.00    +0.000 C 
ATOM     11  C   UNL     1       6.821   4.684  14.708  0.00  0.00    +0.000 A 
ATOM     12  C   UNL     1       5.497   4.275  14.892  0.00  0.00    +0.000 A 
ATOM     13  C   UNL     1       4.977   4.123  16.175  0.00  0.00    +0.000 A 
ATOM     14  C   UNL     1       5.765   4.416  17.288  0.00  0.00    +0.000 A 
ATOM     15  C   UNL     1       7.108   4.765  17.124  0.00  0.00    +0.000 A 
ATOM     16  C   UNL     1       7.631   4.905  15.833  0.00  0.00    +0.000 A 
ENDBRANCH   7  14
ENDBRANCH   1   7
BRANCH   5  17
ATOM     17  S   UNL     1       2.659   7.000  18.500  0.00  0.00    +0.000 S 
ATOM     18  O   UNL     1       2.730   7.372  19.908  0.00  0.00    +0.000 OA
ATOM     19  O   UNL     1       3.830   7.160  17.666  0.00  0.00    +0.000 OA
BRANCH  17  20
ATOM     20  C   UNL     1       1.307   7.869  17.777  0.00  0.00    +0.000 C 
BRANCH  20  21
ATOM     21  C   UNL     1       1.362   9.310  18.099  0.00  0.00    +0.000 A 
ATOM     22  N   UNL     1       2.261  10.154  17.633  0.00  0.00    +0.000 NA
ATOM     23  N   UNL     1       2.180  11.390  18.244  0.00  0.00    +0.000 NA
ATOM     24  C   UNL     1       1.225  11.437  19.145  0.00  0.00    +0.000 A 
ATOM     25  S   UNL     1       0.330   9.989  19.302  0.00  0.00    +0.000 S 
BRANCH  24  26
ATOM     26  S   UNL     1       0.932  12.861  20.103  0.00  0.00    +0.000 S 
ATOM     27  H   UNL     1       1.334  12.340  21.269  0.00  0.00    +0.000 HD
ENDBRANCH  24  26
ENDBRANCH  20  21
ENDBRANCH  17  20
ENDBRANCH   5  17
TORSDOF 6
ENDMDL
MODEL 3
REMARK VINA RESULT:      -6.6      3.332      5.492
REMARK  Name = 
REMARK  7 active torsions:
REMARK  status: ('A' for Active; 'I' for Inactive)
REMARK    1  A    between atoms: C_1  and  C_2
REMARK    2  A    between atoms: C_5  and  S_6
REMARK    3  A    between atoms: S_6  and  C_9
REMARK    4  A    between atoms: C_13  and  S_14
REMARK    5  A    between atoms: S_14  and  C_17
REMARK    6  A    between atoms: C_17  and  C_18
REMARK    7  A    between atoms: C_21  and  S_22
REMARK                            x       y       z     vdW  Elec       q    Type
REMARK                         _______ _______ _______ _____ _____    ______ ____
ROOT
ATOM      1  C   UNL     1       2.828   2.858  19.886  0.00  0.00    +0.000 A 
ATOM      2  C   UNL     1       2.307   2.609  21.149  0.00  0.00    +0.000 A 
ATOM      3  N   UNL     1       1.083   3.207  21.247  0.00  0.00    +0.000 N 
ATOM      4  C   UNL     1       0.806   3.850  20.075  0.00  0.00    +0.000 A 
ATOM      5  C   UNL     1       1.854   3.639  19.189  0.00  0.00    +0.000 A 
ATOM      6  H   UNL     1       0.483   3.192  22.064  0.00  0.00    +0.000 HD
ENDROOT
BRANCH   1   7
ATOM      7  S   UNL     1       4.372   2.253  19.382  0.00  0.00    +0.000 S 
ATOM      8  O   UNL     1       4.076   1.349  18.289  0.00  0.00    +0.000 OA
ATOM      9  O   UNL     1       4.999   1.773  20.603  0.00  0.00    +0.000 OA
BRANCH   7  14
ATOM     10  C   UNL     1       7.627   6.968  17.382  0.00  0.00    +0.000 C 
ATOM     11  C   UNL     1       6.780   5.822  17.849  0.00  0.00    +0.000 A 
ATOM     12  C   UNL     1       6.310   5.785  19.165  0.00  0.00    +0.000 A 
ATOM     13  C   UNL     1       5.564   4.698  19.618  0.00  0.00    +0.000 A 
ATOM     14  C   UNL     1       5.315   3.620  18.769  0.00  0.00    +0.000 A 
ATOM     15  C   UNL     1       5.724   3.669  17.434  0.00  0.00    +0.000 A 
ATOM     16  C   UNL     1       6.462   4.768  16.979  0.00  0.00    +0.000 A 
ENDBRANCH   7  14
ENDBRANCH   1   7
BRANCH   5  17
ATOM     17  S   UNL     1       1.915   4.397  17.631  0.00  0.00    +0.000 S 
ATOM     18  O   UNL     1       2.434   3.358  16.749  0.00  0.00    +0.000 OA
ATOM     19  O   UNL     1       0.563   4.876  17.440  0.00  0.00    +0.000 OA
BRANCH  17  20
ATOM     20  C   UNL     1       3.028   5.761  17.577  0.00  0.00    +0.000 C 
BRANCH  20  21
ATOM     21  C   UNL     1       2.572   6.861  18.451  0.00  0.00    +0.000 A 
ATOM     22  N   UNL     1       2.413   6.772  19.756  0.00  0.00    +0.000 NA
ATOM     23  N   UNL     1       1.803   7.894  20.285  0.00  0.00    +0.000 NA
ATOM     24  C   UNL     1       1.526   8.788  19.363  0.00  0.00    +0.000 A 
ATOM     25  S   UNL     1       2.010   8.348  17.783  0.00  0.00    +0.000 S 
BRANCH  24  26
ATOM     26  S   UNL     1       0.710  10.279  19.742  0.00  0.00    +0.000 S 
ATOM     27  H   UNL     1      -0.228  10.180  18.792  0.00  0.00    +0.000 HD
ENDBRANCH  24  26
ENDBRANCH  20  21
ENDBRANCH  17  20
ENDBRANCH   5  17
TORSDOF 6
ENDMDL
MODEL 4
REMARK VINA RESULT:      -6.6      2.366      3.214
REMARK  Name = 
REMARK  7 active torsions:
REMARK  status: ('A' for Active; 'I' for Inactive)
REMARK    1  A    between atoms: C_1  and  C_2
REMARK    2  A    between atoms: C_5  and  S_6
REMARK    3  A    between atoms: S_6  and  C_9
REMARK    4  A    between atoms: C_13  and  S_14
REMARK    5  A    between atoms: S_14  and  C_17
REMARK    6  A    between atoms: C_17  and  C_18
REMARK    7  A    between atoms: C_21  and  S_22
REMARK                            x       y       z     vdW  Elec       q    Type
REMARK                         _______ _______ _______ _____ _____    ______ ____
ROOT
ATOM      1  C   UNL     1       2.103   4.732  19.559  0.00  0.00    +0.000 A 
ATOM      2  C   UNL     1       0.835   4.653  20.119  0.00  0.00    +0.000 A 
ATOM      3  N   UNL     1       0.547   3.343  20.375  0.00  0.00    +0.000 N 
ATOM      4  C   UNL     1       1.600   2.569  19.981  0.00  0.00    +0.000 A 
ATOM      5  C   UNL     1       2.603   3.393  19.489  0.00  0.00    +0.000 A 
ATOM      6  H   UNL     1      -0.317   2.997  20.778  0.00  0.00    +0.000 HD
ENDROOT
BRANCH   1   7
ATOM      7  S   UNL     1       2.826   6.238  19.102  0.00  0.00    +0.000 S 
ATOM      8  O   UNL     1       2.674   6.300  17.663  0.00  0.00    +0.000 OA
ATOM      9  O   UNL     1       4.144   6.219  19.716  0.00  0.00    +0.000 OA
BRANCH   7  14
ATOM     10  C   UNL     1      -0.443  10.728  21.548  0.00  0.00    +0.000 C 
ATOM     11  C   UNL     1       0.409   9.638  20.968  0.00  0.00    +0.000 A 
ATOM     12  C   UNL     1       0.769   9.671  19.618  0.00  0.00    +0.000 A 
ATOM     13  C   UNL     1       1.518   8.635  19.062  0.00  0.00    +0.000 A 
ATOM     14  C   UNL     1       1.882   7.539  19.844  0.00  0.00    +0.000 A 
ATOM     15  C   UNL     1       1.584   7.521  21.209  0.00  0.00    +0.000 A 
ATOM     16  C   UNL     1       0.842   8.569  21.767  0.00  0.00    +0.000 A 
ENDBRANCH   7  14
ENDBRANCH   1   7
BRANCH   5  17
ATOM     17  S   UNL     1       4.056   2.763  18.786  0.00  0.00    +0.000 S 
ATOM     18  O   UNL     1       5.089   3.061  19.772  0.00  0.00    +0.000 OA
ATOM     19  O   UNL     1       3.721   1.383  18.508  0.00  0.00    +0.000 OA
BRANCH  17  20
ATOM     20  C   UNL     1       4.494   3.570  17.282  0.00  0.00    +0.000 C 
BRANCH  20  21
ATOM     21  C   UNL     1       5.629   4.494  17.480  0.00  0.00    +0.000 A 
ATOM     22  N   UNL     1       6.582   4.339  18.377  0.00  0.00    +0.000 NA
ATOM     23  N   UNL     1       7.406   5.445  18.460  0.00  0.00    +0.000 NA
ATOM     24  C   UNL     1       7.048   6.393  17.623  0.00  0.00    +0.000 A 
ATOM     25  S   UNL     1       5.699   6.003  16.648  0.00  0.00    +0.000 S 
BRANCH  24  26
ATOM     26  S   UNL     1       7.883   7.919  17.549  0.00  0.00    +0.000 S 
ATOM     27  H   UNL     1       6.941   8.634  18.177  0.00  0.00    +0.000 HD
ENDBRANCH  24  26
ENDBRANCH  20  21
ENDBRANCH  17  20
ENDBRANCH   5  17
TORSDOF 6
ENDMDL
MODEL 5
REMARK VINA RESULT:      -6.6      3.154      5.772
REMARK  Name = 
REMARK  7 active torsions:
REMARK  status: ('A' for Active; 'I' for Inactive)
REMARK    1  A    between atoms: C_1  and  C_2
REMARK    2  A    between atoms: C_5  and  S_6
REMARK    3  A    between atoms: S_6  and  C_9
REMARK    4  A    between atoms: C_13  and  S_14
REMARK    5  A    between atoms: S_14  and  C_17
REMARK    6  A    between atoms: C_17  and  C_18
REMARK    7  A    between atoms: C_21  and  S_22
REMARK                            x       y       z     vdW  Elec       q    Type
REMARK                         _______ _______ _______ _____ _____    ______ ____
ROOT
ATOM      1  C   UNL     1       4.231   3.343  18.738  0.00  0.00    +0.000 A 
ATOM      2  C   UNL     1       4.799   2.220  19.325  0.00  0.00    +0.000 A 
ATOM      3  N   UNL     1       4.162   1.971  20.508  0.00  0.00    +0.000 N 
ATOM      4  C   UNL     1       3.199   2.918  20.703  0.00  0.00    +0.000 A 
ATOM      5  C   UNL     1       3.189   3.779  19.615  0.00  0.00    +0.000 A 
ATOM      6  H   UNL     1       4.379   1.214  21.147  0.00  0.00    +0.000 HD
ENDROOT
BRANCH   1   7
ATOM      7  S   UNL     1       4.772   3.969  17.216  0.00  0.00    +0.000 S 
ATOM      8  O   UNL     1       3.575   4.481  16.580  0.00  0.00    +0.000 OA
ATOM      9  O   UNL     1       5.533   2.884  16.617  0.00  0.00    +0.000 OA
BRANCH   7  14
ATOM     10  C   UNL     1       8.489   8.641  18.300  0.00  0.00    +0.000 C 
ATOM     11  C   UNL     1       7.610   7.463  18.004  0.00  0.00    +0.000 A 
ATOM     12  C   UNL     1       6.572   7.577  17.074  0.00  0.00    +0.000 A 
ATOM     13  C   UNL     1       5.721   6.501  16.831  0.00  0.00    +0.000 A 
ATOM     14  C   UNL     1       5.877   5.312  17.544  0.00  0.00    +0.000 A 
ATOM     15  C   UNL     1       6.947   5.161  18.430  0.00  0.00    +0.000 A 
ATOM     16  C   UNL     1       7.807   6.240  18.662  0.00  0.00    +0.000 A 
ENDBRANCH   7  14
ENDBRANCH   1   7
BRANCH   5  17
ATOM     17  S   UNL     1       2.174   5.183  19.555  0.00  0.00    +0.000 S 
ATOM     18  O   UNL     1       1.418   5.025  18.318  0.00  0.00    +0.000 OA
ATOM     19  O   UNL     1       1.474   5.143  20.821  0.00  0.00    +0.000 OA
BRANCH  17  20
ATOM     20  C   UNL     1       3.089   6.685  19.444  0.00  0.00    +0.000 C 
BRANCH  20  21
ATOM     21  C   UNL     1       2.227   7.809  19.026  0.00  0.00    +0.000 A 
ATOM     22  N   UNL     1       2.193   8.324  17.814  0.00  0.00    +0.000 NA
ATOM     23  N   UNL     1       1.434   9.477  17.758  0.00  0.00    +0.000 NA
ATOM     24  C   UNL     1       0.923   9.791  18.927  0.00  0.00    +0.000 A 
ATOM     25  S   UNL     1       1.300   8.692  20.181  0.00  0.00    +0.000 S 
BRANCH  24  26
ATOM     26  S   UNL     1      -0.037  11.226  19.157  0.00  0.00    +0.000 S 
ATOM     27  H   UNL     1      -1.207  10.678  18.805  0.00  0.00    +0.000 HD
ENDBRANCH  24  26
ENDBRANCH  20  21
ENDBRANCH  17  20
ENDBRANCH   5  17
TORSDOF 6
ENDMDL
MODEL 6
REMARK VINA RESULT:      -6.5      3.731      6.203
REMARK  Name = 
REMARK  7 active torsions:
REMARK  status: ('A' for Active; 'I' for Inactive)
REMARK    1  A    between atoms: C_1  and  C_2
REMARK    2  A    between atoms: C_5  and  S_6
REMARK    3  A    between atoms: S_6  and  C_9
REMARK    4  A    between atoms: C_13  and  S_14
REMARK    5  A    between atoms: S_14  and  C_17
REMARK    6  A    between atoms: C_17  and  C_18
REMARK    7  A    between atoms: C_21  and  S_22
REMARK                            x       y       z     vdW  Elec       q    Type
REMARK                         _______ _______ _______ _____ _____    ______ ____
ROOT
ATOM      1  C   UNL     1       2.911   3.406  19.398  0.00  0.00    +0.000 A 
ATOM      2  C   UNL     1       2.908   2.274  20.201  0.00  0.00    +0.000 A 
ATOM      3  N   UNL     1       2.328   2.584  21.399  0.00  0.00    +0.000 N 
ATOM      4  C   UNL     1       1.966   3.900  21.390  0.00  0.00    +0.000 A 
ATOM      5  C   UNL     1       2.288   4.446  20.155  0.00  0.00    +0.000 A 
ATOM      6  H   UNL     1       2.201   1.946  22.176  0.00  0.00    +0.000 HD
ENDROOT
BRANCH   1   7
ATOM      7  S   UNL     1       3.562   3.404  17.792  0.00  0.00    +0.000 S 
ATOM      8  O   UNL     1       2.445   3.754  16.939  0.00  0.00    +0.000 OA
ATOM      9  O   UNL     1       4.230   2.118  17.664  0.00  0.00    +0.000 OA
BRANCH   7  14
ATOM     10  C   UNL     1       7.689   7.838  17.427  0.00  0.00    +0.000 C 
ATOM     11  C   UNL     1       6.705   6.708  17.495  0.00  0.00    +0.000 A 
ATOM     12  C   UNL     1       5.632   6.656  16.601  0.00  0.00    +0.000 A 
ATOM     13  C   UNL     1       4.687   5.636  16.692  0.00  0.00    +0.000 A 
ATOM     14  C   UNL     1       4.786   4.680  17.703  0.00  0.00    +0.000 A 
ATOM     15  C   UNL     1       5.885   4.682  18.565  0.00  0.00    +0.000 A 
ATOM     16  C   UNL     1       6.840   5.701  18.463  0.00  0.00    +0.000 A 
ENDBRANCH   7  14
ENDBRANCH   1   7
BRANCH   5  17
ATOM     17  S   UNL     1       2.081   6.132  19.807  0.00  0.00    +0.000 S 
ATOM     18  O   UNL     1       3.387   6.717  20.086  0.00  0.00    +0.000 OA
ATOM     19  O   UNL     1       1.580   6.134  18.450  0.00  0.00    +0.000 OA
BRANCH  17  20
ATOM     20  C   UNL     1       0.903   6.908  20.862  0.00  0.00    +0.000 C 
BRANCH  20  21
ATOM     21  C   UNL     1       1.135   8.365  20.946  0.00  0.00    +0.000 A 
ATOM     22  N   UNL     1       1.377   9.028  22.058  0.00  0.00    +0.000 NA
ATOM     23  N   UNL     1       1.371  10.396  21.862  0.00  0.00    +0.000 NA
ATOM     24  C   UNL     1       1.126  10.715  20.612  0.00  0.00    +0.000 A 
ATOM     25  S   UNL     1       0.913   9.378  19.569  0.00  0.00    +0.000 S 
BRANCH  24  26
ATOM     26  S   UNL     1       1.011  12.374  20.092  0.00  0.00    +0.000 S 
ATOM     27  H   UNL     1       1.114  12.918  21.310  0.00  0.00    +0.000 HD
ENDBRANCH  24  26
ENDBRANCH  20  21
ENDBRANCH  17  20
ENDBRANCH   5  17
TORSDOF 6
ENDMDL
MODEL 7
REMARK VINA RESULT:      -6.5      7.795     10.948
REMARK  Name = 
REMARK  7 active torsions:
REMARK  status: ('A' for Active; 'I' for Inactive)
REMARK    1  A    between atoms: C_1  and  C_2
REMARK    2  A    between atoms: C_5  and  S_6
REMARK    3  A    between atoms: S_6  and  C_9
REMARK    4  A    between atoms: C_13  and  S_14
REMARK    5  A    between atoms: S_14  and  C_17
REMARK    6  A    between atoms: C_17  and  C_18
REMARK    7  A    between atoms: C_21  and  S_22
REMARK                            x       y       z     vdW  Elec       q    Type
REMARK                         _______ _______ _______ _____ _____    ______ ____
ROOT
ATOM      1  C   UNL     1      -0.800  11.004  19.109  0.00  0.00    +0.000 A 
ATOM      2  C   UNL     1      -1.201  10.219  18.037  0.00  0.00    +0.000 A 
ATOM      3  N   UNL     1      -2.493  10.528  17.722  0.00  0.00    +0.000 N 
ATOM      4  C   UNL     1      -2.942  11.492  18.578  0.00  0.00    +0.000 A 
ATOM      5  C   UNL     1      -1.913  11.837  19.445  0.00  0.00    +0.000 A 
ATOM      6  H   UNL     1      -3.039  10.100  16.982  0.00  0.00    +0.000 HD
ENDROOT
BRANCH   1   7
ATOM      7  S   UNL     1       0.788  10.902  19.794  0.00  0.00    +0.000 S 
ATOM      8  O   UNL     1       0.570  10.811  21.223  0.00  0.00    +0.000 OA
ATOM      9  O   UNL     1       1.514  12.023  19.217  0.00  0.00    +0.000 OA
BRANCH   7  14
ATOM     10  C   UNL     1       3.283   5.702  17.906  0.00  0.00    +0.000 C 
ATOM     11  C   UNL     1       2.715   7.008  18.377  0.00  0.00    +0.000 A 
ATOM     12  C   UNL     1       2.205   7.127  19.673  0.00  0.00    +0.000 A 
ATOM     13  C   UNL     1       1.633   8.323  20.100  0.00  0.00    +0.000 A 
ATOM     14  C   UNL     1       1.530   9.401  19.220  0.00  0.00    +0.000 A 
ATOM     15  C   UNL     1       2.090   9.320  17.943  0.00  0.00    +0.000 A 
ATOM     16  C   UNL     1       2.676   8.120  17.522  0.00  0.00    +0.000 A 
ENDBRANCH   7  14
ENDBRANCH   1   7
BRANCH   5  17
ATOM     17  S   UNL     1      -2.141  12.951  20.753  0.00  0.00    +0.000 S 
ATOM     18  O   UNL     1      -2.337  12.097  21.919  0.00  0.00    +0.000 OA
ATOM     19  O   UNL     1      -0.967  13.793  20.682  0.00  0.00    +0.000 OA
BRANCH  17  20
ATOM     20  C   UNL     1      -3.583  13.945  20.561  0.00  0.00    +0.000 C 
BRANCH  20  21
ATOM     21  C   UNL     1      -4.663  13.505  21.467  0.00  0.00    +0.000 A 
ATOM     22  N   UNL     1      -5.434  12.456  21.268  0.00  0.00    +0.000 NA
ATOM     23  N   UNL     1      -6.472  12.391  22.178  0.00  0.00    +0.000 NA
ATOM     24  C   UNL     1      -6.446  13.391  23.030  0.00  0.00    +0.000 A 
ATOM     25  S   UNL     1      -5.141  14.473  22.812  0.00  0.00    +0.000 S 
BRANCH  24  26
ATOM     26  S   UNL     1      -7.667  13.586  24.258  0.00  0.00    +0.000 S 
ATOM     27  H   UNL     1      -8.714  13.603  23.423  0.00  0.00    +0.000 HD
ENDBRANCH  24  26
ENDBRANCH  20  21
ENDBRANCH  17  20
ENDBRANCH   5  17
TORSDOF 6
ENDMDL
MODEL 8
REMARK VINA RESULT:      -6.5      3.397      5.931
REMARK  Name = 
REMARK  7 active torsions:
REMARK  status: ('A' for Active; 'I' for Inactive)
REMARK    1  A    between atoms: C_1  and  C_2
REMARK    2  A    between atoms: C_5  and  S_6
REMARK    3  A    between atoms: S_6  and  C_9
REMARK    4  A    between atoms: C_13  and  S_14
REMARK    5  A    between atoms: S_14  and  C_17
REMARK    6  A    between atoms: C_17  and  C_18
REMARK    7  A    between atoms: C_21  and  S_22
REMARK                            x       y       z     vdW  Elec       q    Type
REMARK                         _______ _______ _______ _____ _____    ______ ____
ROOT
ATOM      1  C   UNL     1       2.655   3.135  19.695  0.00  0.00    +0.000 A 
ATOM      2  C   UNL     1       2.455   2.205  20.706  0.00  0.00    +0.000 A 
ATOM      3  N   UNL     1       2.022   2.858  21.826  0.00  0.00    +0.000 N 
ATOM      4  C   UNL     1       1.950   4.195  21.563  0.00  0.00    +0.000 A 
ATOM      5  C   UNL     1       2.312   4.412  20.240  0.00  0.00    +0.000 A 
ATOM      6  H   UNL     1       1.806   2.422  22.716  0.00  0.00    +0.000 HD
ENDROOT
BRANCH   1   7
ATOM      7  S   UNL     1       3.200   2.685  18.113  0.00  0.00    +0.000 S 
ATOM      8  O   UNL     1       2.053   2.893  17.253  0.00  0.00    +0.000 OA
ATOM      9  O   UNL     1       3.779   1.361  18.283  0.00  0.00    +0.000 OA
BRANCH   7  14
ATOM     10  C   UNL     1       7.554   6.569  16.445  0.00  0.00    +0.000 C 
ATOM     11  C   UNL     1       6.510   5.568  16.842  0.00  0.00    +0.000 A 
ATOM     12  C   UNL     1       5.371   5.388  16.051  0.00  0.00    +0.000 A 
ATOM     13  C   UNL     1       4.375   4.495  16.441  0.00  0.00    +0.000 A 
ATOM     14  C   UNL     1       4.490   3.803  17.646  0.00  0.00    +0.000 A 
ATOM     15  C   UNL     1       5.649   3.925  18.417  0.00  0.00    +0.000 A 
ATOM     16  C   UNL     1       6.654   4.813  18.016  0.00  0.00    +0.000 A 
ENDBRANCH   7  14
ENDBRANCH   1   7
BRANCH   5  17
ATOM     17  S   UNL     1       2.451   6.004  19.568  0.00  0.00    +0.000 S 
ATOM     18  O   UNL     1       3.884   6.274  19.586  0.00  0.00    +0.000 OA
ATOM     19  O   UNL     1       1.767   5.892  18.298  0.00  0.00    +0.000 OA
BRANCH  17  20
ATOM     20  C   UNL     1       1.656   7.232  20.550  0.00  0.00    +0.000 C 
BRANCH  20  21
ATOM     21  C   UNL     1       1.410   8.464  19.773  0.00  0.00    +0.000 A 
ATOM     22  N   UNL     1       2.027   8.787  18.655  0.00  0.00    +0.000 NA
ATOM     23  N   UNL     1       1.731  10.074  18.249  0.00  0.00    +0.000 NA
ATOM     24  C   UNL     1       0.901  10.674  19.072  0.00  0.00    +0.000 A 
ATOM     25  S   UNL     1       0.392   9.712  20.390  0.00  0.00    +0.000 S 
BRANCH  24  26
ATOM     26  S   UNL     1       0.396  12.323  18.828  0.00  0.00    +0.000 S 
ATOM     27  H   UNL     1      -0.254  12.110  17.677  0.00  0.00    +0.000 HD
ENDBRANCH  24  26
ENDBRANCH  20  21
ENDBRANCH  17  20
ENDBRANCH   5  17
TORSDOF 6
ENDMDL
MODEL 9
REMARK VINA RESULT:      -6.5      2.884      6.203
REMARK  Name = 
REMARK  7 active torsions:
REMARK  status: ('A' for Active; 'I' for Inactive)
REMARK    1  A    between atoms: C_1  and  C_2
REMARK    2  A    between atoms: C_5  and  S_6
REMARK    3  A    between atoms: S_6  and  C_9
REMARK    4  A    between atoms: C_13  and  S_14
REMARK    5  A    between atoms: S_14  and  C_17
REMARK    6  A    between atoms: C_17  and  C_18
REMARK    7  A    between atoms: C_21  and  S_22
REMARK                            x       y       z     vdW  Elec       q    Type
REMARK                         _______ _______ _______ _____ _____    ______ ____
ROOT
ATOM      1  C   UNL     1       4.612   3.899  19.294  0.00  0.00    +0.000 A 
ATOM      2  C   UNL     1       5.042   2.660  19.749  0.00  0.00    +0.000 A 
ATOM      3  N   UNL     1       3.968   1.971  20.237  0.00  0.00    +0.000 N 
ATOM      4  C   UNL     1       2.850   2.747  20.118  0.00  0.00    +0.000 A 
ATOM      5  C   UNL     1       3.200   3.947  19.514  0.00  0.00    +0.000 A 
ATOM      6  H   UNL     1       3.996   1.041  20.638  0.00  0.00    +0.000 HD
ENDROOT
BRANCH   1   7
ATOM      7  S   UNL     1       5.693   5.059  18.596  0.00  0.00    +0.000 S 
ATOM      8  O   UNL     1       6.958   4.838  19.267  0.00  0.00    +0.000 OA
ATOM      9  O   UNL     1       4.996   6.331  18.710  0.00  0.00    +0.000 OA
BRANCH   7  14
ATOM     10  C   UNL     1       6.402   3.740  12.715  0.00  0.00    +0.000 C 
ATOM     11  C   UNL     1       6.192   4.105  14.155  0.00  0.00    +0.000 A 
ATOM     12  C   UNL     1       7.187   4.791  14.858  0.00  0.00    +0.000 A 
ATOM     13  C   UNL     1       7.018   5.090  16.209  0.00  0.00    +0.000 A 
ATOM     14  C   UNL     1       5.869   4.670  16.878  0.00  0.00    +0.000 A 
ATOM     15  C   UNL     1       4.839   4.038  16.176  0.00  0.00    +0.000 A 
ATOM     16  C   UNL     1       5.006   3.752  14.817  0.00  0.00    +0.000 A 
ENDBRANCH   7  14
ENDBRANCH   1   7
BRANCH   5  17
ATOM     17  S   UNL     1       2.064   5.238  19.298  0.00  0.00    +0.000 S 
ATOM     18  O   UNL     1       2.043   5.459  17.857  0.00  0.00    +0.000 OA
ATOM     19  O   UNL     1       0.872   4.748  19.956  0.00  0.00    +0.000 OA
BRANCH  17  20
ATOM     20  C   UNL     1       2.579   6.737  20.068  0.00  0.00    +0.000 C 
BRANCH  20  21
ATOM     21  C   UNL     1       1.948   7.912  19.432  0.00  0.00    +0.000 A 
ATOM     22  N   UNL     1       2.202   8.337  18.212  0.00  0.00    +0.000 NA
ATOM     23  N   UNL     1       1.608   9.557  17.950  0.00  0.00    +0.000 NA
ATOM     24  C   UNL     1       0.926  10.006  18.979  0.00  0.00    +0.000 A 
ATOM     25  S   UNL     1       0.929   8.969  20.337  0.00  0.00    +0.000 S 
BRANCH  24  26
ATOM     26  S   UNL     1       0.114  11.547  18.943  0.00  0.00    +0.000 S 
ATOM     27  H   UNL     1      -1.121  11.067  19.134  0.00  0.00    +0.000 HD
ENDBRANCH  24  26
ENDBRANCH  20  21
ENDBRANCH  17  20
ENDBRANCH   5  17
TORSDOF 6
ENDMDL
