MODEL 1
REMARK VINA RESULT:      -8.4      0.000      0.000
REMARK  Name = 
REMARK  11 active torsions:
REMARK  status: ('A' for Active; 'I' for Inactive)
REMARK    1  A    between atoms: C_1  and  C_2
REMARK    2  A    between atoms: N_4  and  C_5
REMARK    3  A    between atoms: C_5  and  C_6
REMARK    4  A    between atoms: C_10  and  C_11
REMARK    5  A    between atoms: C_11  and  C_12
REMARK    6  A    between atoms: C_18  and  C_19
REMARK    7  A    between atoms: C_19  and  C_20
REMARK    8  A    between atoms: C_20  and  C_21
REMARK    9  A    between atoms: C_21  and  C_22
REMARK   10  A    between atoms: C_22  and  C_23
REMARK   11  A    between atoms: C_28  and  C_29
REMARK                            x       y       z     vdW  Elec       q    Type
REMARK                         _______ _______ _______ _____ _____    ______ ____
ROOT
ATOM      1  C   UNL     1       8.745   9.906  18.567  0.00  0.00    +0.000 C 
ATOM      2  O   UNL     1       8.100  10.444  17.670  0.00  0.00    +0.000 OA
ATOM      3  N   UNL     1       8.711   8.569  18.899  0.00  0.00    +0.000 N 
ATOM      4  C   UNL     1       7.983   7.683  18.150  0.00  0.00    +0.000 A 
ATOM      5  N   UNL     1       7.414   7.846  16.981  0.00  0.00    +0.000 NA
ATOM      6  N   UNL     1       6.746   6.713  16.566  0.00  0.00    +0.000 NA
ATOM      7  C   UNL     1       6.835   5.737  17.445  0.00  0.00    +0.000 A 
ATOM      8  S   UNL     1       7.789   6.127  18.827  0.00  0.00    +0.000 S 
ATOM      9  H   UNL     1       9.118   8.236  19.761  0.00  0.00    +0.000 HD
ENDROOT
BRANCH   1  10
ATOM     10  C   UNL     1       9.671  10.730  19.444  0.00  0.00    +0.000 C 
BRANCH  10  15
ATOM     11  C   UNL     1      10.291  14.342  18.280  0.00  0.00    +0.000 A 
ATOM     12  C   UNL     1      11.368  14.145  17.410  0.00  0.00    +0.000 A 
ATOM     13  C   UNL     1      11.881  12.866  17.200  0.00  0.00    +0.000 A 
ATOM     14  C   UNL     1      11.333  11.774  17.876  0.00  0.00    +0.000 A 
ATOM     15  C   UNL     1      10.277  11.948  18.783  0.00  0.00    +0.000 A 
ATOM     16  C   UNL     1       9.754  13.237  18.965  0.00  0.00    +0.000 A 
BRANCH  11  17
ATOM     17  C   UNL     1       9.726  15.719  18.499  0.00  0.00    +0.000 C 
BRANCH  17  21
ATOM     18  C   UNL     1       7.621  16.286  21.573  0.00  0.00    +0.000 C 
ATOM     19  C   UNL     1       7.932  16.140  20.110  0.00  0.00    +0.000 C 
ATOM     20  O   UNL     1       7.074  16.243  19.238  0.00  0.00    +0.000 OA
ATOM     21  N   UNL     1       9.252  15.875  19.855  0.00  0.00    +0.000 N 
ATOM     22  H   UNL     1       9.931  15.927  20.603  0.00  0.00    +0.000 HD
ENDBRANCH  17  21
ENDBRANCH  11  17
ENDBRANCH  10  15
ENDBRANCH   1  10
BRANCH   7  23
ATOM     23  C   UNL     1       6.201   4.393  17.275  0.00  0.00    +0.000 C 
BRANCH  23  24
ATOM     24  C   UNL     1       5.057   4.157  18.270  0.00  0.00    +0.000 C 
BRANCH  24  25
ATOM     25  C   UNL     1       3.679   4.310  17.618  0.00  0.00    +0.000 C 
BRANCH  25  26
ATOM     26  C   UNL     1       2.549   4.342  18.646  0.00  0.00    +0.000 C 
BRANCH  26  27
ATOM     27  C   UNL     1       2.281   5.758  19.080  0.00  0.00    +0.000 A 
ATOM     28  C   UNL     1       2.406   6.821  18.200  0.00  0.00    +0.000 A 
ATOM     29  C   UNL     1       2.092   8.103  18.646  0.00  0.00    +0.000 A 
ATOM     30  C   UNL     1       1.647   8.285  19.948  0.00  0.00    +0.000 A 
ATOM     31  N   UNL     1       1.331   9.587  20.340  0.00  0.00    +0.000 N 
ATOM     32  C   UNL     1       0.858  10.084  21.512  0.00  0.00    +0.000 C 
ATOM     33  C   UNL     1       0.605   9.232  22.725  0.00  0.00    +0.000 C 
ATOM     34  O   UNL     1       0.607  11.294  21.551  0.00  0.00    +0.000 OA
ATOM     35  N   UNL     1       1.522   7.229  20.768  0.00  0.00    +0.000 NA
ATOM     36  N   UNL     1       1.841   5.958  20.338  0.00  0.00    +0.000 NA
ATOM     37  H   UNL     1       1.439  10.314  19.647  0.00  0.00    +0.000 HD
ENDBRANCH  26  27
ENDBRANCH  25  26
ENDBRANCH  24  25
ENDBRANCH  23  24
ENDBRANCH   7  23
TORSDOF 9
ENDMDL
MODEL 2
REMARK VINA RESULT:      -8.1      3.364      8.949
REMARK  Name = 
REMARK  11 active torsions:
REMARK  status: ('A' for Active; 'I' for Inactive)
REMARK    1  A    between atoms: C_1  and  C_2
REMARK    2  A    between atoms: N_4  and  C_5
REMARK    3  A    between atoms: C_5  and  C_6
REMARK    4  A    between atoms: C_10  and  C_11
REMARK    5  A    between atoms: C_11  and  C_12
REMARK    6  A    between atoms: C_18  and  C_19
REMARK    7  A    between atoms: C_19  and  C_20
REMARK    8  A    between atoms: C_20  and  C_21
REMARK    9  A    between atoms: C_21  and  C_22
REMARK   10  A    between atoms: C_22  and  C_23
REMARK   11  A    between atoms: C_28  and  C_29
REMARK                            x       y       z     vdW  Elec       q    Type
REMARK                         _______ _______ _______ _____ _____    ______ ____
ROOT
ATOM      1  C   UNL     1       1.382   9.512  19.061  0.00  0.00    +0.000 C 
ATOM      2  O   UNL     1       1.802  10.028  18.028  0.00  0.00    +0.000 OA
ATOM      3  N   UNL     1       1.643   8.228  19.489  0.00  0.00    +0.000 N 
ATOM      4  C   UNL     1       2.514   7.426  18.800  0.00  0.00    +0.000 A 
ATOM      5  N   UNL     1       3.350   7.733  17.838  0.00  0.00    +0.000 NA
ATOM      6  N   UNL     1       4.044   6.632  17.383  0.00  0.00    +0.000 NA
ATOM      7  C   UNL     1       3.700   5.533  18.020  0.00  0.00    +0.000 A 
ATOM      8  S   UNL     1       2.530   5.783  19.261  0.00  0.00    +0.000 S 
ATOM      9  H   UNL     1       1.115   7.812  20.242  0.00  0.00    +0.000 HD
ENDROOT
BRANCH   1  10
ATOM     10  C   UNL     1       0.467  10.291  19.988  0.00  0.00    +0.000 C 
BRANCH  10  15
ATOM     11  C   UNL     1      -2.931  12.016  19.478  0.00  0.00    +0.000 A 
ATOM     12  C   UNL     1      -3.258  11.556  18.198  0.00  0.00    +0.000 A 
ATOM     13  C   UNL     1      -2.396  10.699  17.515  0.00  0.00    +0.000 A 
ATOM     14  C   UNL     1      -1.189  10.311  18.099  0.00  0.00    +0.000 A 
ATOM     15  C   UNL     1      -0.818  10.788  19.365  0.00  0.00    +0.000 A 
ATOM     16  C   UNL     1      -1.707  11.629  20.052  0.00  0.00    +0.000 A 
BRANCH  11  17
ATOM     17  C   UNL     1      -3.864  12.932  20.223  0.00  0.00    +0.000 C 
BRANCH  17  21
ATOM     18  C   UNL     1      -2.768  13.862  23.708  0.00  0.00    +0.000 C 
ATOM     19  C   UNL     1      -3.538  13.135  22.641  0.00  0.00    +0.000 C 
ATOM     20  O   UNL     1      -4.376  12.275  22.899  0.00  0.00    +0.000 OA
ATOM     21  N   UNL     1      -3.208  13.520  21.368  0.00  0.00    +0.000 N 
ATOM     22  H   UNL     1      -2.605  14.319  21.223  0.00  0.00    +0.000 HD
ENDBRANCH  17  21
ENDBRANCH  11  17
ENDBRANCH  10  15
ENDBRANCH   1  10
BRANCH   7  23
ATOM     23  C   UNL     1       4.275   4.181  17.735  0.00  0.00    +0.000 C 
BRANCH  23  24
ATOM     24  C   UNL     1       4.274   3.851  16.237  0.00  0.00    +0.000 C 
BRANCH  24  25
ATOM     25  C   UNL     1       5.367   4.605  15.475  0.00  0.00    +0.000 C 
BRANCH  25  26
ATOM     26  C   UNL     1       6.767   4.289  16.001  0.00  0.00    +0.000 C 
BRANCH  26  27
ATOM     27  C   UNL     1       7.242   5.390  16.911  0.00  0.00    +0.000 A 
ATOM     28  C   UNL     1       7.670   5.128  18.202  0.00  0.00    +0.000 A 
ATOM     29  C   UNL     1       8.148   6.183  18.978  0.00  0.00    +0.000 A 
ATOM     30  C   UNL     1       8.202   7.460  18.438  0.00  0.00    +0.000 A 
ATOM     31  N   UNL     1       8.704   8.478  19.252  0.00  0.00    +0.000 N 
ATOM     32  C   UNL     1       8.904   9.800  19.018  0.00  0.00    +0.000 C 
ATOM     33  C   UNL     1       8.545  10.471  17.720  0.00  0.00    +0.000 C 
ATOM     34  O   UNL     1       9.432  10.459  19.922  0.00  0.00    +0.000 OA
ATOM     35  N   UNL     1       7.795   7.673  17.177  0.00  0.00    +0.000 NA
ATOM     36  N   UNL     1       7.309   6.639  16.406  0.00  0.00    +0.000 NA
ATOM     37  H   UNL     1       9.004   8.217  20.181  0.00  0.00    +0.000 HD
ENDBRANCH  26  27
ENDBRANCH  25  26
ENDBRANCH  24  25
ENDBRANCH  23  24
ENDBRANCH   7  23
TORSDOF 9
ENDMDL
MODEL 3
REMARK VINA RESULT:      -8.0      3.462      9.572
REMARK  Name = 
REMARK  11 active torsions:
REMARK  status: ('A' for Active; 'I' for Inactive)
REMARK    1  A    between atoms: C_1  and  C_2
REMARK    2  A    between atoms: N_4  and  C_5
REMARK    3  A    between atoms: C_5  and  C_6
REMARK    4  A    between atoms: C_10  and  C_11
REMARK    5  A    between atoms: C_11  and  C_12
REMARK    6  A    between atoms: C_18  and  C_19
REMARK    7  A    between atoms: C_19  and  C_20
REMARK    8  A    between atoms: C_20  and  C_21
REMARK    9  A    between atoms: C_21  and  C_22
REMARK   10  A    between atoms: C_22  and  C_23
REMARK   11  A    between atoms: C_28  and  C_29
REMARK                            x       y       z     vdW  Elec       q    Type
REMARK                         _______ _______ _______ _____ _____    ______ ____
ROOT
ATOM      1  C   UNL     1       8.092   7.863  18.126  0.00  0.00    +0.000 C 
ATOM      2  O   UNL     1       7.784   8.245  17.000  0.00  0.00    +0.000 OA
ATOM      3  N   UNL     1       8.710   8.621  19.098  0.00  0.00    +0.000 N 
ATOM      4  C   UNL     1       8.953   9.953  18.893  0.00  0.00    +0.000 A 
ATOM      5  N   UNL     1       8.514  10.748  17.949  0.00  0.00    +0.000 NA
ATOM      6  N   UNL     1       9.008  12.029  18.076  0.00  0.00    +0.000 NA
ATOM      7  C   UNL     1       9.808  12.148  19.114  0.00  0.00    +0.000 A 
ATOM      8  S   UNL     1       9.973  10.703  20.039  0.00  0.00    +0.000 S 
ATOM      9  H   UNL     1       9.101   8.191  19.923  0.00  0.00    +0.000 HD
ENDROOT
BRANCH   1  10
ATOM     10  C   UNL     1       7.817   6.432  18.551  0.00  0.00    +0.000 C 
BRANCH  10  15
ATOM     11  C   UNL     1       6.277   4.610  15.535  0.00  0.00    +0.000 A 
ATOM     12  C   UNL     1       4.987   4.366  16.019  0.00  0.00    +0.000 A 
ATOM     13  C   UNL     1       4.622   4.789  17.296  0.00  0.00    +0.000 A 
ATOM     14  C   UNL     1       5.550   5.441  18.109  0.00  0.00    +0.000 A 
ATOM     15  C   UNL     1       6.862   5.664  17.663  0.00  0.00    +0.000 A 
ATOM     16  C   UNL     1       7.208   5.257  16.367  0.00  0.00    +0.000 A 
BRANCH  11  17
ATOM     17  C   UNL     1       6.671   4.166  14.152  0.00  0.00    +0.000 C 
BRANCH  17  21
ATOM     18  C   UNL     1       4.264   3.188  11.422  0.00  0.00    +0.000 C 
ATOM     19  C   UNL     1       5.555   3.219  12.190  0.00  0.00    +0.000 C 
ATOM     20  O   UNL     1       6.547   2.584  11.843  0.00  0.00    +0.000 OA
ATOM     21  N   UNL     1       5.510   4.012  13.306  0.00  0.00    +0.000 N 
ATOM     22  H   UNL     1       4.708   4.607  13.471  0.00  0.00    +0.000 HD
ENDBRANCH  17  21
ENDBRANCH  11  17
ENDBRANCH  10  15
ENDBRANCH   1  10
BRANCH   7  23
ATOM     23  C   UNL     1      10.503  13.417  19.498  0.00  0.00    +0.000 C 
BRANCH  23  24
ATOM     24  C   UNL     1      10.695  14.361  18.304  0.00  0.00    +0.000 C 
BRANCH  24  25
ATOM     25  C   UNL     1      10.062  15.735  18.543  0.00  0.00    +0.000 C 
BRANCH  25  26
ATOM     26  C   UNL     1       8.857  15.986  17.636  0.00  0.00    +0.000 C 
BRANCH  26  27
ATOM     27  C   UNL     1       7.585  15.599  18.341  0.00  0.00    +0.000 A 
ATOM     28  C   UNL     1       7.313  16.029  19.630  0.00  0.00    +0.000 A 
ATOM     29  C   UNL     1       6.094  15.682  20.209  0.00  0.00    +0.000 A 
ATOM     30  C   UNL     1       5.179  14.933  19.482  0.00  0.00    +0.000 A 
ATOM     31  N   UNL     1       3.966  14.625  20.104  0.00  0.00    +0.000 N 
ATOM     32  C   UNL     1       2.878  13.945  19.664  0.00  0.00    +0.000 C 
ATOM     33  C   UNL     1       2.799  13.306  18.305  0.00  0.00    +0.000 C 
ATOM     34  O   UNL     1       1.906  13.882  20.427  0.00  0.00    +0.000 OA
ATOM     35  N   UNL     1       5.470  14.549  18.230  0.00  0.00    +0.000 NA
ATOM     36  N   UNL     1       6.679  14.877  17.652  0.00  0.00    +0.000 NA
ATOM     37  H   UNL     1       3.830  14.975  21.043  0.00  0.00    +0.000 HD
ENDBRANCH  26  27
ENDBRANCH  25  26
ENDBRANCH  24  25
ENDBRANCH  23  24
ENDBRANCH   7  23
TORSDOF 9
ENDMDL
MODEL 4
REMARK VINA RESULT:      -8.0      1.654      2.253
REMARK  Name = 
REMARK  11 active torsions:
REMARK  status: ('A' for Active; 'I' for Inactive)
REMARK    1  A    between atoms: C_1  and  C_2
REMARK    2  A    between atoms: N_4  and  C_5
REMARK    3  A    between atoms: C_5  and  C_6
REMARK    4  A    between atoms: C_10  and  C_11
REMARK    5  A    between atoms: C_11  and  C_12
REMARK    6  A    between atoms: C_18  and  C_19
REMARK    7  A    between atoms: C_19  and  C_20
REMARK    8  A    between atoms: C_20  and  C_21
REMARK    9  A    between atoms: C_21  and  C_22
REMARK   10  A    between atoms: C_22  and  C_23
REMARK   11  A    between atoms: C_28  and  C_29
REMARK                            x       y       z     vdW  Elec       q    Type
REMARK                         _______ _______ _______ _____ _____    ______ ____
ROOT
ATOM      1  C   UNL     1       8.855   9.767  18.567  0.00  0.00    +0.000 C 
ATOM      2  O   UNL     1       8.129  10.384  17.791  0.00  0.00    +0.000 OA
ATOM      3  N   UNL     1       8.780   8.419  18.848  0.00  0.00    +0.000 N 
ATOM      4  C   UNL     1       7.901   7.614  18.172  0.00  0.00    +0.000 A 
ATOM      5  N   UNL     1       7.191   7.867  17.100  0.00  0.00    +0.000 NA
ATOM      6  N   UNL     1       6.402   6.796  16.736  0.00  0.00    +0.000 NA
ATOM      7  C   UNL     1       6.546   5.775  17.555  0.00  0.00    +0.000 A 
ATOM      8  S   UNL     1       7.702   6.041  18.806  0.00  0.00    +0.000 S 
ATOM      9  H   UNL     1       9.279   8.021  19.630  0.00  0.00    +0.000 HD
ENDROOT
BRANCH   1  10
ATOM     10  C   UNL     1       9.942  10.492  19.340  0.00  0.00    +0.000 C 
BRANCH  10  15
ATOM     11  C   UNL     1       9.237  14.123  20.390  0.00  0.00    +0.000 A 
ATOM     12  C   UNL     1       8.747  13.921  21.685  0.00  0.00    +0.000 A 
ATOM     13  C   UNL     1       8.651  12.633  22.209  0.00  0.00    +0.000 A 
ATOM     14  C   UNL     1       9.026  11.533  21.435  0.00  0.00    +0.000 A 
ATOM     15  C   UNL     1       9.484  11.704  20.120  0.00  0.00    +0.000 A 
ATOM     16  C   UNL     1       9.600  13.007  19.615  0.00  0.00    +0.000 A 
BRANCH  11  17
ATOM     17  C   UNL     1       9.354  15.513  19.825  0.00  0.00    +0.000 C 
BRANCH  17  21
ATOM     18  C   UNL     1       5.955  16.927  19.012  0.00  0.00    +0.000 C 
ATOM     19  C   UNL     1       7.222  16.146  18.801  0.00  0.00    +0.000 C 
ATOM     20  O   UNL     1       7.449  15.519  17.770  0.00  0.00    +0.000 OA
ATOM     21  N   UNL     1       8.082  16.197  19.867  0.00  0.00    +0.000 N 
ATOM     22  H   UNL     1       7.897  16.830  20.634  0.00  0.00    +0.000 HD
ENDBRANCH  17  21
ENDBRANCH  11  17
ENDBRANCH  10  15
ENDBRANCH   1  10
BRANCH   7  23
ATOM     23  C   UNL     1       5.810   4.480  17.421  0.00  0.00    +0.000 C 
BRANCH  23  24
ATOM     24  C   UNL     1       4.535   4.442  18.274  0.00  0.00    +0.000 C 
BRANCH  24  25
ATOM     25  C   UNL     1       4.354   5.715  19.105  0.00  0.00    +0.000 C 
BRANCH  25  26
ATOM     26  C   UNL     1       2.927   5.870  19.630  0.00  0.00    +0.000 C 
BRANCH  26  27
ATOM     27  C   UNL     1       2.377   7.219  19.252  0.00  0.00    +0.000 A 
ATOM     28  C   UNL     1       2.467   7.700  17.956  0.00  0.00    +0.000 A 
ATOM     29  C   UNL     1       1.891   8.933  17.656  0.00  0.00    +0.000 A 
ATOM     30  C   UNL     1       1.229   9.640  18.651  0.00  0.00    +0.000 A 
ATOM     31  N   UNL     1       0.656  10.862  18.294  0.00  0.00    +0.000 N 
ATOM     32  C   UNL     1      -0.062  11.762  19.013  0.00  0.00    +0.000 C 
ATOM     33  C   UNL     1      -0.361  11.597  20.478  0.00  0.00    +0.000 C 
ATOM     34  O   UNL     1      -0.502  12.746  18.406  0.00  0.00    +0.000 OA
ATOM     35  N   UNL     1       1.147   9.134  19.892  0.00  0.00    +0.000 NA
ATOM     36  N   UNL     1       1.724   7.920  20.201  0.00  0.00    +0.000 NA
ATOM     37  H   UNL     1       0.754  11.151  17.331  0.00  0.00    +0.000 HD
ENDBRANCH  26  27
ENDBRANCH  25  26
ENDBRANCH  24  25
ENDBRANCH  23  24
ENDBRANCH   7  23
TORSDOF 9
ENDMDL
MODEL 5
REMARK VINA RESULT:      -7.9      6.527      9.390
REMARK  Name = 
REMARK  11 active torsions:
REMARK  status: ('A' for Active; 'I' for Inactive)
REMARK    1  A    between atoms: C_1  and  C_2
REMARK    2  A    between atoms: N_4  and  C_5
REMARK    3  A    between atoms: C_5  and  C_6
REMARK    4  A    between atoms: C_10  and  C_11
REMARK    5  A    between atoms: C_11  and  C_12
REMARK    6  A    between atoms: C_18  and  C_19
REMARK    7  A    between atoms: C_19  and  C_20
REMARK    8  A    between atoms: C_20  and  C_21
REMARK    9  A    between atoms: C_21  and  C_22
REMARK   10  A    between atoms: C_22  and  C_23
REMARK   11  A    between atoms: C_28  and  C_29
REMARK                            x       y       z     vdW  Elec       q    Type
REMARK                         _______ _______ _______ _____ _____    ______ ____
ROOT
ATOM      1  C   UNL     1       3.089   3.841  18.892  0.00  0.00    +0.000 C 
ATOM      2  O   UNL     1       2.477   3.332  19.827  0.00  0.00    +0.000 OA
ATOM      3  N   UNL     1       3.119   5.183  18.577  0.00  0.00    +0.000 N 
ATOM      4  C   UNL     1       2.507   6.102  19.388  0.00  0.00    +0.000 A 
ATOM      5  N   UNL     1       2.015   5.958  20.594  0.00  0.00    +0.000 NA
ATOM      6  N   UNL     1       1.455   7.125  21.069  0.00  0.00    +0.000 NA
ATOM      7  C   UNL     1       1.544   8.106  20.197  0.00  0.00    +0.000 A 
ATOM      8  S   UNL     1       2.367   7.678  18.744  0.00  0.00    +0.000 S 
ATOM      9  H   UNL     1       3.483   5.502  17.692  0.00  0.00    +0.000 HD
ENDROOT
BRANCH   1  10
ATOM     10  C   UNL     1       3.892   2.973  17.940  0.00  0.00    +0.000 C 
BRANCH  10  15
ATOM     11  C   UNL     1       6.076   4.420  15.125  0.00  0.00    +0.000 A 
ATOM     12  C   UNL     1       7.169   4.882  15.866  0.00  0.00    +0.000 A 
ATOM     13  C   UNL     1       7.200   4.723  17.250  0.00  0.00    +0.000 A 
ATOM     14  C   UNL     1       6.128   4.119  17.909  0.00  0.00    +0.000 A 
ATOM     15  C   UNL     1       5.002   3.681  17.195  0.00  0.00    +0.000 A 
ATOM     16  C   UNL     1       4.995   3.824  15.800  0.00  0.00    +0.000 A 
BRANCH  11  17
ATOM     17  C   UNL     1       6.044   4.579  13.629  0.00  0.00    +0.000 C 
BRANCH  17  21
ATOM     18  C   UNL     1       6.024   1.523  11.423  0.00  0.00    +0.000 C 
ATOM     19  C   UNL     1       5.548   2.833  11.987  0.00  0.00    +0.000 C 
ATOM     20  O   UNL     1       4.530   3.393  11.591  0.00  0.00    +0.000 OA
ATOM     21  N   UNL     1       6.362   3.334  12.969  0.00  0.00    +0.000 N 
ATOM     22  H   UNL     1       7.115   2.768  13.339  0.00  0.00    +0.000 HD
ENDBRANCH  17  21
ENDBRANCH  11  17
ENDBRANCH  10  15
ENDBRANCH   1  10
BRANCH   7  23
ATOM     23  C   UNL     1       1.013   9.486  20.428  0.00  0.00    +0.000 C 
BRANCH  23  24
ATOM     24  C   UNL     1       1.043   9.883  21.910  0.00  0.00    +0.000 C 
BRANCH  24  25
ATOM     25  C   UNL     1      -0.287  10.477  22.379  0.00  0.00    +0.000 C 
BRANCH  25  26
ATOM     26  C   UNL     1      -0.484  11.915  21.900  0.00  0.00    +0.000 C 
BRANCH  26  27
ATOM     27  C   UNL     1      -0.920  11.929  20.459  0.00  0.00    +0.000 A 
ATOM     28  C   UNL     1      -0.421  12.858  19.561  0.00  0.00    +0.000 A 
ATOM     29  C   UNL     1      -0.822  12.786  18.228  0.00  0.00    +0.000 A 
ATOM     30  C   UNL     1      -1.693  11.782  17.829  0.00  0.00    +0.000 A 
ATOM     31  N   UNL     1      -2.050  11.745  16.479  0.00  0.00    +0.000 N 
ATOM     32  C   UNL     1      -2.846  10.894  15.784  0.00  0.00    +0.000 C 
ATOM     33  C   UNL     1      -3.586   9.751  16.421  0.00  0.00    +0.000 C 
ATOM     34  O   UNL     1      -2.931  11.074  14.563  0.00  0.00    +0.000 OA
ATOM     35  N   UNL     1      -2.142  10.889  18.724  0.00  0.00    +0.000 NA
ATOM     36  N   UNL     1      -1.760  10.959  20.047  0.00  0.00    +0.000 NA
ATOM     37  H   UNL     1      -1.645  12.449  15.878  0.00  0.00    +0.000 HD
ENDBRANCH  26  27
ENDBRANCH  25  26
ENDBRANCH  24  25
ENDBRANCH  23  24
ENDBRANCH   7  23
TORSDOF 9
ENDMDL
MODEL 6
REMARK VINA RESULT:      -7.9      2.873      3.569
REMARK  Name = 
REMARK  11 active torsions:
REMARK  status: ('A' for Active; 'I' for Inactive)
REMARK    1  A    between atoms: C_1  and  C_2
REMARK    2  A    between atoms: N_4  and  C_5
REMARK    3  A    between atoms: C_5  and  C_6
REMARK    4  A    between atoms: C_10  and  C_11
REMARK    5  A    between atoms: C_11  and  C_12
REMARK    6  A    between atoms: C_18  and  C_19
REMARK    7  A    between atoms: C_19  and  C_20
REMARK    8  A    between atoms: C_20  and  C_21
REMARK    9  A    between atoms: C_21  and  C_22
REMARK   10  A    between atoms: C_22  and  C_23
REMARK   11  A    between atoms: C_28  and  C_29
REMARK                            x       y       z     vdW  Elec       q    Type
REMARK                         _______ _______ _______ _____ _____    ______ ____
ROOT
ATOM      1  C   UNL     1       8.933   9.996  18.658  0.00  0.00    +0.000 C 
ATOM      2  O   UNL     1       8.212  10.545  17.828  0.00  0.00    +0.000 OA
ATOM      3  N   UNL     1       8.915   8.658  18.989  0.00  0.00    +0.000 N 
ATOM      4  C   UNL     1       8.110   7.783  18.309  0.00  0.00    +0.000 A 
ATOM      5  N   UNL     1       7.436   7.956  17.199  0.00  0.00    +0.000 NA
ATOM      6  N   UNL     1       6.720   6.832  16.845  0.00  0.00    +0.000 NA
ATOM      7  C   UNL     1       6.880   5.853  17.709  0.00  0.00    +0.000 A 
ATOM      8  S   UNL     1       7.964   6.227  18.997  0.00  0.00    +0.000 S 
ATOM      9  H   UNL     1       9.398   8.317  19.807  0.00  0.00    +0.000 HD
ENDROOT
BRANCH   1  10
ATOM     10  C   UNL     1       9.945  10.807  19.447  0.00  0.00    +0.000 C 
BRANCH  10  15
ATOM     11  C   UNL     1       8.275  12.014  22.694  0.00  0.00    +0.000 A 
ATOM     12  C   UNL     1       8.174  13.384  22.431  0.00  0.00    +0.000 A 
ATOM     13  C   UNL     1       8.633  13.906  21.223  0.00  0.00    +0.000 A 
ATOM     14  C   UNL     1       9.217  13.064  20.275  0.00  0.00    +0.000 A 
ATOM     15  C   UNL     1       9.367  11.693  20.528  0.00  0.00    +0.000 A 
ATOM     16  C   UNL     1       8.877  11.177  21.737  0.00  0.00    +0.000 A 
BRANCH  11  17
ATOM     17  C   UNL     1       7.769  11.445  23.992  0.00  0.00    +0.000 C 
BRANCH  17  21
ATOM     18  C   UNL     1       5.429  13.347  26.253  0.00  0.00    +0.000 C 
ATOM     19  C   UNL     1       6.616  12.507  25.872  0.00  0.00    +0.000 C 
ATOM     20  O   UNL     1       7.432  12.102  26.695  0.00  0.00    +0.000 OA
ATOM     21  N   UNL     1       6.697  12.250  24.528  0.00  0.00    +0.000 N 
ATOM     22  H   UNL     1       5.930  12.504  23.918  0.00  0.00    +0.000 HD
ENDBRANCH  17  21
ENDBRANCH  11  17
ENDBRANCH  10  15
ENDBRANCH   1  10
BRANCH   7  23
ATOM     23  C   UNL     1       6.218   4.516  17.595  0.00  0.00    +0.000 C 
BRANCH  23  24
ATOM     24  C   UNL     1       5.285   4.428  16.380  0.00  0.00    +0.000 C 
BRANCH  24  25
ATOM     25  C   UNL     1       3.867   3.999  16.766  0.00  0.00    +0.000 C 
BRANCH  25  26
ATOM     26  C   UNL     1       3.691   3.863  18.279  0.00  0.00    +0.000 C 
BRANCH  26  27
ATOM     27  C   UNL     1       3.000   5.080  18.834  0.00  0.00    +0.000 A 
ATOM     28  C   UNL     1       2.593   5.140  20.157  0.00  0.00    +0.000 A 
ATOM     29  C   UNL     1       2.007   6.315  20.625  0.00  0.00    +0.000 A 
ATOM     30  C   UNL     1       1.860   7.396  19.767  0.00  0.00    +0.000 A 
ATOM     31  N   UNL     1       1.281   8.554  20.292  0.00  0.00    +0.000 N 
ATOM     32  C   UNL     1       1.025   9.764  19.732  0.00  0.00    +0.000 C 
ATOM     33  C   UNL     1       1.316  10.083  18.291  0.00  0.00    +0.000 C 
ATOM     34  O   UNL     1       0.552  10.637  20.469  0.00  0.00    +0.000 OA
ATOM     35  N   UNL     1       2.282   7.306  18.497  0.00  0.00    +0.000 NA
ATOM     36  N   UNL     1       2.853   6.145  18.021  0.00  0.00    +0.000 NA
ATOM     37  H   UNL     1       1.013   8.532  21.266  0.00  0.00    +0.000 HD
ENDBRANCH  26  27
ENDBRANCH  25  26
ENDBRANCH  24  25
ENDBRANCH  23  24
ENDBRANCH   7  23
TORSDOF 9
ENDMDL
MODEL 7
REMARK VINA RESULT:      -7.8      6.401     10.729
REMARK  Name = 
REMARK  11 active torsions:
REMARK  status: ('A' for Active; 'I' for Inactive)
REMARK    1  A    between atoms: C_1  and  C_2
REMARK    2  A    between atoms: N_4  and  C_5
REMARK    3  A    between atoms: C_5  and  C_6
REMARK    4  A    between atoms: C_10  and  C_11
REMARK    5  A    between atoms: C_11  and  C_12
REMARK    6  A    between atoms: C_18  and  C_19
REMARK    7  A    between atoms: C_19  and  C_20
REMARK    8  A    between atoms: C_20  and  C_21
REMARK    9  A    between atoms: C_21  and  C_22
REMARK   10  A    between atoms: C_22  and  C_23
REMARK   11  A    between atoms: C_28  and  C_29
REMARK                            x       y       z     vdW  Elec       q    Type
REMARK                         _______ _______ _______ _____ _____    ______ ____
ROOT
ATOM      1  C   UNL     1       0.936   9.613  18.551  0.00  0.00    +0.000 C 
ATOM      2  O   UNL     1       0.744  10.057  19.680  0.00  0.00    +0.000 OA
ATOM      3  N   UNL     1       0.040   9.647  17.504  0.00  0.00    +0.000 N 
ATOM      4  C   UNL     1      -1.158  10.297  17.633  0.00  0.00    +0.000 A 
ATOM      5  N   UNL     1      -1.571  11.111  18.573  0.00  0.00    +0.000 NA
ATOM      6  N   UNL     1      -2.862  11.546  18.354  0.00  0.00    +0.000 NA
ATOM      7  C   UNL     1      -3.374  11.036  17.253  0.00  0.00    +0.000 A 
ATOM      8  S   UNL     1      -2.287  10.022  16.381  0.00  0.00    +0.000 S 
ATOM      9  H   UNL     1       0.193   9.098  16.670  0.00  0.00    +0.000 HD
ENDROOT
BRANCH   1  10
ATOM     10  C   UNL     1       2.249   8.931  18.210  0.00  0.00    +0.000 C 
BRANCH  10  15
ATOM     11  C   UNL     1       3.065   5.186  18.515  0.00  0.00    +0.000 A 
ATOM     12  C   UNL     1       2.561   4.921  19.793  0.00  0.00    +0.000 A 
ATOM     13  C   UNL     1       1.963   5.935  20.539  0.00  0.00    +0.000 A 
ATOM     14  C   UNL     1       1.883   7.230  20.022  0.00  0.00    +0.000 A 
ATOM     15  C   UNL     1       2.415   7.532  18.760  0.00  0.00    +0.000 A 
ATOM     16  C   UNL     1       2.991   6.496  18.009  0.00  0.00    +0.000 A 
BRANCH  11  17
ATOM     17  C   UNL     1       3.700   4.091  17.701  0.00  0.00    +0.000 C 
BRANCH  17  21
ATOM     18  C   UNL     1       7.422   4.528  17.296  0.00  0.00    +0.000 C 
ATOM     19  C   UNL     1       5.964   4.650  16.955  0.00  0.00    +0.000 C 
ATOM     20  O   UNL     1       5.566   5.219  15.942  0.00  0.00    +0.000 OA
ATOM     21  N   UNL     1       5.133   4.076  17.882  0.00  0.00    +0.000 N 
ATOM     22  H   UNL     1       5.522   3.514  18.628  0.00  0.00    +0.000 HD
ENDBRANCH  17  21
ENDBRANCH  11  17
ENDBRANCH  10  15
ENDBRANCH   1  10
BRANCH   7  23
ATOM     23  C   UNL     1      -4.760  11.316  16.764  0.00  0.00    +0.000 C 
BRANCH  23  24
ATOM     24  C   UNL     1      -5.681  11.828  17.880  0.00  0.00    +0.000 C 
BRANCH  24  25
ATOM     25  C   UNL     1      -6.769  12.767  17.351  0.00  0.00    +0.000 C 
BRANCH  25  26
ATOM     26  C   UNL     1      -6.963  13.993  18.243  0.00  0.00    +0.000 C 
BRANCH  26  27
ATOM     27  C   UNL     1      -6.653  13.649  19.675  0.00  0.00    +0.000 A 
ATOM     28  C   UNL     1      -7.586  13.026  20.489  0.00  0.00    +0.000 A 
ATOM     29  C   UNL     1      -7.221  12.685  21.789  0.00  0.00    +0.000 A 
ATOM     30  C   UNL     1      -5.935  12.960  22.234  0.00  0.00    +0.000 A 
ATOM     31  N   UNL     1      -5.616  12.583  23.541  0.00  0.00    +0.000 N 
ATOM     32  C   UNL     1      -4.464  12.688  24.250  0.00  0.00    +0.000 C 
ATOM     33  C   UNL     1      -3.217  13.329  23.707  0.00  0.00    +0.000 C 
ATOM     34  O   UNL     1      -4.457  12.203  25.388  0.00  0.00    +0.000 OA
ATOM     35  N   UNL     1      -5.053  13.549  21.412  0.00  0.00    +0.000 NA
ATOM     36  N   UNL     1      -5.408  13.901  20.127  0.00  0.00    +0.000 NA
ATOM     37  H   UNL     1      -6.342  12.127  24.077  0.00  0.00    +0.000 HD
ENDBRANCH  26  27
ENDBRANCH  25  26
ENDBRANCH  24  25
ENDBRANCH  23  24
ENDBRANCH   7  23
TORSDOF 9
ENDMDL
MODEL 8
REMARK VINA RESULT:      -7.8      6.975     11.146
REMARK  Name = 
REMARK  11 active torsions:
REMARK  status: ('A' for Active; 'I' for Inactive)
REMARK    1  A    between atoms: C_1  and  C_2
REMARK    2  A    between atoms: N_4  and  C_5
REMARK    3  A    between atoms: C_5  and  C_6
REMARK    4  A    between atoms: C_10  and  C_11
REMARK    5  A    between atoms: C_11  and  C_12
REMARK    6  A    between atoms: C_18  and  C_19
REMARK    7  A    between atoms: C_19  and  C_20
REMARK    8  A    between atoms: C_20  and  C_21
REMARK    9  A    between atoms: C_21  and  C_22
REMARK   10  A    between atoms: C_22  and  C_23
REMARK   11  A    between atoms: C_28  and  C_29
REMARK                            x       y       z     vdW  Elec       q    Type
REMARK                         _______ _______ _______ _____ _____    ______ ____
ROOT
ATOM      1  C   UNL     1       0.153   9.808  18.266  0.00  0.00    +0.000 C 
ATOM      2  O   UNL     1       0.121   9.293  17.151  0.00  0.00    +0.000 OA
ATOM      3  N   UNL     1      -0.861  10.538  18.851  0.00  0.00    +0.000 N 
ATOM      4  C   UNL     1      -2.075  10.666  18.230  0.00  0.00    +0.000 A 
ATOM      5  N   UNL     1      -2.554  10.028  17.190  0.00  0.00    +0.000 NA
ATOM      6  N   UNL     1      -3.819  10.463  16.852  0.00  0.00    +0.000 NA
ATOM      7  C   UNL     1      -4.242  11.418  17.651  0.00  0.00    +0.000 A 
ATOM      8  S   UNL     1      -3.134  11.820  18.910  0.00  0.00    +0.000 S 
ATOM      9  H   UNL     1      -0.695  11.086  19.681  0.00  0.00    +0.000 HD
ENDROOT
BRANCH   1  10
ATOM     10  C   UNL     1       1.396   9.691  19.128  0.00  0.00    +0.000 C 
BRANCH  10  15
ATOM     11  C   UNL     1       2.914   6.180  18.740  0.00  0.00    +0.000 A 
ATOM     12  C   UNL     1       2.553   5.612  19.966  0.00  0.00    +0.000 A 
ATOM     13  C   UNL     1       1.827   6.350  20.898  0.00  0.00    +0.000 A 
ATOM     14  C   UNL     1       1.474   7.672  20.621  0.00  0.00    +0.000 A 
ATOM     15  C   UNL     1       1.856   8.279  19.415  0.00  0.00    +0.000 A 
ATOM     16  C   UNL     1       2.564   7.516  18.476  0.00  0.00    +0.000 A 
BRANCH  11  17
ATOM     17  C   UNL     1       3.687   5.381  17.725  0.00  0.00    +0.000 C 
BRANCH  17  21
ATOM     18  C   UNL     1       3.406   1.661  18.259  0.00  0.00    +0.000 C 
ATOM     19  C   UNL     1       3.087   3.008  17.675  0.00  0.00    +0.000 C 
ATOM     20  O   UNL     1       2.210   3.174  16.833  0.00  0.00    +0.000 OA
ATOM     21  N   UNL     1       3.871   4.019  18.169  0.00  0.00    +0.000 N 
ATOM     22  H   UNL     1       4.488   3.842  18.950  0.00  0.00    +0.000 HD
ENDBRANCH  17  21
ENDBRANCH  11  17
ENDBRANCH  10  15
ENDBRANCH   1  10
BRANCH   7  23
ATOM     23  C   UNL     1      -5.571  12.094  17.522  0.00  0.00    +0.000 C 
BRANCH  23  24
ATOM     24  C   UNL     1      -6.703  11.284  18.167  0.00  0.00    +0.000 C 
BRANCH  24  25
ATOM     25  C   UNL     1      -7.484  12.098  19.203  0.00  0.00    +0.000 C 
BRANCH  25  26
ATOM     26  C   UNL     1      -7.625  11.363  20.535  0.00  0.00    +0.000 C 
BRANCH  26  27
ATOM     27  C   UNL     1      -6.862  12.086  21.613  0.00  0.00    +0.000 A 
ATOM     28  C   UNL     1      -7.485  12.528  22.769  0.00  0.00    +0.000 A 
ATOM     29  C   UNL     1      -6.715  13.144  23.753  0.00  0.00    +0.000 A 
ATOM     30  C   UNL     1      -5.347  13.285  23.563  0.00  0.00    +0.000 A 
ATOM     31  N   UNL     1      -4.619  13.895  24.587  0.00  0.00    +0.000 N 
ATOM     32  C   UNL     1      -3.293  14.155  24.716  0.00  0.00    +0.000 C 
ATOM     33  C   UNL     1      -2.283  13.832  23.649  0.00  0.00    +0.000 C 
ATOM     34  O   UNL     1      -2.918  14.660  25.781  0.00  0.00    +0.000 OA
ATOM     35  N   UNL     1      -4.775  12.829  22.438  0.00  0.00    +0.000 NA
ATOM     36  N   UNL     1      -5.531  12.229  21.453  0.00  0.00    +0.000 NA
ATOM     37  H   UNL     1      -5.135  14.188  25.406  0.00  0.00    +0.000 HD
ENDBRANCH  26  27
ENDBRANCH  25  26
ENDBRANCH  24  25
ENDBRANCH  23  24
ENDBRANCH   7  23
TORSDOF 9
ENDMDL
MODEL 9
REMARK VINA RESULT:      -7.8      3.621      9.462
REMARK  Name = 
REMARK  11 active torsions:
REMARK  status: ('A' for Active; 'I' for Inactive)
REMARK    1  A    between atoms: C_1  and  C_2
REMARK    2  A    between atoms: N_4  and  C_5
REMARK    3  A    between atoms: C_5  and  C_6
REMARK    4  A    between atoms: C_10  and  C_11
REMARK    5  A    between atoms: C_11  and  C_12
REMARK    6  A    between atoms: C_18  and  C_19
REMARK    7  A    between atoms: C_19  and  C_20
REMARK    8  A    between atoms: C_20  and  C_21
REMARK    9  A    between atoms: C_21  and  C_22
REMARK   10  A    between atoms: C_22  and  C_23
REMARK   11  A    between atoms: C_28  and  C_29
REMARK                            x       y       z     vdW  Elec       q    Type
REMARK                         _______ _______ _______ _____ _____    ______ ____
ROOT
ATOM      1  C   UNL     1       8.056   7.797  18.085  0.00  0.00    +0.000 C 
ATOM      2  O   UNL     1       7.728   8.088  16.937  0.00  0.00    +0.000 OA
ATOM      3  N   UNL     1       8.634   8.648  19.003  0.00  0.00    +0.000 N 
ATOM      4  C   UNL     1       8.808   9.975  18.711  0.00  0.00    +0.000 A 
ATOM      5  N   UNL     1       8.327  10.682  17.719  0.00  0.00    +0.000 NA
ATOM      6  N   UNL     1       8.754  11.993  17.761  0.00  0.00    +0.000 NA
ATOM      7  C   UNL     1       9.547  12.221  18.786  0.00  0.00    +0.000 A 
ATOM      8  S   UNL     1       9.787  10.850  19.803  0.00  0.00    +0.000 S 
ATOM      9  H   UNL     1       9.047   8.293  19.853  0.00  0.00    +0.000 HD
ENDROOT
BRANCH   1  10
ATOM     10  C   UNL     1       7.856   6.385  18.603  0.00  0.00    +0.000 C 
BRANCH  10  15
ATOM     11  C   UNL     1       4.445   4.815  17.774  0.00  0.00    +0.000 A 
ATOM     12  C   UNL     1       4.801   3.987  16.704  0.00  0.00    +0.000 A 
ATOM     13  C   UNL     1       6.122   3.934  16.264  0.00  0.00    +0.000 A 
ATOM     14  C   UNL     1       7.096   4.726  16.876  0.00  0.00    +0.000 A 
ATOM     15  C   UNL     1       6.759   5.594  17.925  0.00  0.00    +0.000 A 
ATOM     16  C   UNL     1       5.431   5.618  18.375  0.00  0.00    +0.000 A 
BRANCH  11  17
ATOM     17  C   UNL     1       3.022   4.866  18.261  0.00  0.00    +0.000 C 
BRANCH  17  21
ATOM     18  C   UNL     1       2.468   2.907  21.433  0.00  0.00    +0.000 C 
ATOM     19  C   UNL     1       2.519   3.171  19.954  0.00  0.00    +0.000 C 
ATOM     20  O   UNL     1       2.224   2.320  19.119  0.00  0.00    +0.000 OA
ATOM     21  N   UNL     1       2.930   4.440  19.638  0.00  0.00    +0.000 N 
ATOM     22  H   UNL     1       3.037   5.132  20.368  0.00  0.00    +0.000 HD
ENDBRANCH  17  21
ENDBRANCH  11  17
ENDBRANCH  10  15
ENDBRANCH   1  10
BRANCH   7  23
ATOM     23  C   UNL     1      10.175  13.547  19.084  0.00  0.00    +0.000 C 
BRANCH  23  24
ATOM     24  C   UNL     1       9.221  14.490  19.828  0.00  0.00    +0.000 C 
BRANCH  24  25
ATOM     25  C   UNL     1       8.403  15.363  18.872  0.00  0.00    +0.000 C 
BRANCH  25  26
ATOM     26  C   UNL     1       7.609  16.444  19.606  0.00  0.00    +0.000 C 
BRANCH  26  27
ATOM     27  C   UNL     1       6.132  16.214  19.430  0.00  0.00    +0.000 A 
ATOM     28  C   UNL     1       5.490  15.141  20.027  0.00  0.00    +0.000 A 
ATOM     29  C   UNL     1       4.112  15.012  19.871  0.00  0.00    +0.000 A 
ATOM     30  C   UNL     1       3.413  15.963  19.140  0.00  0.00    +0.000 A 
ATOM     31  N   UNL     1       2.031  15.796  19.027  0.00  0.00    +0.000 N 
ATOM     32  C   UNL     1       1.082  16.547  18.414  0.00  0.00    +0.000 C 
ATOM     33  C   UNL     1       1.395  17.796  17.637  0.00  0.00    +0.000 C 
ATOM     34  O   UNL     1      -0.093  16.179  18.534  0.00  0.00    +0.000 OA
ATOM     35  N   UNL     1       4.067  16.999  18.590  0.00  0.00    +0.000 NA
ATOM     36  N   UNL     1       5.432  17.129  18.729  0.00  0.00    +0.000 NA
ATOM     37  H   UNL     1       1.627  14.995  19.492  0.00  0.00    +0.000 HD
ENDBRANCH  26  27
ENDBRANCH  25  26
ENDBRANCH  24  25
ENDBRANCH  23  24
ENDBRANCH   7  23
TORSDOF 9
ENDMDL
