MODEL 1
REMARK VINA RESULT:      -7.5      0.000      0.000
REMARK  Name = 
REMARK  3 active torsions:
REMARK  status: ('A' for Active; 'I' for Inactive)
REMARK    1  A    between atoms: C_2  and  C_3
REMARK    2  A    between atoms: C_3  and  N_4
REMARK    3  A    between atoms: N_20  and  C_21
REMARK                            x       y       z     vdW  Elec       q    Type
REMARK                         _______ _______ _______ _____ _____    ______ ____
ROOT
ATOM      1  N   UNL     1       0.572  10.771  18.246  0.00  0.00    +0.000 N 
ATOM      2  C   UNL     1       1.236  11.919  18.758  0.00  0.00    +0.000 A 
ATOM      3  C   UNL     1       2.508  12.333  18.317  0.00  0.00    +0.000 A 
ATOM      4  C   UNL     1       3.113  13.516  18.774  0.00  0.00    +0.000 A 
ATOM      5  C   UNL     1       2.462  14.336  19.687  0.00  0.00    +0.000 A 
ATOM      6  C   UNL     1       1.207  13.968  20.145  0.00  0.00    +0.000 A 
ATOM      7  C   UNL     1       0.624  12.781  19.680  0.00  0.00    +0.000 A 
ATOM      8  S   UNL     1      -0.991  12.389  20.231  0.00  0.00    +0.000 S 
ATOM      9  O   UNL     1      -1.736  13.639  20.268  0.00  0.00    +0.000 OA
ATOM     10  O   UNL     1      -0.859  11.569  21.416  0.00  0.00    +0.000 OA
ATOM     11  C   UNL     1      -1.699  11.408  18.967  0.00  0.00    +0.000 A 
ATOM     12  C   UNL     1      -3.088  11.463  18.776  0.00  0.00    +0.000 A 
ATOM     13  C   UNL     1      -3.678  10.640  17.830  0.00  0.00    +0.000 A 
ATOM     14  C   UNL     1      -2.884   9.739  17.133  0.00  0.00    +0.000 A 
ATOM     15  C   UNL     1      -1.492   9.717  17.325  0.00  0.00    +0.000 A 
ATOM     16  C   UNL     1      -0.841  10.606  18.202  0.00  0.00    +0.000 A 
ENDROOT
BRANCH   1  17
ATOM     17  C   UNL     1       1.417   9.656  17.745  0.00  0.00    +0.000 C 
BRANCH  17  19
ATOM     18  O   UNL     1       1.374   8.763  20.005  0.00  0.00    +0.000 OA
ATOM     19  C   UNL     1       1.742   8.632  18.841  0.00  0.00    +0.000 C 
ATOM     20  N   UNL     1       2.415   7.509  18.382  0.00  0.00    +0.000 N 
ATOM     21  H   UNL     1       2.946   7.607  17.530  0.00  0.00    +0.000 HD
BRANCH  20  22
ATOM     22  C   UNL     1       2.765   6.399  19.273  0.00  0.00    +0.000 C 
ATOM     23  C   UNL     1       1.757   5.251  19.135  0.00  0.00    +0.000 C 
ATOM     24  C   UNL     1       1.689   4.567  17.771  0.00  0.00    +0.000 C 
ATOM     25  C   UNL     1       2.781   3.541  17.491  0.00  0.00    +0.000 C 
ATOM     26  C   UNL     1       4.225   4.008  17.618  0.00  0.00    +0.000 C 
ATOM     27  C   UNL     1       4.604   4.573  18.984  0.00  0.00    +0.000 C 
ATOM     28  C   UNL     1       4.252   6.048  19.140  0.00  0.00    +0.000 C 
ENDBRANCH  20  22
ENDBRANCH  17  19
ENDBRANCH   1  17
TORSDOF 3
ENDMDL
MODEL 2
REMARK VINA RESULT:      -7.4      3.672      8.278
REMARK  Name = 
REMARK  3 active torsions:
REMARK  status: ('A' for Active; 'I' for Inactive)
REMARK    1  A    between atoms: C_2  and  C_3
REMARK    2  A    between atoms: C_3  and  N_4
REMARK    3  A    between atoms: N_20  and  C_21
REMARK                            x       y       z     vdW  Elec       q    Type
REMARK                         _______ _______ _______ _____ _____    ______ ____
ROOT
ATOM      1  N   UNL     1       3.718   5.562  19.062  0.00  0.00    +0.000 N 
ATOM      2  C   UNL     1       4.587   5.289  17.971  0.00  0.00    +0.000 A 
ATOM      3  C   UNL     1       5.724   6.068  17.679  0.00  0.00    +0.000 A 
ATOM      4  C   UNL     1       6.617   5.735  16.647  0.00  0.00    +0.000 A 
ATOM      5  C   UNL     1       6.410   4.602  15.872  0.00  0.00    +0.000 A 
ATOM      6  C   UNL     1       5.306   3.805  16.127  0.00  0.00    +0.000 A 
ATOM      7  C   UNL     1       4.424   4.158  17.158  0.00  0.00    +0.000 A 
ATOM      8  S   UNL     1       3.081   3.087  17.491  0.00  0.00    +0.000 S 
ATOM      9  O   UNL     1       3.583   1.728  17.353  0.00  0.00    +0.000 OA
ATOM     10  O   UNL     1       1.954   3.544  16.707  0.00  0.00    +0.000 OA
ATOM     11  C   UNL     1       2.695   3.321  19.183  0.00  0.00    +0.000 A 
ATOM     12  C   UNL     1       2.159   2.242  19.903  0.00  0.00    +0.000 A 
ATOM     13  C   UNL     1       1.779   2.427  21.223  0.00  0.00    +0.000 A 
ATOM     14  C   UNL     1       1.887   3.693  21.782  0.00  0.00    +0.000 A 
ATOM     15  C   UNL     1       2.447   4.753  21.050  0.00  0.00    +0.000 A 
ATOM     16  C   UNL     1       2.939   4.584  19.741  0.00  0.00    +0.000 A 
ENDROOT
BRANCH   1  17
ATOM     17  C   UNL     1       3.597   6.975  19.507  0.00  0.00    +0.000 C 
BRANCH  17  19
ATOM     18  O   UNL     1       1.751   7.470  18.007  0.00  0.00    +0.000 OA
ATOM     19  C   UNL     1       2.247   7.595  19.124  0.00  0.00    +0.000 C 
ATOM     20  N   UNL     1       1.602   8.235  20.171  0.00  0.00    +0.000 N 
ATOM     21  H   UNL     1       2.177   8.568  20.931  0.00  0.00    +0.000 HD
BRANCH  20  22
ATOM     22  C   UNL     1       0.278   8.843  20.008  0.00  0.00    +0.000 C 
ATOM     23  C   UNL     1      -0.602   8.569  21.235  0.00  0.00    +0.000 C 
ATOM     24  C   UNL     1      -0.127   9.166  22.559  0.00  0.00    +0.000 C 
ATOM     25  C   UNL     1      -0.433  10.644  22.765  0.00  0.00    +0.000 C 
ATOM     26  C   UNL     1       0.066  11.614  21.701  0.00  0.00    +0.000 C 
ATOM     27  C   UNL     1      -0.434  11.336  20.287  0.00  0.00    +0.000 C 
ATOM     28  C   UNL     1       0.406  10.301  19.548  0.00  0.00    +0.000 C 
ENDBRANCH  20  22
ENDBRANCH  17  19
ENDBRANCH   1  17
TORSDOF 3
ENDMDL
MODEL 3
REMARK VINA RESULT:      -7.3      2.001      3.850
REMARK  Name = 
REMARK  3 active torsions:
REMARK  status: ('A' for Active; 'I' for Inactive)
REMARK    1  A    between atoms: C_2  and  C_3
REMARK    2  A    between atoms: C_3  and  N_4
REMARK    3  A    between atoms: N_20  and  C_21
REMARK                            x       y       z     vdW  Elec       q    Type
REMARK                         _______ _______ _______ _____ _____    ______ ____
ROOT
ATOM      1  N   UNL     1       0.858  10.749  19.377  0.00  0.00    +0.000 N 
ATOM      2  C   UNL     1       0.279  10.370  20.618  0.00  0.00    +0.000 A 
ATOM      3  C   UNL     1       0.189   9.031  21.049  0.00  0.00    +0.000 A 
ATOM      4  C   UNL     1      -0.312   8.681  22.314  0.00  0.00    +0.000 A 
ATOM      5  C   UNL     1      -0.736   9.660  23.201  0.00  0.00    +0.000 A 
ATOM      6  C   UNL     1      -0.663  10.990  22.820  0.00  0.00    +0.000 A 
ATOM      7  C   UNL     1      -0.165  11.318  21.551  0.00  0.00    +0.000 A 
ATOM      8  S   UNL     1      -0.026  13.013  21.137  0.00  0.00    +0.000 S 
ATOM      9  O   UNL     1       0.433  13.701  22.335  0.00  0.00    +0.000 OA
ATOM     10  O   UNL     1      -1.256  13.403  20.482  0.00  0.00    +0.000 OA
ATOM     11  C   UNL     1       1.269  13.109  19.963  0.00  0.00    +0.000 A 
ATOM     12  C   UNL     1       2.039  14.282  19.911  0.00  0.00    +0.000 A 
ATOM     13  C   UNL     1       3.021  14.408  18.941  0.00  0.00    +0.000 A 
ATOM     14  C   UNL     1       3.180  13.392  18.009  0.00  0.00    +0.000 A 
ATOM     15  C   UNL     1       2.414  12.218  18.094  0.00  0.00    +0.000 A 
ATOM     16  C   UNL     1       1.476  12.006  19.123  0.00  0.00    +0.000 A 
ENDROOT
BRANCH   1  17
ATOM     17  C   UNL     1       0.791   9.772  18.260  0.00  0.00    +0.000 C 
BRANCH  17  19
ATOM     18  O   UNL     1       3.084   9.080  17.852  0.00  0.00    +0.000 OA
ATOM     19  C   UNL     1       1.968   8.788  18.273  0.00  0.00    +0.000 C 
ATOM     20  N   UNL     1       1.682   7.573  18.877  0.00  0.00    +0.000 N 
ATOM     21  H   UNL     1       0.714   7.290  18.905  0.00  0.00    +0.000 HD
BRANCH  20  22
ATOM     22  C   UNL     1       2.697   6.526  19.029  0.00  0.00    +0.000 C 
ATOM     23  C   UNL     1       2.515   5.780  20.358  0.00  0.00    +0.000 C 
ATOM     24  C   UNL     1       1.212   5.001  20.526  0.00  0.00    +0.000 C 
ATOM     25  C   UNL     1       1.162   3.640  19.844  0.00  0.00    +0.000 C 
ATOM     26  C   UNL     1       1.447   3.600  18.347  0.00  0.00    +0.000 C 
ATOM     27  C   UNL     1       2.802   4.163  17.931  0.00  0.00    +0.000 C 
ATOM     28  C   UNL     1       2.793   5.677  17.755  0.00  0.00    +0.000 C 
ENDBRANCH  20  22
ENDBRANCH  17  19
ENDBRANCH   1  17
TORSDOF 3
ENDMDL
MODEL 4
REMARK VINA RESULT:      -7.3      3.952      7.614
REMARK  Name = 
REMARK  3 active torsions:
REMARK  status: ('A' for Active; 'I' for Inactive)
REMARK    1  A    between atoms: C_2  and  C_3
REMARK    2  A    between atoms: C_3  and  N_4
REMARK    3  A    between atoms: N_20  and  C_21
REMARK                            x       y       z     vdW  Elec       q    Type
REMARK                         _______ _______ _______ _____ _____    ______ ____
ROOT
ATOM      1  N   UNL     1      -0.854  11.966  19.595  0.00  0.00    +0.000 N 
ATOM      2  C   UNL     1      -0.738  11.039  20.665  0.00  0.00    +0.000 A 
ATOM      3  C   UNL     1      -0.304   9.709  20.488  0.00  0.00    +0.000 A 
ATOM      4  C   UNL     1      -0.117   8.831  21.568  0.00  0.00    +0.000 A 
ATOM      5  C   UNL     1      -0.349   9.252  22.870  0.00  0.00    +0.000 A 
ATOM      6  C   UNL     1      -0.773  10.553  23.090  0.00  0.00    +0.000 A 
ATOM      7  C   UNL     1      -0.960  11.412  21.998  0.00  0.00    +0.000 A 
ATOM      8  S   UNL     1      -1.430  13.066  22.326  0.00  0.00    +0.000 S 
ATOM      9  O   UNL     1      -0.690  13.486  23.507  0.00  0.00    +0.000 OA
ATOM     10  O   UNL     1      -2.876  13.120  22.299  0.00  0.00    +0.000 OA
ATOM     11  C   UNL     1      -0.826  14.007  20.980  0.00  0.00    +0.000 A 
ATOM     12  C   UNL     1      -0.465  15.344  21.207  0.00  0.00    +0.000 A 
ATOM     13  C   UNL     1      -0.053  16.128  20.141  0.00  0.00    +0.000 A 
ATOM     14  C   UNL     1      -0.063  15.584  18.863  0.00  0.00    +0.000 A 
ATOM     15  C   UNL     1      -0.406  14.237  18.663  0.00  0.00    +0.000 A 
ATOM     16  C   UNL     1      -0.732  13.378  19.730  0.00  0.00    +0.000 A 
ENDROOT
BRANCH   1  17
ATOM     17  C   UNL     1      -1.149  11.423  18.243  0.00  0.00    +0.000 C 
BRANCH  17  19
ATOM     18  O   UNL     1      -2.900   9.792  17.827  0.00  0.00    +0.000 OA
ATOM     19  C   UNL     1      -2.602  10.950  18.107  0.00  0.00    +0.000 C 
ATOM     20  N   UNL     1      -3.543  11.922  18.410  0.00  0.00    +0.000 N 
ATOM     21  H   UNL     1      -3.256  12.885  18.318  0.00  0.00    +0.000 HD
BRANCH  20  22
ATOM     22  C   UNL     1      -4.981  11.640  18.386  0.00  0.00    +0.000 C 
ATOM     23  C   UNL     1      -5.644  12.082  19.698  0.00  0.00    +0.000 C 
ATOM     24  C   UNL     1      -5.608  13.578  20.007  0.00  0.00    +0.000 C 
ATOM     25  C   UNL     1      -6.646  14.428  19.284  0.00  0.00    +0.000 C 
ATOM     26  C   UNL     1      -6.676  14.347  17.763  0.00  0.00    +0.000 C 
ATOM     27  C   UNL     1      -6.896  12.949  17.194  0.00  0.00    +0.000 C 
ATOM     28  C   UNL     1      -5.608  12.141  17.079  0.00  0.00    +0.000 C 
ENDBRANCH  20  22
ENDBRANCH  17  19
ENDBRANCH   1  17
TORSDOF 3
ENDMDL
MODEL 5
REMARK VINA RESULT:      -7.3      3.515      8.534
REMARK  Name = 
REMARK  3 active torsions:
REMARK  status: ('A' for Active; 'I' for Inactive)
REMARK    1  A    between atoms: C_2  and  C_3
REMARK    2  A    between atoms: C_3  and  N_4
REMARK    3  A    between atoms: N_20  and  C_21
REMARK                            x       y       z     vdW  Elec       q    Type
REMARK                         _______ _______ _______ _____ _____    ______ ____
ROOT
ATOM      1  N   UNL     1       3.443   5.893  18.678  0.00  0.00    +0.000 N 
ATOM      2  C   UNL     1       2.645   4.931  19.355  0.00  0.00    +0.000 A 
ATOM      3  C   UNL     1       1.454   5.260  20.032  0.00  0.00    +0.000 A 
ATOM      4  C   UNL     1       0.635   4.284  20.625  0.00  0.00    +0.000 A 
ATOM      5  C   UNL     1       0.973   2.940  20.556  0.00  0.00    +0.000 A 
ATOM      6  C   UNL     1       2.135   2.572  19.896  0.00  0.00    +0.000 A 
ATOM      7  C   UNL     1       2.941   3.561  19.316  0.00  0.00    +0.000 A 
ATOM      8  S   UNL     1       4.362   3.047  18.433  0.00  0.00    +0.000 S 
ATOM      9  O   UNL     1       3.991   1.844  17.704  0.00  0.00    +0.000 OA
ATOM     10  O   UNL     1       5.472   3.039  19.363  0.00  0.00    +0.000 OA
ATOM     11  C   UNL     1       4.660   4.297  17.244  0.00  0.00    +0.000 A 
ATOM     12  C   UNL     1       5.264   3.935  16.030  0.00  0.00    +0.000 A 
ATOM     13  C   UNL     1       5.575   4.919  15.105  0.00  0.00    +0.000 A 
ATOM     14  C   UNL     1       5.331   6.247  15.429  0.00  0.00    +0.000 A 
ATOM     15  C   UNL     1       4.705   6.584  16.640  0.00  0.00    +0.000 A 
ATOM     16  C   UNL     1       4.281   5.609  17.563  0.00  0.00    +0.000 A 
ENDROOT
BRANCH   1  17
ATOM     17  C   UNL     1       3.418   7.289  19.187  0.00  0.00    +0.000 C 
BRANCH  17  19
ATOM     18  O   UNL     1       1.750   7.917  17.536  0.00  0.00    +0.000 OA
ATOM     19  C   UNL     1       2.214   8.081  18.661  0.00  0.00    +0.000 C 
ATOM     20  N   UNL     1       1.648   8.935  19.595  0.00  0.00    +0.000 N 
ATOM     21  H   UNL     1       2.240   9.250  20.349  0.00  0.00    +0.000 HD
BRANCH  20  22
ATOM     22  C   UNL     1       0.459   9.736  19.291  0.00  0.00    +0.000 C 
ATOM     23  C   UNL     1      -0.556   9.664  20.440  0.00  0.00    +0.000 C 
ATOM     24  C   UNL     1      -0.105  10.241  21.781  0.00  0.00    +0.000 C 
ATOM     25  C   UNL     1      -0.185  11.758  21.908  0.00  0.00    +0.000 C 
ATOM     26  C   UNL     1       0.553  12.584  20.862  0.00  0.00    +0.000 C 
ATOM     27  C   UNL     1       0.138  12.321  19.418  0.00  0.00    +0.000 C 
ATOM     28  C   UNL     1       0.859  11.131  18.795  0.00  0.00    +0.000 C 
ENDBRANCH  20  22
ENDBRANCH  17  19
ENDBRANCH   1  17
TORSDOF 3
ENDMDL
MODEL 6
REMARK VINA RESULT:      -7.2      2.983      7.558
REMARK  Name = 
REMARK  3 active torsions:
REMARK  status: ('A' for Active; 'I' for Inactive)
REMARK    1  A    between atoms: C_2  and  C_3
REMARK    2  A    between atoms: C_3  and  N_4
REMARK    3  A    between atoms: N_20  and  C_21
REMARK                            x       y       z     vdW  Elec       q    Type
REMARK                         _______ _______ _______ _____ _____    ______ ____
ROOT
ATOM      1  N   UNL     1      -0.547  10.751  19.187  0.00  0.00    +0.000 N 
ATOM      2  C   UNL     1       0.455   9.756  19.024  0.00  0.00    +0.000 A 
ATOM      3  C   UNL     1       1.195   9.596  17.836  0.00  0.00    +0.000 A 
ATOM      4  C   UNL     1       2.237   8.661  17.721  0.00  0.00    +0.000 A 
ATOM      5  C   UNL     1       2.585   7.855  18.796  0.00  0.00    +0.000 A 
ATOM      6  C   UNL     1       1.885   7.981  19.986  0.00  0.00    +0.000 A 
ATOM      7  C   UNL     1       0.844   8.916  20.078  0.00  0.00    +0.000 A 
ATOM      8  S   UNL     1       0.032   9.091  21.618  0.00  0.00    +0.000 S 
ATOM      9  O   UNL     1       1.057   8.991  22.646  0.00  0.00    +0.000 OA
ATOM     10  O   UNL     1      -1.105   8.196  21.615  0.00  0.00    +0.000 OA
ATOM     11  C   UNL     1      -0.569  10.734  21.653  0.00  0.00    +0.000 A 
ATOM     12  C   UNL     1      -0.681  11.380  22.895  0.00  0.00    +0.000 A 
ATOM     13  C   UNL     1      -1.224  12.654  22.952  0.00  0.00    +0.000 A 
ATOM     14  C   UNL     1      -1.696  13.237  21.785  0.00  0.00    +0.000 A 
ATOM     15  C   UNL     1      -1.553  12.582  20.550  0.00  0.00    +0.000 A 
ATOM     16  C   UNL     1      -0.917  11.331  20.433  0.00  0.00    +0.000 A 
ENDROOT
BRANCH   1  17
ATOM     17  C   UNL     1      -1.276  11.198  17.971  0.00  0.00    +0.000 C 
BRANCH  17  19
ATOM     18  O   UNL     1      -3.072   9.561  17.989  0.00  0.00    +0.000 OA
ATOM     19  C   UNL     1      -2.741  10.744  17.969  0.00  0.00    +0.000 C 
ATOM     20  N   UNL     1      -3.655  11.785  18.026  0.00  0.00    +0.000 N 
ATOM     21  H   UNL     1      -3.346  12.687  17.694  0.00  0.00    +0.000 HD
BRANCH  20  22
ATOM     22  C   UNL     1      -5.100  11.545  18.084  0.00  0.00    +0.000 C 
ATOM     23  C   UNL     1      -5.616  11.672  19.524  0.00  0.00    +0.000 C 
ATOM     24  C   UNL     1      -5.486  13.048  20.173  0.00  0.00    +0.000 C 
ATOM     25  C   UNL     1      -6.551  14.066  19.783  0.00  0.00    +0.000 C 
ATOM     26  C   UNL     1      -6.728  14.354  18.297  0.00  0.00    +0.000 C 
ATOM     27  C   UNL     1      -7.061  13.138  17.438  0.00  0.00    +0.000 C 
ATOM     28  C   UNL     1      -5.826  12.357  17.004  0.00  0.00    +0.000 C 
ENDBRANCH  20  22
ENDBRANCH  17  19
ENDBRANCH   1  17
TORSDOF 3
ENDMDL
MODEL 7
REMARK VINA RESULT:      -6.9      4.368      7.837
REMARK  Name = 
REMARK  3 active torsions:
REMARK  status: ('A' for Active; 'I' for Inactive)
REMARK    1  A    between atoms: C_2  and  C_3
REMARK    2  A    between atoms: C_3  and  N_4
REMARK    3  A    between atoms: N_20  and  C_21
REMARK                            x       y       z     vdW  Elec       q    Type
REMARK                         _______ _______ _______ _____ _____    ______ ____
ROOT
ATOM      1  N   UNL     1      -1.695  12.969  21.612  0.00  0.00    +0.000 N 
ATOM      2  C   UNL     1      -1.265  13.873  20.604  0.00  0.00    +0.000 A 
ATOM      3  C   UNL     1      -1.345  15.274  20.741  0.00  0.00    +0.000 A 
ATOM      4  C   UNL     1      -0.840  16.153  19.769  0.00  0.00    +0.000 A 
ATOM      5  C   UNL     1      -0.229  15.664  18.623  0.00  0.00    +0.000 A 
ATOM      6  C   UNL     1      -0.127  14.293  18.448  0.00  0.00    +0.000 A 
ATOM      7  C   UNL     1      -0.641  13.432  19.428  0.00  0.00    +0.000 A 
ATOM      8  S   UNL     1      -0.430  11.710  19.200  0.00  0.00    +0.000 S 
ATOM      9  O   UNL     1       0.903  11.521  18.646  0.00  0.00    +0.000 OA
ATOM     10  O   UNL     1      -1.599  11.216  18.506  0.00  0.00    +0.000 OA
ATOM     11  C   UNL     1      -0.419  11.017  20.807  0.00  0.00    +0.000 A 
ATOM     12  C   UNL     1       0.330   9.851  21.029  0.00  0.00    +0.000 A 
ATOM     13  C   UNL     1       0.294   9.245  22.275  0.00  0.00    +0.000 A 
ATOM     14  C   UNL     1      -0.531   9.777  23.257  0.00  0.00    +0.000 A 
ATOM     15  C   UNL     1      -1.255  10.957  23.021  0.00  0.00    +0.000 A 
ATOM     16  C   UNL     1      -1.168  11.660  21.804  0.00  0.00    +0.000 A 
ENDROOT
BRANCH   1  17
ATOM     17  C   UNL     1      -2.789  13.413  22.515  0.00  0.00    +0.000 C 
BRANCH  17  19
ATOM     18  O   UNL     1      -4.844  12.232  23.048  0.00  0.00    +0.000 OA
ATOM     19  C   UNL     1      -4.127  12.737  22.188  0.00  0.00    +0.000 C 
ATOM     20  N   UNL     1      -4.491  12.822  20.853  0.00  0.00    +0.000 N 
ATOM     21  H   UNL     1      -3.749  12.952  20.181  0.00  0.00    +0.000 HD
BRANCH  20  22
ATOM     22  C   UNL     1      -5.761  12.279  20.361  0.00  0.00    +0.000 C 
ATOM     23  C   UNL     1      -6.832  13.376  20.291  0.00  0.00    +0.000 C 
ATOM     24  C   UNL     1      -6.566  14.522  19.317  0.00  0.00    +0.000 C 
ATOM     25  C   UNL     1      -6.876  14.232  17.854  0.00  0.00    +0.000 C 
ATOM     26  C   UNL     1      -6.196  13.023  17.224  0.00  0.00    +0.000 C 
ATOM     27  C   UNL     1      -6.466  11.693  17.920  0.00  0.00    +0.000 C 
ATOM     28  C   UNL     1      -5.536  11.436  19.100  0.00  0.00    +0.000 C 
ENDBRANCH  20  22
ENDBRANCH  17  19
ENDBRANCH   1  17
TORSDOF 3
ENDMDL
MODEL 8
REMARK VINA RESULT:      -6.8      4.256      7.626
REMARK  Name = 
REMARK  3 active torsions:
REMARK  status: ('A' for Active; 'I' for Inactive)
REMARK    1  A    between atoms: C_2  and  C_3
REMARK    2  A    between atoms: C_3  and  N_4
REMARK    3  A    between atoms: N_20  and  C_21
REMARK                            x       y       z     vdW  Elec       q    Type
REMARK                         _______ _______ _______ _____ _____    ______ ____
ROOT
ATOM      1  N   UNL     1      -1.494  12.844  21.885  0.00  0.00    +0.000 N 
ATOM      2  C   UNL     1      -1.105  13.799  20.907  0.00  0.00    +0.000 A 
ATOM      3  C   UNL     1      -1.058  15.185  21.160  0.00  0.00    +0.000 A 
ATOM      4  C   UNL     1      -0.592  16.106  20.207  0.00  0.00    +0.000 A 
ATOM      5  C   UNL     1      -0.149  15.675  18.965  0.00  0.00    +0.000 A 
ATOM      6  C   UNL     1      -0.175  14.320  18.674  0.00  0.00    +0.000 A 
ATOM      7  C   UNL     1      -0.649  13.417  19.637  0.00  0.00    +0.000 A 
ATOM      8  S   UNL     1      -0.601  11.710  19.255  0.00  0.00    +0.000 S 
ATOM      9  O   UNL     1       0.645  11.475  18.540  0.00  0.00    +0.000 OA
ATOM     10  O   UNL     1      -1.874  11.361  18.662  0.00  0.00    +0.000 OA
ATOM     11  C   UNL     1      -0.473  10.883  20.792  0.00  0.00    +0.000 A 
ATOM     12  C   UNL     1       0.202   9.653  20.836  0.00  0.00    +0.000 A 
ATOM     13  C   UNL     1       0.251   8.947  22.028  0.00  0.00    +0.000 A 
ATOM     14  C   UNL     1      -0.417   9.449  23.136  0.00  0.00    +0.000 A 
ATOM     15  C   UNL     1      -1.066  10.694  23.075  0.00  0.00    +0.000 A 
ATOM     16  C   UNL     1      -1.055  11.490  21.913  0.00  0.00    +0.000 A 
ENDROOT
BRANCH   1  17
ATOM     17  C   UNL     1      -2.446  13.286  22.937  0.00  0.00    +0.000 C 
BRANCH  17  19
ATOM     18  O   UNL     1      -4.205  14.894  22.464  0.00  0.00    +0.000 OA
ATOM     19  C   UNL     1      -3.790  13.743  22.355  0.00  0.00    +0.000 C 
ATOM     20  N   UNL     1      -4.451  12.766  21.627  0.00  0.00    +0.000 N 
ATOM     21  H   UNL     1      -4.229  11.804  21.839  0.00  0.00    +0.000 HD
BRANCH  20  22
ATOM     22  C   UNL     1      -5.725  13.032  20.953  0.00  0.00    +0.000 C 
ATOM     23  C   UNL     1      -5.575  12.894  19.431  0.00  0.00    +0.000 C 
ATOM     24  C   UNL     1      -5.210  11.506  18.908  0.00  0.00    +0.000 C 
ATOM     25  C   UNL     1      -6.362  10.514  18.807  0.00  0.00    +0.000 C 
ATOM     26  C   UNL     1      -7.168  10.251  20.073  0.00  0.00    +0.000 C 
ATOM     27  C   UNL     1      -7.809  11.485  20.700  0.00  0.00    +0.000 C 
ATOM     28  C   UNL     1      -6.863  12.250  21.619  0.00  0.00    +0.000 C 
ENDBRANCH  20  22
ENDBRANCH  17  19
ENDBRANCH   1  17
TORSDOF 3
ENDMDL
MODEL 9
REMARK VINA RESULT:      -6.6      4.345      8.208
REMARK  Name = 
REMARK  3 active torsions:
REMARK  status: ('A' for Active; 'I' for Inactive)
REMARK    1  A    between atoms: C_2  and  C_3
REMARK    2  A    between atoms: C_3  and  N_4
REMARK    3  A    between atoms: N_20  and  C_21
REMARK                            x       y       z     vdW  Elec       q    Type
REMARK                         _______ _______ _______ _____ _____    ______ ____
ROOT
ATOM      1  N   UNL     1      -1.395  12.803  21.954  0.00  0.00    +0.000 N 
ATOM      2  C   UNL     1      -1.069  13.731  20.928  0.00  0.00    +0.000 A 
ATOM      3  C   UNL     1      -0.960  15.118  21.151  0.00  0.00    +0.000 A 
ATOM      4  C   UNL     1      -0.556  16.011  20.144  0.00  0.00    +0.000 A 
ATOM      5  C   UNL     1      -0.238  15.547  18.875  0.00  0.00    +0.000 A 
ATOM      6  C   UNL     1      -0.328  14.189  18.613  0.00  0.00    +0.000 A 
ATOM      7  C   UNL     1      -0.739  13.316  19.630  0.00  0.00    +0.000 A 
ATOM      8  S   UNL     1      -0.773  11.602  19.276  0.00  0.00    +0.000 S 
ATOM      9  O   UNL     1       0.397  11.320  18.457  0.00  0.00    +0.000 OA
ATOM     10  O   UNL     1      -2.103  11.282  18.805  0.00  0.00    +0.000 OA
ATOM     11  C   UNL     1      -0.531  10.796  20.811  0.00  0.00    +0.000 A 
ATOM     12  C   UNL     1       0.110   9.547  20.817  0.00  0.00    +0.000 A 
ATOM     13  C   UNL     1       0.246   8.859  22.012  0.00  0.00    +0.000 A 
ATOM     14  C   UNL     1      -0.307   9.398  23.165  0.00  0.00    +0.000 A 
ATOM     15  C   UNL     1      -0.923  10.660  23.140  0.00  0.00    +0.000 A 
ATOM     16  C   UNL     1      -0.994  11.438  21.968  0.00  0.00    +0.000 A 
ENDROOT
BRANCH   1  17
ATOM     17  C   UNL     1      -2.236  13.289  23.079  0.00  0.00    +0.000 C 
BRANCH  17  19
ATOM     18  O   UNL     1      -4.111  12.010  23.947  0.00  0.00    +0.000 OA
ATOM     19  C   UNL     1      -3.655  12.705  23.043  0.00  0.00    +0.000 C 
ATOM     20  N   UNL     1      -4.401  13.101  21.944  0.00  0.00    +0.000 N 
ATOM     21  H   UNL     1      -3.891  13.389  21.121  0.00  0.00    +0.000 HD
BRANCH  20  22
ATOM     22  C   UNL     1      -5.795  12.686  21.764  0.00  0.00    +0.000 C 
ATOM     23  C   UNL     1      -6.755  13.825  22.134  0.00  0.00    +0.000 C 
ATOM     24  C   UNL     1      -6.674  15.086  21.275  0.00  0.00    +0.000 C 
ATOM     25  C   UNL     1      -7.393  15.019  19.933  0.00  0.00    +0.000 C 
ATOM     26  C   UNL     1      -7.007  13.884  18.993  0.00  0.00    +0.000 C 
ATOM     27  C   UNL     1      -7.182  12.482  19.565  0.00  0.00    +0.000 C 
ATOM     28  C   UNL     1      -5.989  12.022  20.396  0.00  0.00    +0.000 C 
ENDBRANCH  20  22
ENDBRANCH  17  19
ENDBRANCH   1  17
TORSDOF 3
ENDMDL
