MODEL 1
REMARK VINA RESULT:      -7.2      0.000      0.000
REMARK  Name = 
REMARK  7 active torsions:
REMARK  status: ('A' for Active; 'I' for Inactive)
REMARK    1  A    between atoms: C_1  and  O_2
REMARK    2  A    between atoms: O_2  and  C_3
REMARK    3  A    between atoms: C_5  and  C_6
REMARK    4  A    between atoms: C_9  and  N_10
REMARK    5  A    between atoms: C_13  and  O_14
REMARK    6  A    between atoms: O_14  and  C_15
REMARK    7  A    between atoms: C_19  and  N_20
REMARK                            x       y       z     vdW  Elec       q    Type
REMARK                         _______ _______ _______ _____ _____    ______ ____
ROOT
ATOM      1  C   UNL     1       5.338   6.038  16.791  0.00  0.00    +0.000 A 
ATOM      2  C   UNL     1       4.439   6.871  17.489  0.00  0.00    +0.000 A 
ATOM      3  C   UNL     1       3.269   6.389  18.092  0.00  0.00    +0.000 A 
ATOM      4  C   UNL     1       2.936   5.057  17.829  0.00  0.00    +0.000 A 
ATOM      5  C   UNL     1       3.793   4.225  17.101  0.00  0.00    +0.000 A 
ATOM      6  C   UNL     1       5.053   4.666  16.641  0.00  0.00    +0.000 A 
ENDROOT
BRANCH   3   7
ATOM      7  C   UNL     1       2.495   7.206  19.054  0.00  0.00    +0.000 A 
ATOM      8  C   UNL     1       2.018   6.649  20.251  0.00  0.00    +0.000 A 
ATOM      9  C   UNL     1       1.140   7.351  21.081  0.00  0.00    +0.000 A 
ATOM     10  C   UNL     1       0.694   8.637  20.750  0.00  0.00    +0.000 A 
ATOM     11  C   UNL     1       1.183   9.223  19.559  0.00  0.00    +0.000 A 
ATOM     12  C   UNL     1       2.093   8.519  18.752  0.00  0.00    +0.000 A 
BRANCH  10  13
ATOM     13  N   UNL     1      -0.298   9.180  21.597  0.00  0.00    +0.000 NA
ATOM     14  C   UNL     1       0.052   9.438  22.687  0.00  0.00    +0.000 C 
ATOM     15  O   UNL     1       0.364   9.710  23.789  0.00  0.00    +0.000 OA
ENDBRANCH  10  13
BRANCH  11  16
ATOM     16  O   UNL     1       0.688  10.461  19.231  0.00  0.00    +0.000 OA
ATOM     17  C   UNL     1       1.548  11.362  18.544  0.00  0.00    +0.000 C 
ENDBRANCH  11  16
ENDBRANCH   3   7
BRANCH   6  18
ATOM     18  N   UNL     1       5.962   3.760  16.039  0.00  0.00    +0.000 NA
ATOM     19  C   UNL     1       5.966   3.783  14.861  0.00  0.00    +0.000 C 
ATOM     20  O   UNL     1       5.976   3.855  13.691  0.00  0.00    +0.000 OA
ENDBRANCH   6  18
BRANCH   1  22
ATOM     21  C   UNL     1       7.456   7.091  17.286  0.00  0.00    +0.000 C 
ATOM     22  O   UNL     1       6.426   6.759  16.377  0.00  0.00    +0.000 OA
ENDBRANCH   1  22
TORSDOF 5
ENDMDL
MODEL 2
REMARK VINA RESULT:      -7.2      1.151      1.151
REMARK  Name = 
REMARK  7 active torsions:
REMARK  status: ('A' for Active; 'I' for Inactive)
REMARK    1  A    between atoms: C_1  and  O_2
REMARK    2  A    between atoms: O_2  and  C_3
REMARK    3  A    between atoms: C_5  and  C_6
REMARK    4  A    between atoms: C_9  and  N_10
REMARK    5  A    between atoms: C_13  and  O_14
REMARK    6  A    between atoms: O_14  and  C_15
REMARK    7  A    between atoms: C_19  and  N_20
REMARK                            x       y       z     vdW  Elec       q    Type
REMARK                         _______ _______ _______ _____ _____    ______ ____
ROOT
ATOM      1  C   UNL     1       5.390   6.539  16.858  0.00  0.00    +0.000 A 
ATOM      2  C   UNL     1       4.444   7.357  17.509  0.00  0.00    +0.000 A 
ATOM      3  C   UNL     1       3.269   6.850  18.081  0.00  0.00    +0.000 A 
ATOM      4  C   UNL     1       2.985   5.503  17.832  0.00  0.00    +0.000 A 
ATOM      5  C   UNL     1       3.891   4.685  17.149  0.00  0.00    +0.000 A 
ATOM      6  C   UNL     1       5.152   5.157  16.724  0.00  0.00    +0.000 A 
ENDROOT
BRANCH   3   7
ATOM      7  C   UNL     1       2.437   7.660  19.000  0.00  0.00    +0.000 A 
ATOM      8  C   UNL     1       2.108   7.185  20.280  0.00  0.00    +0.000 A 
ATOM      9  C   UNL     1       1.184   7.852  21.088  0.00  0.00    +0.000 A 
ATOM     10  C   UNL     1       0.542   9.018  20.652  0.00  0.00    +0.000 A 
ATOM     11  C   UNL     1       0.879   9.524  19.375  0.00  0.00    +0.000 A 
ATOM     12  C   UNL     1       1.837   8.862  18.588  0.00  0.00    +0.000 A 
BRANCH  10  13
ATOM     13  N   UNL     1      -0.471   9.516  21.503  0.00  0.00    +0.000 NA
ATOM     14  C   UNL     1      -0.155   9.693  22.618  0.00  0.00    +0.000 C 
ATOM     15  O   UNL     1       0.123   9.883  23.747  0.00  0.00    +0.000 OA
ENDBRANCH  10  13
BRANCH  11  16
ATOM     16  O   UNL     1       0.198  10.638  18.952  0.00  0.00    +0.000 OA
ATOM     17  C   UNL     1       0.778  11.911  19.205  0.00  0.00    +0.000 C 
ENDBRANCH  11  16
ENDBRANCH   3   7
BRANCH   6  18
ATOM     18  N   UNL     1       6.109   4.268  16.171  0.00  0.00    +0.000 NA
ATOM     19  C   UNL     1       7.139   4.243  16.741  0.00  0.00    +0.000 C 
ATOM     20  O   UNL     1       8.140   4.211  17.352  0.00  0.00    +0.000 OA
ENDBRANCH   6  18
BRANCH   1  22
ATOM     21  C   UNL     1       7.408   7.745  17.419  0.00  0.00    +0.000 C 
ATOM     22  O   UNL     1       6.470   7.286  16.468  0.00  0.00    +0.000 OA
ENDBRANCH   1  22
TORSDOF 5
ENDMDL
MODEL 3
REMARK VINA RESULT:      -7.1      2.995      3.835
REMARK  Name = 
REMARK  7 active torsions:
REMARK  status: ('A' for Active; 'I' for Inactive)
REMARK    1  A    between atoms: C_1  and  O_2
REMARK    2  A    between atoms: O_2  and  C_3
REMARK    3  A    between atoms: C_5  and  C_6
REMARK    4  A    between atoms: C_9  and  N_10
REMARK    5  A    between atoms: C_13  and  O_14
REMARK    6  A    between atoms: O_14  and  C_15
REMARK    7  A    between atoms: C_19  and  N_20
REMARK                            x       y       z     vdW  Elec       q    Type
REMARK                         _______ _______ _______ _____ _____    ______ ____
ROOT
ATOM      1  C   UNL     1       1.487   4.211  19.817  0.00  0.00    +0.000 A 
ATOM      2  C   UNL     1       1.481   5.483  20.425  0.00  0.00    +0.000 A 
ATOM      3  C   UNL     1       1.875   6.648  19.752  0.00  0.00    +0.000 A 
ATOM      4  C   UNL     1       2.443   6.475  18.486  0.00  0.00    +0.000 A 
ATOM      5  C   UNL     1       2.499   5.214  17.883  0.00  0.00    +0.000 A 
ATOM      6  C   UNL     1       1.944   4.067  18.492  0.00  0.00    +0.000 A 
ENDROOT
BRANCH   3   7
ATOM      7  C   UNL     1       1.594   7.996  20.297  0.00  0.00    +0.000 A 
ATOM      8  C   UNL     1       1.487   8.205  21.682  0.00  0.00    +0.000 A 
ATOM      9  C   UNL     1       1.050   9.426  22.201  0.00  0.00    +0.000 A 
ATOM     10  C   UNL     1       0.692  10.489  21.363  0.00  0.00    +0.000 A 
ATOM     11  C   UNL     1       0.816  10.304  19.966  0.00  0.00    +0.000 A 
ATOM     12  C   UNL     1       1.292   9.083  19.459  0.00  0.00    +0.000 A 
BRANCH  10  13
ATOM     13  N   UNL     1       0.133  11.617  22.005  0.00  0.00    +0.000 NA
ATOM     14  C   UNL     1      -0.851  11.419  22.611  0.00  0.00    +0.000 C 
ATOM     15  O   UNL     1      -1.840  11.262  23.231  0.00  0.00    +0.000 OA
ENDBRANCH  10  13
BRANCH  11  16
ATOM     16  O   UNL     1       0.410  11.344  19.166  0.00  0.00    +0.000 OA
ATOM     17  C   UNL     1      -0.813  11.200  18.455  0.00  0.00    +0.000 C 
ENDBRANCH  11  16
ENDBRANCH   3   7
BRANCH   6  18
ATOM     18  N   UNL     1       1.881   2.835  17.793  0.00  0.00    +0.000 NA
ATOM     19  C   UNL     1       2.763   2.091  18.034  0.00  0.00    +0.000 C 
ATOM     20  O   UNL     1       3.631   1.357  18.323  0.00  0.00    +0.000 OA
ENDBRANCH   6  18
BRANCH   1  22
ATOM     21  C   UNL     1       1.821   2.629  21.614  0.00  0.00    +0.000 C 
ATOM     22  O   UNL     1       0.981   3.274  20.678  0.00  0.00    +0.000 OA
ENDBRANCH   1  22
TORSDOF 5
ENDMDL
MODEL 4
REMARK VINA RESULT:      -7.1      1.817      7.868
REMARK  Name = 
REMARK  7 active torsions:
REMARK  status: ('A' for Active; 'I' for Inactive)
REMARK    1  A    between atoms: C_1  and  O_2
REMARK    2  A    between atoms: O_2  and  C_3
REMARK    3  A    between atoms: C_5  and  C_6
REMARK    4  A    between atoms: C_9  and  N_10
REMARK    5  A    between atoms: C_13  and  O_14
REMARK    6  A    between atoms: O_14  and  C_15
REMARK    7  A    between atoms: C_19  and  N_20
REMARK                            x       y       z     vdW  Elec       q    Type
REMARK                         _______ _______ _______ _____ _____    ______ ____
ROOT
ATOM      1  C   UNL     1       1.152   8.943  20.459  0.00  0.00    +0.000 A 
ATOM      2  C   UNL     1       1.854   7.846  19.918  0.00  0.00    +0.000 A 
ATOM      3  C   UNL     1       2.257   7.790  18.577  0.00  0.00    +0.000 A 
ATOM      4  C   UNL     1       1.785   8.808  17.741  0.00  0.00    +0.000 A 
ATOM      5  C   UNL     1       1.051   9.883  18.251  0.00  0.00    +0.000 A 
ATOM      6  C   UNL     1       0.793  10.026  19.632  0.00  0.00    +0.000 A 
ENDROOT
BRANCH   3   7
ATOM      7  C   UNL     1       3.229   6.782  18.096  0.00  0.00    +0.000 A 
ATOM      8  C   UNL     1       4.248   7.135  17.197  0.00  0.00    +0.000 A 
ATOM      9  C   UNL     1       5.059   6.166  16.600  0.00  0.00    +0.000 A 
ATOM     10  C   UNL     1       4.885   4.803  16.868  0.00  0.00    +0.000 A 
ATOM     11  C   UNL     1       3.879   4.431  17.790  0.00  0.00    +0.000 A 
ATOM     12  C   UNL     1       3.095   5.418  18.410  0.00  0.00    +0.000 A 
BRANCH  10  13
ATOM     13  N   UNL     1       5.673   3.919  16.096  0.00  0.00    +0.000 NA
ATOM     14  C   UNL     1       6.664   4.371  15.663  0.00  0.00    +0.000 C 
ATOM     15  O   UNL     1       7.669   4.788  15.210  0.00  0.00    +0.000 OA
ENDBRANCH  10  13
BRANCH  11  16
ATOM     16  O   UNL     1       3.695   3.085  17.995  0.00  0.00    +0.000 OA
ATOM     17  C   UNL     1       2.424   2.531  17.682  0.00  0.00    +0.000 C 
ENDBRANCH  11  16
ENDBRANCH   3   7
BRANCH   6  18
ATOM     18  N   UNL     1       0.178  11.199  20.136  0.00  0.00    +0.000 NA
ATOM     19  C   UNL     1      -0.897  11.413  19.702  0.00  0.00    +0.000 C 
ATOM     20  O   UNL     1      -1.979  11.578  19.283  0.00  0.00    +0.000 OA
ENDBRANCH   6  18
BRANCH   1  22
ATOM     21  C   UNL     1      -0.346   8.765  22.348  0.00  0.00    +0.000 C 
ATOM     22  O   UNL     1       0.958   8.763  21.802  0.00  0.00    +0.000 OA
ENDBRANCH   1  22
TORSDOF 5
ENDMDL
MODEL 5
REMARK VINA RESULT:      -7.0      1.386      2.207
REMARK  Name = 
REMARK  7 active torsions:
REMARK  status: ('A' for Active; 'I' for Inactive)
REMARK    1  A    between atoms: C_1  and  O_2
REMARK    2  A    between atoms: O_2  and  C_3
REMARK    3  A    between atoms: C_5  and  C_6
REMARK    4  A    between atoms: C_9  and  N_10
REMARK    5  A    between atoms: C_13  and  O_14
REMARK    6  A    between atoms: O_14  and  C_15
REMARK    7  A    between atoms: C_19  and  N_20
REMARK                            x       y       z     vdW  Elec       q    Type
REMARK                         _______ _______ _______ _____ _____    ______ ____
ROOT
ATOM      1  C   UNL     1       3.998   4.429  17.156  0.00  0.00    +0.000 A 
ATOM      2  C   UNL     1       3.362   5.241  18.117  0.00  0.00    +0.000 A 
ATOM      3  C   UNL     1       3.495   6.636  18.140  0.00  0.00    +0.000 A 
ATOM      4  C   UNL     1       4.431   7.188  17.260  0.00  0.00    +0.000 A 
ATOM      5  C   UNL     1       5.105   6.393  16.327  0.00  0.00    +0.000 A 
ATOM      6  C   UNL     1       4.841   5.012  16.190  0.00  0.00    +0.000 A 
ENDROOT
BRANCH   3   7
ATOM      7  C   UNL     1       2.607   7.490  18.962  0.00  0.00    +0.000 A 
ATOM      8  C   UNL     1       2.217   7.093  20.251  0.00  0.00    +0.000 A 
ATOM      9  C   UNL     1       1.245   7.797  20.966  0.00  0.00    +0.000 A 
ATOM     10  C   UNL     1       0.613   8.923  20.423  0.00  0.00    +0.000 A 
ATOM     11  C   UNL     1       1.010   9.351  19.135  0.00  0.00    +0.000 A 
ATOM     12  C   UNL     1       2.015   8.655  18.442  0.00  0.00    +0.000 A 
BRANCH  10  13
ATOM     13  N   UNL     1      -0.449   9.459  21.186  0.00  0.00    +0.000 NA
ATOM     14  C   UNL     1      -0.176   9.775  22.282  0.00  0.00    +0.000 C 
ATOM     15  O   UNL     1       0.057  10.105  23.388  0.00  0.00    +0.000 OA
ENDBRANCH  10  13
BRANCH  11  16
ATOM     16  O   UNL     1       0.338  10.425  18.606  0.00  0.00    +0.000 OA
ATOM     17  C   UNL     1      -0.822  10.167  17.825  0.00  0.00    +0.000 C 
ENDBRANCH  11  16
ENDBRANCH   3   7
BRANCH   6  18
ATOM     18  N   UNL     1       5.428   4.264  15.138  0.00  0.00    +0.000 NA
ATOM     19  C   UNL     1       6.427   4.721  14.712  0.00  0.00    +0.000 C 
ATOM     20  O   UNL     1       7.439   5.178  14.335  0.00  0.00    +0.000 OA
ENDBRANCH   6  18
BRANCH   1  22
ATOM     21  C   UNL     1       2.337   2.792  17.792  0.00  0.00    +0.000 C 
ATOM     22  O   UNL     1       3.630   3.121  17.325  0.00  0.00    +0.000 OA
ENDBRANCH   1  22
TORSDOF 5
ENDMDL
MODEL 6
REMARK VINA RESULT:      -7.0      3.233      7.804
REMARK  Name = 
REMARK  7 active torsions:
REMARK  status: ('A' for Active; 'I' for Inactive)
REMARK    1  A    between atoms: C_1  and  O_2
REMARK    2  A    between atoms: O_2  and  C_3
REMARK    3  A    between atoms: C_5  and  C_6
REMARK    4  A    between atoms: C_9  and  N_10
REMARK    5  A    between atoms: C_13  and  O_14
REMARK    6  A    between atoms: O_14  and  C_15
REMARK    7  A    between atoms: C_19  and  N_20
REMARK                            x       y       z     vdW  Elec       q    Type
REMARK                         _______ _______ _______ _____ _____    ______ ____
ROOT
ATOM      1  C   UNL     1       2.760   4.203  19.733  0.00  0.00    +0.000 A 
ATOM      2  C   UNL     1       3.818   4.574  18.878  0.00  0.00    +0.000 A 
ATOM      3  C   UNL     1       4.148   3.854  17.721  0.00  0.00    +0.000 A 
ATOM      4  C   UNL     1       3.482   2.639  17.532  0.00  0.00    +0.000 A 
ATOM      5  C   UNL     1       2.458   2.231  18.393  0.00  0.00    +0.000 A 
ATOM      6  C   UNL     1       2.011   3.041  19.460  0.00  0.00    +0.000 A 
ENDROOT
BRANCH   3   7
ATOM      7  C   UNL     1       5.058   4.407  16.692  0.00  0.00    +0.000 A 
ATOM      8  C   UNL     1       5.181   3.793  15.435  0.00  0.00    +0.000 A 
ATOM      9  C   UNL     1       6.160   4.195  14.523  0.00  0.00    +0.000 A 
ATOM     10  C   UNL     1       7.064   5.220  14.827  0.00  0.00    +0.000 A 
ATOM     11  C   UNL     1       6.940   5.865  16.079  0.00  0.00    +0.000 A 
ATOM     12  C   UNL     1       5.928   5.475  16.972  0.00  0.00    +0.000 A 
BRANCH  10  13
ATOM     13  N   UNL     1       8.092   5.434  13.880  0.00  0.00    +0.000 NA
ATOM     14  C   UNL     1       7.820   5.171  12.769  0.00  0.00    +0.000 C 
ATOM     15  O   UNL     1       7.587   4.918  11.643  0.00  0.00    +0.000 OA
ENDBRANCH  10  13
BRANCH  11  16
ATOM     16  O   UNL     1       7.872   6.830  16.372  0.00  0.00    +0.000 OA
ATOM     17  C   UNL     1       7.628   7.675  17.490  0.00  0.00    +0.000 C 
ENDBRANCH  11  16
ENDBRANCH   3   7
BRANCH   6  18
ATOM     18  N   UNL     1       0.874   2.671  20.223  0.00  0.00    +0.000 NA
ATOM     19  C   UNL     1       1.086   2.516  21.371  0.00  0.00    +0.000 C 
ATOM     20  O   UNL     1       1.318   2.406  22.516  0.00  0.00    +0.000 OA
ENDBRANCH   6  18
BRANCH   1  22
ATOM     21  C   UNL     1       1.778   6.249  20.565  0.00  0.00    +0.000 C 
ATOM     22  O   UNL     1       2.618   5.124  20.735  0.00  0.00    +0.000 OA
ENDBRANCH   1  22
TORSDOF 5
ENDMDL
MODEL 7
REMARK VINA RESULT:      -7.0      1.690      3.069
REMARK  Name = 
REMARK  7 active torsions:
REMARK  status: ('A' for Active; 'I' for Inactive)
REMARK    1  A    between atoms: C_1  and  O_2
REMARK    2  A    between atoms: O_2  and  C_3
REMARK    3  A    between atoms: C_5  and  C_6
REMARK    4  A    between atoms: C_9  and  N_10
REMARK    5  A    between atoms: C_13  and  O_14
REMARK    6  A    between atoms: O_14  and  C_15
REMARK    7  A    between atoms: C_19  and  N_20
REMARK                            x       y       z     vdW  Elec       q    Type
REMARK                         _______ _______ _______ _____ _____    ______ ____
ROOT
ATOM      1  C   UNL     1       4.365   4.226  17.640  0.00  0.00    +0.000 A 
ATOM      2  C   UNL     1       3.587   5.210  18.284  0.00  0.00    +0.000 A 
ATOM      3  C   UNL     1       3.643   6.567  17.940  0.00  0.00    +0.000 A 
ATOM      4  C   UNL     1       4.638   6.940  17.031  0.00  0.00    +0.000 A 
ATOM      5  C   UNL     1       5.451   5.984  16.413  0.00  0.00    +0.000 A 
ATOM      6  C   UNL     1       5.277   4.599  16.632  0.00  0.00    +0.000 A 
ENDROOT
BRANCH   3   7
ATOM      7  C   UNL     1       2.627   7.534  18.415  0.00  0.00    +0.000 A 
ATOM      8  C   UNL     1       2.196   8.588  17.593  0.00  0.00    +0.000 A 
ATOM      9  C   UNL     1       1.376   9.606  18.086  0.00  0.00    +0.000 A 
ATOM     10  C   UNL     1       0.955   9.622  19.422  0.00  0.00    +0.000 A 
ATOM     11  C   UNL     1       1.360   8.556  20.258  0.00  0.00    +0.000 A 
ATOM     12  C   UNL     1       2.156   7.520  19.740  0.00  0.00    +0.000 A 
BRANCH  10  13
ATOM     13  N   UNL     1       0.249  10.776  19.830  0.00  0.00    +0.000 NA
ATOM     14  C   UNL     1      -0.760  10.978  19.267  0.00  0.00    +0.000 C 
ATOM     15  O   UNL     1      -1.779  11.215  18.725  0.00  0.00    +0.000 OA
ENDBRANCH  10  13
BRANCH  11  16
ATOM     16  O   UNL     1       0.978   8.623  21.575  0.00  0.00    +0.000 OA
ATOM     17  C   UNL     1      -0.380   8.341  21.890  0.00  0.00    +0.000 C 
ENDBRANCH  11  16
ENDBRANCH   3   7
BRANCH   6  18
ATOM     18  N   UNL     1       6.012   3.649  15.880  0.00  0.00    +0.000 NA
ATOM     19  C   UNL     1       6.014   3.842  14.717  0.00  0.00    +0.000 C 
ATOM     20  O   UNL     1       6.030   4.082  13.569  0.00  0.00    +0.000 OA
ENDBRANCH   6  18
BRANCH   1  22
ATOM     21  C   UNL     1       2.837   2.358  17.761  0.00  0.00    +0.000 C 
ATOM     22  O   UNL     1       4.051   2.984  18.123  0.00  0.00    +0.000 OA
ENDBRANCH   1  22
TORSDOF 5
ENDMDL
MODEL 8
REMARK VINA RESULT:      -7.0      0.724      7.769
REMARK  Name = 
REMARK  7 active torsions:
REMARK  status: ('A' for Active; 'I' for Inactive)
REMARK    1  A    between atoms: C_1  and  O_2
REMARK    2  A    between atoms: O_2  and  C_3
REMARK    3  A    between atoms: C_5  and  C_6
REMARK    4  A    between atoms: C_9  and  N_10
REMARK    5  A    between atoms: C_13  and  O_14
REMARK    6  A    between atoms: O_14  and  C_15
REMARK    7  A    between atoms: C_19  and  N_20
REMARK                            x       y       z     vdW  Elec       q    Type
REMARK                         _______ _______ _______ _____ _____    ______ ____
ROOT
ATOM      1  C   UNL     1       0.809   9.512  19.325  0.00  0.00    +0.000 A 
ATOM      2  C   UNL     1       1.755   8.794  18.563  0.00  0.00    +0.000 A 
ATOM      3  C   UNL     1       2.366   7.620  19.022  0.00  0.00    +0.000 A 
ATOM      4  C   UNL     1       2.123   7.270  20.354  0.00  0.00    +0.000 A 
ATOM      5  C   UNL     1       1.221   7.994  21.141  0.00  0.00    +0.000 A 
ATOM      6  C   UNL     1       0.475   9.076  20.622  0.00  0.00    +0.000 A 
ENDROOT
BRANCH   3   7
ATOM      7  C   UNL     1       3.127   6.731  18.115  0.00  0.00    +0.000 A 
ATOM      8  C   UNL     1       2.756   5.387  17.946  0.00  0.00    +0.000 A 
ATOM      9  C   UNL     1       3.562   4.494  17.236  0.00  0.00    +0.000 A 
ATOM     10  C   UNL     1       4.778   4.899  16.670  0.00  0.00    +0.000 A 
ATOM     11  C   UNL     1       5.155   6.255  16.810  0.00  0.00    +0.000 A 
ATOM     12  C   UNL     1       4.317   7.150  17.495  0.00  0.00    +0.000 A 
BRANCH  10  13
ATOM     13  N   UNL     1       5.564   3.872  16.102  0.00  0.00    +0.000 NA
ATOM     14  C   UNL     1       5.702   3.923  14.938  0.00  0.00    +0.000 C 
ATOM     15  O   UNL     1       5.864   3.940  13.772  0.00  0.00    +0.000 OA
ENDBRANCH  10  13
BRANCH  11  16
ATOM     16  O   UNL     1       6.375   6.614  16.291  0.00  0.00    +0.000 OA
ATOM     17  C   UNL     1       7.420   6.930  17.202  0.00  0.00    +0.000 C 
ENDBRANCH  11  16
ENDBRANCH   3   7
BRANCH   6  18
ATOM     18  N   UNL     1      -0.539   9.693  21.396  0.00  0.00    +0.000 NA
ATOM     19  C   UNL     1      -0.268   9.833  22.535  0.00  0.00    +0.000 C 
ATOM     20  O   UNL     1       0.046   9.994  23.653  0.00  0.00    +0.000 OA
ENDBRANCH   6  18
BRANCH   1  22
ATOM     21  C   UNL     1      -0.938  10.486  17.969  0.00  0.00    +0.000 C 
ATOM     22  O   UNL     1       0.323  10.567  18.601  0.00  0.00    +0.000 OA
ENDBRANCH   1  22
TORSDOF 5
ENDMDL
MODEL 9
REMARK VINA RESULT:      -7.0      1.936      7.823
REMARK  Name = 
REMARK  7 active torsions:
REMARK  status: ('A' for Active; 'I' for Inactive)
REMARK    1  A    between atoms: C_1  and  O_2
REMARK    2  A    between atoms: O_2  and  C_3
REMARK    3  A    between atoms: C_5  and  C_6
REMARK    4  A    between atoms: C_9  and  N_10
REMARK    5  A    between atoms: C_13  and  O_14
REMARK    6  A    between atoms: O_14  and  C_15
REMARK    7  A    between atoms: C_19  and  N_20
REMARK                            x       y       z     vdW  Elec       q    Type
REMARK                         _______ _______ _______ _____ _____    ______ ____
ROOT
ATOM      1  C   UNL     1       0.774   9.186  20.405  0.00  0.00    +0.000 A 
ATOM      2  C   UNL     1       1.491   8.097  19.866  0.00  0.00    +0.000 A 
ATOM      3  C   UNL     1       2.118   8.146  18.614  0.00  0.00    +0.000 A 
ATOM      4  C   UNL     1       1.863   9.278  17.832  0.00  0.00    +0.000 A 
ATOM      5  C   UNL     1       1.118  10.351  18.332  0.00  0.00    +0.000 A 
ATOM      6  C   UNL     1       0.631  10.372  19.658  0.00  0.00    +0.000 A 
ENDROOT
BRANCH   3   7
ATOM      7  C   UNL     1       3.096   7.117  18.191  0.00  0.00    +0.000 A 
ATOM      8  C   UNL     1       4.091   7.415  17.246  0.00  0.00    +0.000 A 
ATOM      9  C   UNL     1       4.905   6.415  16.708  0.00  0.00    +0.000 A 
ATOM     10  C   UNL     1       4.756   5.074  17.082  0.00  0.00    +0.000 A 
ATOM     11  C   UNL     1       3.774   4.759  18.050  0.00  0.00    +0.000 A 
ATOM     12  C   UNL     1       2.988   5.779  18.610  0.00  0.00    +0.000 A 
BRANCH  10  13
ATOM     13  N   UNL     1       5.542   4.145  16.362  0.00  0.00    +0.000 NA
ATOM     14  C   UNL     1       6.700   4.330  16.391  0.00  0.00    +0.000 C 
ATOM     15  O   UNL     1       7.868   4.482  16.395  0.00  0.00    +0.000 OA
ENDBRANCH  10  13
BRANCH  11  16
ATOM     16  O   UNL     1       3.615   3.431  18.359  0.00  0.00    +0.000 OA
ATOM     17  C   UNL     1       4.332   2.914  19.473  0.00  0.00    +0.000 C 
ENDBRANCH  11  16
ENDBRANCH   3   7
BRANCH   6  18
ATOM     18  N   UNL     1       0.011  11.534  20.183  0.00  0.00    +0.000 NA
ATOM     19  C   UNL     1       0.743  12.265  20.747  0.00  0.00    +0.000 C 
ATOM     20  O   UNL     1       1.501  12.993  21.268  0.00  0.00    +0.000 OA
ENDBRANCH   6  18
BRANCH   1  22
ATOM     21  C   UNL     1       1.109   9.237  22.798  0.00  0.00    +0.000 C 
ATOM     22  O   UNL     1       0.337   8.886  21.667  0.00  0.00    +0.000 OA
ENDBRANCH   1  22
TORSDOF 5
ENDMDL
