MODEL 1
REMARK VINA RESULT:      -7.6      0.000      0.000
REMARK  Name = 
REMARK  8 active torsions:
REMARK  status: ('A' for Active; 'I' for Inactive)
REMARK    1  A    between atoms: C_1  and  O_2
REMARK    2  A    between atoms: O_2  and  C_3
REMARK    3  A    between atoms: C_3  and  C_5
REMARK    4  A    between atoms: C_7  and  C_8
REMARK    5  A    between atoms: C_17  and  C_18
REMARK    6  A    between atoms: N_20  and  C_21
REMARK    7  A    between atoms: C_21  and  C_22
REMARK    8  A    between atoms: C_22  and  C_23
REMARK                            x       y       z     vdW  Elec       q    Type
REMARK                         _______ _______ _______ _____ _____    ______ ____
ROOT
ATOM      1  C   UNL     1       2.406   4.543  20.357  0.00  0.00    +0.000 A 
ATOM      2  C   UNL     1       1.824   5.807  20.239  0.00  0.00    +0.000 A 
ATOM      3  C   UNL     1       2.464   6.819  19.527  0.00  0.00    +0.000 A 
ATOM      4  N   UNL     1       3.672   6.658  18.932  0.00  0.00    +0.000 NA
ATOM      5  C   UNL     1       4.192   5.413  19.053  0.00  0.00    +0.000 A 
ATOM      6  C   UNL     1       3.641   4.325  19.729  0.00  0.00    +0.000 A 
ATOM      7  C   UNL     1       4.578   3.270  19.529  0.00  0.00    +0.000 A 
ATOM      8  C   UNL     1       4.523   1.850  19.963  0.00  0.00    +0.000 C 
ATOM      9  N   UNL     1       5.642   3.675  18.819  0.00  0.00    +0.000 NA
ATOM     10  N   UNL     1       5.380   4.965  18.538  0.00  0.00    +0.000 N 
ENDROOT
BRANCH   3  11
ATOM     11  C   UNL     1       1.847   8.158  19.474  0.00  0.00    +0.000 A 
ATOM     12  C   UNL     1       1.791   8.902  18.281  0.00  0.00    +0.000 A 
ATOM     13  C   UNL     1       1.050  10.078  18.204  0.00  0.00    +0.000 A 
ATOM     14  C   UNL     1       0.404  10.512  19.344  0.00  0.00    +0.000 A 
ATOM     15  N   UNL     1       0.470   9.871  20.530  0.00  0.00    +0.000 NA
ATOM     16  C   UNL     1       1.190   8.718  20.567  0.00  0.00    +0.000 A 
ENDBRANCH   3  11
BRANCH   1  17
ATOM     17  C   UNL     1       1.752   3.535  21.204  0.00  0.00    +0.000 C 
ATOM     18  O   UNL     1       2.174   3.173  22.289  0.00  0.00    +0.000 OA
BRANCH  17  20
ATOM     19  C   UNL     1       0.830   2.463  19.346  0.00  0.00    +0.000 C 
ATOM     20  O   UNL     1       0.615   3.100  20.604  0.00  0.00    +0.000 OA
ENDBRANCH  17  20
ENDBRANCH   1  17
BRANCH  10  21
ATOM     21  C   UNL     1       6.348   5.719  17.766  0.00  0.00    +0.000 C 
BRANCH  21  22
ATOM     22  C   UNL     1       7.290   4.838  16.953  0.00  0.00    +0.000 C 
BRANCH  22  23
ATOM     23  C   UNL     1       7.087   5.014  15.513  0.00  0.00    +0.000 C 
ATOM     24  N   UNL     1       6.930   5.164  14.371  0.00  0.00    +0.000 NA
ENDBRANCH  22  23
ENDBRANCH  21  22
ENDBRANCH  10  21
TORSDOF 6
ENDMDL
MODEL 2
REMARK VINA RESULT:      -7.6      3.067      4.875
REMARK  Name = 
REMARK  8 active torsions:
REMARK  status: ('A' for Active; 'I' for Inactive)
REMARK    1  A    between atoms: C_1  and  O_2
REMARK    2  A    between atoms: O_2  and  C_3
REMARK    3  A    between atoms: C_3  and  C_5
REMARK    4  A    between atoms: C_7  and  C_8
REMARK    5  A    between atoms: C_17  and  C_18
REMARK    6  A    between atoms: N_20  and  C_21
REMARK    7  A    between atoms: C_21  and  C_22
REMARK    8  A    between atoms: C_22  and  C_23
REMARK                            x       y       z     vdW  Elec       q    Type
REMARK                         _______ _______ _______ _____ _____    ______ ____
ROOT
ATOM      1  C   UNL     1       4.378   6.432  17.122  0.00  0.00    +0.000 A 
ATOM      2  C   UNL     1       3.675   7.505  17.672  0.00  0.00    +0.000 A 
ATOM      3  C   UNL     1       2.511   7.290  18.406  0.00  0.00    +0.000 A 
ATOM      4  N   UNL     1       1.982   6.059  18.614  0.00  0.00    +0.000 NA
ATOM      5  C   UNL     1       2.703   5.044  18.081  0.00  0.00    +0.000 A 
ATOM      6  C   UNL     1       3.882   5.138  17.341  0.00  0.00    +0.000 A 
ATOM      7  C   UNL     1       4.224   3.787  17.043  0.00  0.00    +0.000 A 
ATOM      8  C   UNL     1       5.403   3.237  16.325  0.00  0.00    +0.000 C 
ATOM      9  N   UNL     1       3.317   2.924  17.525  0.00  0.00    +0.000 NA
ATOM     10  N   UNL     1       2.418   3.706  18.152  0.00  0.00    +0.000 N 
ENDROOT
BRANCH   3  11
ATOM     11  C   UNL     1       1.764   8.452  18.923  0.00  0.00    +0.000 A 
ATOM     12  C   UNL     1       1.262   9.451  18.069  0.00  0.00    +0.000 A 
ATOM     13  C   UNL     1       0.409  10.441  18.548  0.00  0.00    +0.000 A 
ATOM     14  C   UNL     1       0.100  10.436  19.893  0.00  0.00    +0.000 A 
ATOM     15  N   UNL     1       0.598   9.537  20.769  0.00  0.00    +0.000 NA
ATOM     16  C   UNL     1       1.417   8.576  20.266  0.00  0.00    +0.000 A 
ENDBRANCH   3  11
BRANCH   1  17
ATOM     17  C   UNL     1       5.542   6.706  16.266  0.00  0.00    +0.000 C 
ATOM     18  O   UNL     1       5.609   6.411  15.085  0.00  0.00    +0.000 OA
BRANCH  17  20
ATOM     19  C   UNL     1       7.380   6.474  17.686  0.00  0.00    +0.000 C 
ATOM     20  O   UNL     1       6.497   7.348  16.985  0.00  0.00    +0.000 OA
ENDBRANCH  17  20
ENDBRANCH   1  17
BRANCH  10  21
ATOM     21  C   UNL     1       1.282   3.079  18.798  0.00  0.00    +0.000 C 
BRANCH  21  22
ATOM     22  C   UNL     1       1.004   3.622  20.194  0.00  0.00    +0.000 C 
BRANCH  22  23
ATOM     23  C   UNL     1       1.906   3.041  21.191  0.00  0.00    +0.000 C 
ATOM     24  N   UNL     1       2.613   2.580  21.991  0.00  0.00    +0.000 NA
ENDBRANCH  22  23
ENDBRANCH  21  22
ENDBRANCH  10  21
TORSDOF 6
ENDMDL
MODEL 3
REMARK VINA RESULT:      -7.5      1.813      6.052
REMARK  Name = 
REMARK  8 active torsions:
REMARK  status: ('A' for Active; 'I' for Inactive)
REMARK    1  A    between atoms: C_1  and  O_2
REMARK    2  A    between atoms: O_2  and  C_3
REMARK    3  A    between atoms: C_3  and  C_5
REMARK    4  A    between atoms: C_7  and  C_8
REMARK    5  A    between atoms: C_17  and  C_18
REMARK    6  A    between atoms: N_20  and  C_21
REMARK    7  A    between atoms: C_21  and  C_22
REMARK    8  A    between atoms: C_22  and  C_23
REMARK                            x       y       z     vdW  Elec       q    Type
REMARK                         _______ _______ _______ _____ _____    ______ ____
ROOT
ATOM      1  C   UNL     1       4.025   3.766  18.477  0.00  0.00    +0.000 A 
ATOM      2  C   UNL     1       4.864   3.693  17.364  0.00  0.00    +0.000 A 
ATOM      3  C   UNL     1       5.064   4.806  16.550  0.00  0.00    +0.000 A 
ATOM      4  N   UNL     1       4.458   6.000  16.766  0.00  0.00    +0.000 NA
ATOM      5  C   UNL     1       3.668   6.035  17.865  0.00  0.00    +0.000 A 
ATOM      6  C   UNL     1       3.403   4.993  18.753  0.00  0.00    +0.000 A 
ATOM      7  C   UNL     1       2.536   5.567  19.728  0.00  0.00    +0.000 A 
ATOM      8  C   UNL     1       1.952   4.969  20.956  0.00  0.00    +0.000 C 
ATOM      9  N   UNL     1       2.255   6.850  19.452  0.00  0.00    +0.000 NA
ATOM     10  N   UNL     1       2.955   7.108  18.331  0.00  0.00    +0.000 N 
ENDROOT
BRANCH   3  11
ATOM     11  C   UNL     1       5.912   4.674  15.350  0.00  0.00    +0.000 A 
ATOM     12  C   UNL     1       5.537   3.864  14.263  0.00  0.00    +0.000 A 
ATOM     13  C   UNL     1       6.253   3.890  13.069  0.00  0.00    +0.000 A 
ATOM     14  C   UNL     1       7.363   4.708  12.997  0.00  0.00    +0.000 A 
ATOM     15  N   UNL     1       7.802   5.463  14.027  0.00  0.00    +0.000 NA
ATOM     16  C   UNL     1       7.072   5.424  15.174  0.00  0.00    +0.000 A 
ENDBRANCH   3  11
BRANCH   1  17
ATOM     17  C   UNL     1       3.757   2.544  19.248  0.00  0.00    +0.000 C 
ATOM     18  O   UNL     1       4.234   2.307  20.345  0.00  0.00    +0.000 OA
BRANCH  17  20
ATOM     19  C   UNL     1       1.523   1.948  18.921  0.00  0.00    +0.000 C 
ATOM     20  O   UNL     1       2.891   1.752  18.566  0.00  0.00    +0.000 OA
ENDBRANCH  17  20
ENDBRANCH   1  17
BRANCH  10  21
ATOM     21  C   UNL     1       2.874   8.434  17.751  0.00  0.00    +0.000 C 
BRANCH  21  22
ATOM     22  C   UNL     1       1.500   9.076  17.902  0.00  0.00    +0.000 C 
BRANCH  22  23
ATOM     23  C   UNL     1       1.599  10.466  18.356  0.00  0.00    +0.000 C 
ATOM     24  N   UNL     1       1.678  11.572  18.704  0.00  0.00    +0.000 NA
ENDBRANCH  22  23
ENDBRANCH  21  22
ENDBRANCH  10  21
TORSDOF 6
ENDMDL
MODEL 4
REMARK VINA RESULT:      -7.5      1.328      1.767
REMARK  Name = 
REMARK  8 active torsions:
REMARK  status: ('A' for Active; 'I' for Inactive)
REMARK    1  A    between atoms: C_1  and  O_2
REMARK    2  A    between atoms: O_2  and  C_3
REMARK    3  A    between atoms: C_3  and  C_5
REMARK    4  A    between atoms: C_7  and  C_8
REMARK    5  A    between atoms: C_17  and  C_18
REMARK    6  A    between atoms: N_20  and  C_21
REMARK    7  A    between atoms: C_21  and  C_22
REMARK    8  A    between atoms: C_22  and  C_23
REMARK                            x       y       z     vdW  Elec       q    Type
REMARK                         _______ _______ _______ _____ _____    ______ ____
ROOT
ATOM      1  C   UNL     1       2.355   4.630  20.444  0.00  0.00    +0.000 A 
ATOM      2  C   UNL     1       1.717   5.865  20.570  0.00  0.00    +0.000 A 
ATOM      3  C   UNL     1       2.191   6.982  19.885  0.00  0.00    +0.000 A 
ATOM      4  N   UNL     1       3.286   6.952  19.086  0.00  0.00    +0.000 NA
ATOM      5  C   UNL     1       3.863   5.732  18.975  0.00  0.00    +0.000 A 
ATOM      6  C   UNL     1       3.473   4.548  19.601  0.00  0.00    +0.000 A 
ATOM      7  C   UNL     1       4.400   3.573  19.130  0.00  0.00    +0.000 A 
ATOM      8  C   UNL     1       4.470   2.114  19.400  0.00  0.00    +0.000 C 
ATOM      9  N   UNL     1       5.314   4.110  18.307  0.00  0.00    +0.000 NA
ATOM     10  N   UNL     1       4.963   5.407  18.224  0.00  0.00    +0.000 N 
ENDROOT
BRANCH   3  11
ATOM     11  C   UNL     1       1.527   8.283  20.088  0.00  0.00    +0.000 A 
ATOM     12  C   UNL     1       1.082   8.699  21.357  0.00  0.00    +0.000 A 
ATOM     13  C   UNL     1       0.624   9.996  21.566  0.00  0.00    +0.000 A 
ATOM     14  C   UNL     1       0.584  10.852  20.483  0.00  0.00    +0.000 A 
ATOM     15  N   UNL     1       0.944  10.490  19.233  0.00  0.00    +0.000 NA
ATOM     16  C   UNL     1       1.399   9.220  19.066  0.00  0.00    +0.000 A 
ENDBRANCH   3  11
BRANCH   1  17
ATOM     17  C   UNL     1       1.889   3.501  21.264  0.00  0.00    +0.000 C 
ATOM     18  O   UNL     1       2.488   3.065  22.232  0.00  0.00    +0.000 OA
BRANCH  17  20
ATOM     19  C   UNL     1       0.773   2.490  19.480  0.00  0.00    +0.000 C 
ATOM     20  O   UNL     1       0.700   3.051  20.790  0.00  0.00    +0.000 OA
ENDBRANCH  17  20
ENDBRANCH   1  17
BRANCH  10  21
ATOM     21  C   UNL     1       5.759   6.291  17.397  0.00  0.00    +0.000 C 
BRANCH  21  22
ATOM     22  C   UNL     1       7.223   6.354  17.815  0.00  0.00    +0.000 C 
BRANCH  22  23
ATOM     23  C   UNL     1       7.725   7.731  17.826  0.00  0.00    +0.000 C 
ATOM     24  N   UNL     1       8.113   8.827  17.830  0.00  0.00    +0.000 NA
ENDBRANCH  22  23
ENDBRANCH  21  22
ENDBRANCH  10  21
TORSDOF 6
ENDMDL
MODEL 5
REMARK VINA RESULT:      -7.4      1.956      6.124
REMARK  Name = 
REMARK  8 active torsions:
REMARK  status: ('A' for Active; 'I' for Inactive)
REMARK    1  A    between atoms: C_1  and  O_2
REMARK    2  A    between atoms: O_2  and  C_3
REMARK    3  A    between atoms: C_3  and  C_5
REMARK    4  A    between atoms: C_7  and  C_8
REMARK    5  A    between atoms: C_17  and  C_18
REMARK    6  A    between atoms: N_20  and  C_21
REMARK    7  A    between atoms: C_21  and  C_22
REMARK    8  A    between atoms: C_22  and  C_23
REMARK                            x       y       z     vdW  Elec       q    Type
REMARK                         _______ _______ _______ _____ _____    ______ ____
ROOT
ATOM      1  C   UNL     1       3.529   3.449  18.060  0.00  0.00    +0.000 A 
ATOM      2  C   UNL     1       4.465   3.444  17.024  0.00  0.00    +0.000 A 
ATOM      3  C   UNL     1       4.863   4.634  16.421  0.00  0.00    +0.000 A 
ATOM      4  N   UNL     1       4.369   5.847  16.775  0.00  0.00    +0.000 NA
ATOM      5  C   UNL     1       3.480   5.811  17.796  0.00  0.00    +0.000 A 
ATOM      6  C   UNL     1       3.016   4.686  18.478  0.00  0.00    +0.000 A 
ATOM      7  C   UNL     1       2.120   5.208  19.457  0.00  0.00    +0.000 A 
ATOM      8  C   UNL     1       1.354   4.506  20.519  0.00  0.00    +0.000 C 
ATOM      9  N   UNL     1       2.007   6.541  19.369  0.00  0.00    +0.000 NA
ATOM     10  N   UNL     1       2.841   6.879  18.368  0.00  0.00    +0.000 N 
ENDROOT
BRANCH   3  11
ATOM     11  C   UNL     1       5.809   4.584  15.290  0.00  0.00    +0.000 A 
ATOM     12  C   UNL     1       5.530   3.853  14.121  0.00  0.00    +0.000 A 
ATOM     13  C   UNL     1       6.344   3.961  12.997  0.00  0.00    +0.000 A 
ATOM     14  C   UNL     1       7.455   4.777  13.077  0.00  0.00    +0.000 A 
ATOM     15  N   UNL     1       7.803   5.456  14.191  0.00  0.00    +0.000 NA
ATOM     16  C   UNL     1       6.979   5.340  15.266  0.00  0.00    +0.000 A 
ENDBRANCH   3  11
BRANCH   1  17
ATOM     17  C   UNL     1       3.055   2.166  18.599  0.00  0.00    +0.000 C 
ATOM     18  O   UNL     1       1.913   1.755  18.485  0.00  0.00    +0.000 OA
BRANCH  17  20
ATOM     19  C   UNL     1       4.441   2.068  20.475  0.00  0.00    +0.000 C 
ATOM     20  O   UNL     1       4.080   1.519  19.209  0.00  0.00    +0.000 OA
ENDBRANCH  17  20
ENDBRANCH   1  17
BRANCH  10  21
ATOM     21  C   UNL     1       2.960   8.278  18.005  0.00  0.00    +0.000 C 
BRANCH  21  22
ATOM     22  C   UNL     1       1.616   8.975  17.836  0.00  0.00    +0.000 C 
BRANCH  22  23
ATOM     23  C   UNL     1       1.676  10.376  18.259  0.00  0.00    +0.000 C 
ATOM     24  N   UNL     1       1.734  11.489  18.591  0.00  0.00    +0.000 NA
ENDBRANCH  22  23
ENDBRANCH  21  22
ENDBRANCH  10  21
TORSDOF 6
ENDMDL
MODEL 6
REMARK VINA RESULT:      -7.4      1.390      1.882
REMARK  Name = 
REMARK  8 active torsions:
REMARK  status: ('A' for Active; 'I' for Inactive)
REMARK    1  A    between atoms: C_1  and  O_2
REMARK    2  A    between atoms: O_2  and  C_3
REMARK    3  A    between atoms: C_3  and  C_5
REMARK    4  A    between atoms: C_7  and  C_8
REMARK    5  A    between atoms: C_17  and  C_18
REMARK    6  A    between atoms: N_20  and  C_21
REMARK    7  A    between atoms: C_21  and  C_22
REMARK    8  A    between atoms: C_22  and  C_23
REMARK                            x       y       z     vdW  Elec       q    Type
REMARK                         _______ _______ _______ _____ _____    ______ ____
ROOT
ATOM      1  C   UNL     1       1.934   4.413  19.094  0.00  0.00    +0.000 A 
ATOM      2  C   UNL     1       1.597   5.759  19.248  0.00  0.00    +0.000 A 
ATOM      3  C   UNL     1       2.388   6.758  18.685  0.00  0.00    +0.000 A 
ATOM      4  N   UNL     1       3.521   6.501  17.986  0.00  0.00    +0.000 NA
ATOM      5  C   UNL     1       3.802   5.184  17.843  0.00  0.00    +0.000 A 
ATOM      6  C   UNL     1       3.082   4.103  18.350  0.00  0.00    +0.000 A 
ATOM      7  C   UNL     1       3.796   2.955  17.898  0.00  0.00    +0.000 A 
ATOM      8  C   UNL     1       3.492   1.511  18.072  0.00  0.00    +0.000 C 
ATOM      9  N   UNL     1       4.890   3.292  17.198  0.00  0.00    +0.000 NA
ATOM     10  N   UNL     1       4.865   4.638  17.173  0.00  0.00    +0.000 N 
ENDROOT
BRANCH   3  11
ATOM     11  C   UNL     1       2.032   8.171  18.917  0.00  0.00    +0.000 A 
ATOM     12  C   UNL     1       2.177   9.147  17.915  0.00  0.00    +0.000 A 
ATOM     13  C   UNL     1       1.672  10.433  18.088  0.00  0.00    +0.000 A 
ATOM     14  C   UNL     1       1.057  10.731  19.287  0.00  0.00    +0.000 A 
ATOM     15  N   UNL     1       0.941   9.852  20.305  0.00  0.00    +0.000 NA
ATOM     16  C   UNL     1       1.433   8.602  20.099  0.00  0.00    +0.000 A 
ENDBRANCH   3  11
BRANCH   1  17
ATOM     17  C   UNL     1       1.135   3.395  19.791  0.00  0.00    +0.000 C 
ATOM     18  O   UNL     1       0.447   2.561  19.227  0.00  0.00    +0.000 OA
BRANCH  17  20
ATOM     19  C   UNL     1       2.357   2.713  21.659  0.00  0.00    +0.000 C 
ATOM     20  O   UNL     1       1.303   3.518  21.132  0.00  0.00    +0.000 OA
ENDBRANCH  17  20
ENDBRANCH   1  17
BRANCH  10  21
ATOM     21  C   UNL     1       5.928   5.340  16.481  0.00  0.00    +0.000 C 
BRANCH  21  22
ATOM     22  C   UNL     1       7.322   4.911  16.922  0.00  0.00    +0.000 C 
BRANCH  22  23
ATOM     23  C   UNL     1       7.568   5.233  18.330  0.00  0.00    +0.000 C 
ATOM     24  N   UNL     1       7.753   5.494  19.448  0.00  0.00    +0.000 NA
ENDBRANCH  22  23
ENDBRANCH  21  22
ENDBRANCH  10  21
TORSDOF 6
ENDMDL
MODEL 7
REMARK VINA RESULT:      -7.4      0.932      1.352
REMARK  Name = 
REMARK  8 active torsions:
REMARK  status: ('A' for Active; 'I' for Inactive)
REMARK    1  A    between atoms: C_1  and  O_2
REMARK    2  A    between atoms: O_2  and  C_3
REMARK    3  A    between atoms: C_3  and  C_5
REMARK    4  A    between atoms: C_7  and  C_8
REMARK    5  A    between atoms: C_17  and  C_18
REMARK    6  A    between atoms: N_20  and  C_21
REMARK    7  A    between atoms: C_21  and  C_22
REMARK    8  A    between atoms: C_22  and  C_23
REMARK                            x       y       z     vdW  Elec       q    Type
REMARK                         _______ _______ _______ _____ _____    ______ ____
ROOT
ATOM      1  C   UNL     1       2.307   4.603  20.488  0.00  0.00    +0.000 A 
ATOM      2  C   UNL     1       1.673   5.840  20.616  0.00  0.00    +0.000 A 
ATOM      3  C   UNL     1       2.153   6.957  19.937  0.00  0.00    +0.000 A 
ATOM      4  N   UNL     1       3.252   6.926  19.142  0.00  0.00    +0.000 NA
ATOM      5  C   UNL     1       3.825   5.704  19.029  0.00  0.00    +0.000 A 
ATOM      6  C   UNL     1       3.428   4.520  19.649  0.00  0.00    +0.000 A 
ATOM      7  C   UNL     1       4.353   3.544  19.179  0.00  0.00    +0.000 A 
ATOM      8  C   UNL     1       4.417   2.083  19.444  0.00  0.00    +0.000 C 
ATOM      9  N   UNL     1       5.272   4.080  18.362  0.00  0.00    +0.000 NA
ATOM     10  N   UNL     1       4.926   5.379  18.282  0.00  0.00    +0.000 N 
ENDROOT
BRANCH   3  11
ATOM     11  C   UNL     1       1.493   8.260  20.142  0.00  0.00    +0.000 A 
ATOM     12  C   UNL     1       1.032   8.667  21.408  0.00  0.00    +0.000 A 
ATOM     13  C   UNL     1       0.577   9.965  21.622  0.00  0.00    +0.000 A 
ATOM     14  C   UNL     1       0.558  10.830  20.546  0.00  0.00    +0.000 A 
ATOM     15  N   UNL     1       0.933  10.478  19.298  0.00  0.00    +0.000 NA
ATOM     16  C   UNL     1       1.384   9.207  19.126  0.00  0.00    +0.000 A 
ENDBRANCH   3  11
BRANCH   1  17
ATOM     17  C   UNL     1       1.834   3.473  21.302  0.00  0.00    +0.000 C 
ATOM     18  O   UNL     1       2.415   3.047  22.285  0.00  0.00    +0.000 OA
BRANCH  17  20
ATOM     19  C   UNL     1       0.746   2.534  19.462  0.00  0.00    +0.000 C 
ATOM     20  O   UNL     1       0.660   3.010  20.804  0.00  0.00    +0.000 OA
ENDBRANCH  17  20
ENDBRANCH   1  17
BRANCH  10  21
ATOM     21  C   UNL     1       5.729   6.263  17.461  0.00  0.00    +0.000 C 
BRANCH  21  22
ATOM     22  C   UNL     1       5.183   6.438  16.049  0.00  0.00    +0.000 C 
BRANCH  22  23
ATOM     23  C   UNL     1       5.646   5.374  15.153  0.00  0.00    +0.000 C 
ATOM     24  N   UNL     1       6.010   4.537  14.434  0.00  0.00    +0.000 NA
ENDBRANCH  22  23
ENDBRANCH  21  22
ENDBRANCH  10  21
TORSDOF 6
ENDMDL
MODEL 8
REMARK VINA RESULT:      -7.4      3.071      5.007
REMARK  Name = 
REMARK  8 active torsions:
REMARK  status: ('A' for Active; 'I' for Inactive)
REMARK    1  A    between atoms: C_1  and  O_2
REMARK    2  A    between atoms: O_2  and  C_3
REMARK    3  A    between atoms: C_3  and  C_5
REMARK    4  A    between atoms: C_7  and  C_8
REMARK    5  A    between atoms: C_17  and  C_18
REMARK    6  A    between atoms: N_20  and  C_21
REMARK    7  A    between atoms: C_21  and  C_22
REMARK    8  A    between atoms: C_22  and  C_23
REMARK                            x       y       z     vdW  Elec       q    Type
REMARK                         _______ _______ _______ _____ _____    ______ ____
ROOT
ATOM      1  C   UNL     1       4.333   6.485  17.211  0.00  0.00    +0.000 A 
ATOM      2  C   UNL     1       3.629   7.480  17.893  0.00  0.00    +0.000 A 
ATOM      3  C   UNL     1       2.516   7.158  18.666  0.00  0.00    +0.000 A 
ATOM      4  N   UNL     1       2.040   5.895  18.792  0.00  0.00    +0.000 NA
ATOM      5  C   UNL     1       2.762   4.958  18.132  0.00  0.00    +0.000 A 
ATOM      6  C   UNL     1       3.893   5.160  17.341  0.00  0.00    +0.000 A 
ATOM      7  C   UNL     1       4.261   3.853  16.906  0.00  0.00    +0.000 A 
ATOM      8  C   UNL     1       5.414   3.412  16.079  0.00  0.00    +0.000 C 
ATOM      9  N   UNL     1       3.411   2.919  17.358  0.00  0.00    +0.000 NA
ATOM     10  N   UNL     1       2.525   3.609  18.100  0.00  0.00    +0.000 N 
ENDROOT
BRANCH   3  11
ATOM     11  C   UNL     1       1.763   8.243  19.324  0.00  0.00    +0.000 A 
ATOM     12  C   UNL     1       1.446   8.201  20.694  0.00  0.00    +0.000 A 
ATOM     13  C   UNL     1       0.897   9.307  21.337  0.00  0.00    +0.000 A 
ATOM     14  C   UNL     1       0.638  10.433  20.581  0.00  0.00    +0.000 A 
ATOM     15  N   UNL     1       0.867  10.509  19.253  0.00  0.00    +0.000 NA
ATOM     16  C   UNL     1       1.416   9.416  18.659  0.00  0.00    +0.000 A 
ENDBRANCH   3  11
BRANCH   1  17
ATOM     17  C   UNL     1       5.437   6.876  16.322  0.00  0.00    +0.000 C 
ATOM     18  O   UNL     1       5.405   6.780  15.108  0.00  0.00    +0.000 OA
BRANCH  17  20
ATOM     19  C   UNL     1       7.346   6.373  17.569  0.00  0.00    +0.000 C 
ATOM     20  O   UNL     1       6.464   7.371  17.058  0.00  0.00    +0.000 OA
ENDBRANCH  17  20
ENDBRANCH   1  17
BRANCH  10  21
ATOM     21  C   UNL     1       1.448   2.886  18.747  0.00  0.00    +0.000 C 
BRANCH  21  22
ATOM     22  C   UNL     1       0.930   3.573  20.005  0.00  0.00    +0.000 C 
BRANCH  22  23
ATOM     23  C   UNL     1       1.585   3.059  21.211  0.00  0.00    +0.000 C 
ATOM     24  N   UNL     1       2.110   2.662  22.169  0.00  0.00    +0.000 NA
ENDBRANCH  22  23
ENDBRANCH  21  22
ENDBRANCH  10  21
TORSDOF 6
ENDMDL
MODEL 9
REMARK VINA RESULT:      -7.3      1.322      1.668
REMARK  Name = 
REMARK  8 active torsions:
REMARK  status: ('A' for Active; 'I' for Inactive)
REMARK    1  A    between atoms: C_1  and  O_2
REMARK    2  A    between atoms: O_2  and  C_3
REMARK    3  A    between atoms: C_3  and  C_5
REMARK    4  A    between atoms: C_7  and  C_8
REMARK    5  A    between atoms: C_17  and  C_18
REMARK    6  A    between atoms: N_20  and  C_21
REMARK    7  A    between atoms: C_21  and  C_22
REMARK    8  A    between atoms: C_22  and  C_23
REMARK                            x       y       z     vdW  Elec       q    Type
REMARK                         _______ _______ _______ _____ _____    ______ ____
ROOT
ATOM      1  C   UNL     1       2.057   4.336  19.181  0.00  0.00    +0.000 A 
ATOM      2  C   UNL     1       1.612   5.659  19.166  0.00  0.00    +0.000 A 
ATOM      3  C   UNL     1       2.521   6.714  19.130  0.00  0.00    +0.000 A 
ATOM      4  N   UNL     1       3.865   6.534  19.128  0.00  0.00    +0.000 NA
ATOM      5  C   UNL     1       4.255   5.238  19.123  0.00  0.00    +0.000 A 
ATOM      6  C   UNL     1       3.441   4.106  19.146  0.00  0.00    +0.000 A 
ATOM      7  C   UNL     1       4.352   3.010  19.111  0.00  0.00    +0.000 A 
ATOM      8  C   UNL     1       4.086   1.549  19.062  0.00  0.00    +0.000 C 
ATOM      9  N   UNL     1       5.628   3.423  19.101  0.00  0.00    +0.000 NA
ATOM     10  N   UNL     1       5.542   4.766  19.100  0.00  0.00    +0.000 N 
ENDROOT
BRANCH   3  11
ATOM     11  C   UNL     1       2.014   8.098  19.175  0.00  0.00    +0.000 A 
ATOM     12  C   UNL     1       2.044   8.937  18.046  0.00  0.00    +0.000 A 
ATOM     13  C   UNL     1       1.402  10.172  18.053  0.00  0.00    +0.000 A 
ATOM     14  C   UNL     1       0.767  10.565  19.213  0.00  0.00    +0.000 A 
ATOM     15  N   UNL     1       0.754   9.828  20.344  0.00  0.00    +0.000 NA
ATOM     16  C   UNL     1       1.379   8.622  20.300  0.00  0.00    +0.000 A 
ENDBRANCH   3  11
BRANCH   1  17
ATOM     17  C   UNL     1       1.072   3.254  19.325  0.00  0.00    +0.000 C 
ATOM     18  O   UNL     1       0.755   2.493  18.428  0.00  0.00    +0.000 OA
BRANCH  17  20
ATOM     19  C   UNL     1       1.495   2.618  21.531  0.00  0.00    +0.000 C 
ATOM     20  O   UNL     1       0.604   3.228  20.598  0.00  0.00    +0.000 OA
ENDBRANCH  17  20
ENDBRANCH   1  17
BRANCH  10  21
ATOM     21  C   UNL     1       6.766   5.542  19.091  0.00  0.00    +0.000 C 
BRANCH  21  22
ATOM     22  C   UNL     1       7.257   5.879  17.689  0.00  0.00    +0.000 C 
BRANCH  22  23
ATOM     23  C   UNL     1       7.534   7.311  17.541  0.00  0.00    +0.000 C 
ATOM     24  N   UNL     1       7.752   8.445  17.413  0.00  0.00    +0.000 NA
ENDBRANCH  22  23
ENDBRANCH  21  22
ENDBRANCH  10  21
TORSDOF 6
ENDMDL
