MODEL 1
REMARK VINA RESULT:      -7.3      0.000      0.000
REMARK  Name = 
REMARK  3 active torsions:
REMARK  status: ('A' for Active; 'I' for Inactive)
REMARK    1  A    between atoms: C_1  and  O_2
REMARK    2  A    between atoms: O_2  and  C_3
REMARK    3  A    between atoms: N_14  and  C_15
REMARK                            x       y       z     vdW  Elec       q    Type
REMARK                         _______ _______ _______ _____ _____    ______ ____
ROOT
ATOM      1  C   UNL     1       5.739   4.421  15.361  0.00  0.00    +0.000 A 
ATOM      2  C   UNL     1       5.739   5.784  15.092  0.00  0.00    +0.000 A 
ATOM      3  C   UNL     1       5.013   6.652  15.906  0.00  0.00    +0.000 A 
ATOM      4  C   UNL     1       4.297   6.168  17.016  0.00  0.00    +0.000 A 
ATOM      5  C   UNL     1       4.326   4.801  17.325  0.00  0.00    +0.000 A 
ATOM      6  C   UNL     1       5.053   3.943  16.479  0.00  0.00    +0.000 A 
ATOM      7  C   UNL     1       3.609   4.278  18.509  0.00  0.00    +0.000 C 
ATOM      8  C   UNL     1       2.869   5.094  19.284  0.00  0.00    +0.000 C 
ATOM      9  C   UNL     1       2.740   6.575  19.036  0.00  0.00    +0.000 C 
ATOM     10  C   UNL     1       3.509   7.150  17.841  0.00  0.00    +0.000 C 
ATOM     11  C   UNL     1       2.097   4.585  20.488  0.00  0.00    +0.000 C 
ATOM     12  N   UNL     1       1.923   3.124  20.512  0.00  0.00    +0.000 NA
ATOM     13  C   UNL     1       1.363   2.690  21.789  0.00  0.00    +0.000 C 
ATOM     14  C   UNL     1       3.202   2.461  20.254  0.00  0.00    +0.000 C 
ATOM     15  C   UNL     1       3.716   2.808  18.853  0.00  0.00    +0.000 C 
ENDROOT
BRANCH   1  17
ATOM     16  C   UNL     1       6.076   3.718  13.136  0.00  0.00    +0.000 C 
ATOM     17  O   UNL     1       6.465   3.636  14.505  0.00  0.00    +0.000 OA
ENDBRANCH   1  17
TORSDOF 1
ENDMDL
MODEL 2
REMARK VINA RESULT:      -7.0      1.674      1.943
REMARK  Name = 
REMARK  3 active torsions:
REMARK  status: ('A' for Active; 'I' for Inactive)
REMARK    1  A    between atoms: C_1  and  O_2
REMARK    2  A    between atoms: O_2  and  C_3
REMARK    3  A    between atoms: N_14  and  C_15
REMARK                            x       y       z     vdW  Elec       q    Type
REMARK                         _______ _______ _______ _____ _____    ______ ____
ROOT
ATOM      1  C   UNL     1       5.913   4.091  14.274  0.00  0.00    +0.000 A 
ATOM      2  C   UNL     1       7.107   4.708  14.624  0.00  0.00    +0.000 A 
ATOM      3  C   UNL     1       7.295   5.168  15.927  0.00  0.00    +0.000 A 
ATOM      4  C   UNL     1       6.297   4.994  16.902  0.00  0.00    +0.000 A 
ATOM      5  C   UNL     1       5.106   4.332  16.574  0.00  0.00    +0.000 A 
ATOM      6  C   UNL     1       4.933   3.891  15.248  0.00  0.00    +0.000 A 
ATOM      7  C   UNL     1       4.059   4.108  17.596  0.00  0.00    +0.000 C 
ATOM      8  C   UNL     1       4.204   4.580  18.848  0.00  0.00    +0.000 C 
ATOM      9  C   UNL     1       5.427   5.329  19.311  0.00  0.00    +0.000 C 
ATOM     10  C   UNL     1       6.546   5.537  18.284  0.00  0.00    +0.000 C 
ATOM     11  C   UNL     1       3.137   4.394  19.911  0.00  0.00    +0.000 C 
ATOM     12  N   UNL     1       1.822   4.003  19.377  0.00  0.00    +0.000 NA
ATOM     13  C   UNL     1       0.911   3.640  20.458  0.00  0.00    +0.000 C 
ATOM     14  C   UNL     1       1.972   2.898  18.430  0.00  0.00    +0.000 C 
ATOM     15  C   UNL     1       2.813   3.330  17.225  0.00  0.00    +0.000 C 
ENDROOT
BRANCH   1  17
ATOM     16  C   UNL     1       6.953   3.924  12.165  0.00  0.00    +0.000 C 
ATOM     17  O   UNL     1       5.804   3.682  12.972  0.00  0.00    +0.000 OA
ENDBRANCH   1  17
TORSDOF 1
ENDMDL
MODEL 3
REMARK VINA RESULT:      -6.8      2.258      3.854
REMARK  Name = 
REMARK  3 active torsions:
REMARK  status: ('A' for Active; 'I' for Inactive)
REMARK    1  A    between atoms: C_1  and  O_2
REMARK    2  A    between atoms: O_2  and  C_3
REMARK    3  A    between atoms: N_14  and  C_15
REMARK                            x       y       z     vdW  Elec       q    Type
REMARK                         _______ _______ _______ _____ _____    ______ ____
ROOT
ATOM      1  C   UNL     1       5.270   5.546  16.104  0.00  0.00    +0.000 A 
ATOM      2  C   UNL     1       5.402   4.254  16.596  0.00  0.00    +0.000 A 
ATOM      3  C   UNL     1       4.736   3.883  17.763  0.00  0.00    +0.000 A 
ATOM      4  C   UNL     1       3.908   4.798  18.440  0.00  0.00    +0.000 A 
ATOM      5  C   UNL     1       3.730   6.091  17.929  0.00  0.00    +0.000 A 
ATOM      6  C   UNL     1       4.426   6.446  16.758  0.00  0.00    +0.000 A 
ATOM      7  C   UNL     1       2.835   7.055  18.607  0.00  0.00    +0.000 C 
ATOM      8  C   UNL     1       2.215   6.731  19.757  0.00  0.00    +0.000 C 
ATOM      9  C   UNL     1       2.350   5.382  20.415  0.00  0.00    +0.000 C 
ATOM     10  C   UNL     1       3.237   4.349  19.710  0.00  0.00    +0.000 C 
ATOM     11  C   UNL     1       1.315   7.706  20.493  0.00  0.00    +0.000 C 
ATOM     12  N   UNL     1       1.473   9.105  20.065  0.00  0.00    +0.000 NA
ATOM     13  C   UNL     1       0.439   9.948  20.659  0.00  0.00    +0.000 C 
ATOM     14  C   UNL     1       1.439   9.192  18.606  0.00  0.00    +0.000 C 
ATOM     15  C   UNL     1       2.613   8.421  17.992  0.00  0.00    +0.000 C 
ENDROOT
BRANCH   1  17
ATOM     16  C   UNL     1       6.849   4.802  14.520  0.00  0.00    +0.000 C 
ATOM     17  O   UNL     1       5.969   5.832  14.962  0.00  0.00    +0.000 OA
ENDBRANCH   1  17
TORSDOF 1
ENDMDL
MODEL 4
REMARK VINA RESULT:      -6.7      3.003      6.111
REMARK  Name = 
REMARK  3 active torsions:
REMARK  status: ('A' for Active; 'I' for Inactive)
REMARK    1  A    between atoms: C_1  and  O_2
REMARK    2  A    between atoms: O_2  and  C_3
REMARK    3  A    between atoms: N_14  and  C_15
REMARK                            x       y       z     vdW  Elec       q    Type
REMARK                         _______ _______ _______ _____ _____    ______ ____
ROOT
ATOM      1  C   UNL     1       1.971   7.138  20.047  0.00  0.00    +0.000 A 
ATOM      2  C   UNL     1       1.410   6.092  20.767  0.00  0.00    +0.000 A 
ATOM      3  C   UNL     1       1.677   4.773  20.401  0.00  0.00    +0.000 A 
ATOM      4  C   UNL     1       2.532   4.486  19.321  0.00  0.00    +0.000 A 
ATOM      5  C   UNL     1       3.142   5.532  18.614  0.00  0.00    +0.000 A 
ATOM      6  C   UNL     1       2.843   6.855  18.993  0.00  0.00    +0.000 A 
ATOM      7  C   UNL     1       4.072   5.249  17.499  0.00  0.00    +0.000 C 
ATOM      8  C   UNL     1       4.312   3.985  17.103  0.00  0.00    +0.000 C 
ATOM      9  C   UNL     1       3.695   2.782  17.768  0.00  0.00    +0.000 C 
ATOM     10  C   UNL     1       2.761   3.045  18.955  0.00  0.00    +0.000 C 
ATOM     11  C   UNL     1       5.237   3.662  15.944  0.00  0.00    +0.000 C 
ATOM     12  N   UNL     1       5.538   4.815  15.080  0.00  0.00    +0.000 NA
ATOM     13  C   UNL     1       6.588   4.483  14.121  0.00  0.00    +0.000 C 
ATOM     14  C   UNL     1       5.924   5.967  15.895  0.00  0.00    +0.000 C 
ATOM     15  C   UNL     1       4.766   6.400  16.800  0.00  0.00    +0.000 C 
ENDROOT
BRANCH   1  17
ATOM     16  C   UNL     1       0.515   8.479  21.325  0.00  0.00    +0.000 C 
ATOM     17  O   UNL     1       1.646   8.401  20.463  0.00  0.00    +0.000 OA
ENDBRANCH   1  17
TORSDOF 1
ENDMDL
MODEL 5
REMARK VINA RESULT:      -6.6      4.353      6.785
REMARK  Name = 
REMARK  3 active torsions:
REMARK  status: ('A' for Active; 'I' for Inactive)
REMARK    1  A    between atoms: C_1  and  O_2
REMARK    2  A    between atoms: O_2  and  C_3
REMARK    3  A    between atoms: N_14  and  C_15
REMARK                            x       y       z     vdW  Elec       q    Type
REMARK                         _______ _______ _______ _____ _____    ______ ____
ROOT
ATOM      1  C   UNL     1       0.111   9.417  21.778  0.00  0.00    +0.000 A 
ATOM      2  C   UNL     1       0.009  10.469  20.877  0.00  0.00    +0.000 A 
ATOM      3  C   UNL     1       0.642  10.386  19.638  0.00  0.00    +0.000 A 
ATOM      4  C   UNL     1       1.366   9.236  19.276  0.00  0.00    +0.000 A 
ATOM      5  C   UNL     1       1.439   8.148  20.157  0.00  0.00    +0.000 A 
ATOM      6  C   UNL     1       0.804   8.262  21.409  0.00  0.00    +0.000 A 
ATOM      7  C   UNL     1       2.165   6.916  19.779  0.00  0.00    +0.000 C 
ATOM      8  C   UNL     1       2.818   6.832  18.604  0.00  0.00    +0.000 C 
ATOM      9  C   UNL     1       2.834   7.944  17.588  0.00  0.00    +0.000 C 
ATOM     10  C   UNL     1       2.052   9.216  17.936  0.00  0.00    +0.000 C 
ATOM     11  C   UNL     1       3.598   5.594  18.199  0.00  0.00    +0.000 C 
ATOM     12  N   UNL     1       3.887   4.678  19.315  0.00  0.00    +0.000 NA
ATOM     13  C   UNL     1       4.448   3.423  18.822  0.00  0.00    +0.000 C 
ATOM     14  C   UNL     1       2.673   4.434  20.093  0.00  0.00    +0.000 C 
ATOM     15  C   UNL     1       2.168   5.734  20.727  0.00  0.00    +0.000 C 
ENDROOT
BRANCH   1  17
ATOM     16  C   UNL     1      -1.189  10.836  23.139  0.00  0.00    +0.000 C 
ATOM     17  O   UNL     1      -0.528   9.584  22.978  0.00  0.00    +0.000 OA
ENDBRANCH   1  17
TORSDOF 1
ENDMDL
MODEL 6
REMARK VINA RESULT:      -6.5      2.713      5.645
REMARK  Name = 
REMARK  3 active torsions:
REMARK  status: ('A' for Active; 'I' for Inactive)
REMARK    1  A    between atoms: C_1  and  O_2
REMARK    2  A    between atoms: O_2  and  C_3
REMARK    3  A    between atoms: N_14  and  C_15
REMARK                            x       y       z     vdW  Elec       q    Type
REMARK                         _______ _______ _______ _____ _____    ______ ____
ROOT
ATOM      1  C   UNL     1       2.695   3.643  20.469  0.00  0.00    +0.000 A 
ATOM      2  C   UNL     1       1.971   4.769  20.836  0.00  0.00    +0.000 A 
ATOM      3  C   UNL     1       2.099   5.947  20.102  0.00  0.00    +0.000 A 
ATOM      4  C   UNL     1       2.937   6.004  18.974  0.00  0.00    +0.000 A 
ATOM      5  C   UNL     1       3.639   4.861  18.565  0.00  0.00    +0.000 A 
ATOM      6  C   UNL     1       3.505   3.689  19.332  0.00  0.00    +0.000 A 
ATOM      7  C   UNL     1       4.497   4.892  17.360  0.00  0.00    +0.000 C 
ATOM      8  C   UNL     1       4.666   6.031  16.662  0.00  0.00    +0.000 C 
ATOM      9  C   UNL     1       3.986   7.327  17.020  0.00  0.00    +0.000 C 
ATOM     10  C   UNL     1       3.056   7.312  18.238  0.00  0.00    +0.000 C 
ATOM     11  C   UNL     1       5.563   6.104  15.439  0.00  0.00    +0.000 C 
ATOM     12  N   UNL     1       6.493   4.970  15.312  0.00  0.00    +0.000 NA
ATOM     13  C   UNL     1       7.169   4.999  14.017  0.00  0.00    +0.000 C 
ATOM     14  C   UNL     1       5.776   3.708  15.495  0.00  0.00    +0.000 C 
ATOM     15  C   UNL     1       5.188   3.623  16.908  0.00  0.00    +0.000 C 
ENDROOT
BRANCH   1  17
ATOM     16  C   UNL     1       1.286   2.474  21.953  0.00  0.00    +0.000 C 
ATOM     17  O   UNL     1       2.524   2.531  21.251  0.00  0.00    +0.000 OA
ENDBRANCH   1  17
TORSDOF 1
ENDMDL
MODEL 7
REMARK VINA RESULT:      -6.5      3.683      5.966
REMARK  Name = 
REMARK  3 active torsions:
REMARK  status: ('A' for Active; 'I' for Inactive)
REMARK    1  A    between atoms: C_1  and  O_2
REMARK    2  A    between atoms: O_2  and  C_3
REMARK    3  A    between atoms: N_14  and  C_15
REMARK                            x       y       z     vdW  Elec       q    Type
REMARK                         _______ _______ _______ _____ _____    ______ ____
ROOT
ATOM      1  C   UNL     1       0.428   8.878  20.969  0.00  0.00    +0.000 A 
ATOM      2  C   UNL     1       0.646   9.777  19.933  0.00  0.00    +0.000 A 
ATOM      3  C   UNL     1       1.495   9.433  18.882  0.00  0.00    +0.000 A 
ATOM      4  C   UNL     1       2.118   8.173  18.843  0.00  0.00    +0.000 A 
ATOM      5  C   UNL     1       1.870   7.239  19.859  0.00  0.00    +0.000 A 
ATOM      6  C   UNL     1       1.022   7.615  20.917  0.00  0.00    +0.000 A 
ATOM      7  C   UNL     1       2.487   5.894  19.817  0.00  0.00    +0.000 C 
ATOM      8  C   UNL     1       3.342   5.558  18.833  0.00  0.00    +0.000 C 
ATOM      9  C   UNL     1       3.705   6.486  17.703  0.00  0.00    +0.000 C 
ATOM     10  C   UNL     1       3.045   7.869  17.698  0.00  0.00    +0.000 C 
ATOM     11  C   UNL     1       4.016   4.199  18.777  0.00  0.00    +0.000 C 
ATOM     12  N   UNL     1       3.955   3.449  20.042  0.00  0.00    +0.000 NA
ATOM     13  C   UNL     1       4.432   2.081  19.856  0.00  0.00    +0.000 C 
ATOM     14  C   UNL     1       2.590   3.457  20.567  0.00  0.00    +0.000 C 
ATOM     15  C   UNL     1       2.146   4.886  20.894  0.00  0.00    +0.000 C 
ENDROOT
BRANCH   1  17
ATOM     16  C   UNL     1       0.205   9.437  23.248  0.00  0.00    +0.000 C 
ATOM     17  O   UNL     1      -0.408   9.300  21.969  0.00  0.00    +0.000 OA
ENDBRANCH   1  17
TORSDOF 1
ENDMDL
MODEL 8
REMARK VINA RESULT:      -6.5      1.624      2.523
REMARK  Name = 
REMARK  3 active torsions:
REMARK  status: ('A' for Active; 'I' for Inactive)
REMARK    1  A    between atoms: C_1  and  O_2
REMARK    2  A    between atoms: O_2  and  C_3
REMARK    3  A    between atoms: N_14  and  C_15
REMARK                            x       y       z     vdW  Elec       q    Type
REMARK                         _______ _______ _______ _____ _____    ______ ____
ROOT
ATOM      1  C   UNL     1       5.999   3.780  13.515  0.00  0.00    +0.000 A 
ATOM      2  C   UNL     1       7.170   4.525  13.492  0.00  0.00    +0.000 A 
ATOM      3  C   UNL     1       7.527   5.294  14.599  0.00  0.00    +0.000 A 
ATOM      4  C   UNL     1       6.725   5.305  15.755  0.00  0.00    +0.000 A 
ATOM      5  C   UNL     1       5.564   4.521  15.809  0.00  0.00    +0.000 A 
ATOM      6  C   UNL     1       5.217   3.766  14.673  0.00  0.00    +0.000 A 
ATOM      7  C   UNL     1       4.728   4.492  17.030  0.00  0.00    +0.000 C 
ATOM      8  C   UNL     1       5.032   5.258  18.094  0.00  0.00    +0.000 C 
ATOM      9  C   UNL     1       6.238   6.160  18.143  0.00  0.00    +0.000 C 
ATOM     10  C   UNL     1       7.146   6.176  16.909  0.00  0.00    +0.000 C 
ATOM     11  C   UNL     1       4.179   5.274  19.349  0.00  0.00    +0.000 C 
ATOM     12  N   UNL     1       2.837   4.697  19.167  0.00  0.00    +0.000 NA
ATOM     13  C   UNL     1       2.157   4.555  20.452  0.00  0.00    +0.000 C 
ATOM     14  C   UNL     1       2.933   3.407  18.484  0.00  0.00    +0.000 C 
ATOM     15  C   UNL     1       3.518   3.583  17.079  0.00  0.00    +0.000 C 
ENDROOT
BRANCH   1  17
ATOM     16  C   UNL     1       4.486   3.407  11.747  0.00  0.00    +0.000 C 
ATOM     17  O   UNL     1       5.715   3.065  12.382  0.00  0.00    +0.000 OA
ENDBRANCH   1  17
TORSDOF 1
ENDMDL
MODEL 9
REMARK VINA RESULT:      -6.4      3.347      5.519
REMARK  Name = 
REMARK  3 active torsions:
REMARK  status: ('A' for Active; 'I' for Inactive)
REMARK    1  A    between atoms: C_1  and  O_2
REMARK    2  A    between atoms: O_2  and  C_3
REMARK    3  A    between atoms: N_14  and  C_15
REMARK                            x       y       z     vdW  Elec       q    Type
REMARK                         _______ _______ _______ _____ _____    ______ ____
ROOT
ATOM      1  C   UNL     1       3.050   3.977  20.054  0.00  0.00    +0.000 A 
ATOM      2  C   UNL     1       3.816   3.919  18.898  0.00  0.00    +0.000 A 
ATOM      3  C   UNL     1       3.885   5.027  18.054  0.00  0.00    +0.000 A 
ATOM      4  C   UNL     1       3.205   6.217  18.372  0.00  0.00    +0.000 A 
ATOM      5  C   UNL     1       2.465   6.303  19.560  0.00  0.00    +0.000 A 
ATOM      6  C   UNL     1       2.398   5.166  20.387  0.00  0.00    +0.000 A 
ATOM      7  C   UNL     1       1.772   7.558  19.929  0.00  0.00    +0.000 C 
ATOM      8  C   UNL     1       1.792   8.625  19.108  0.00  0.00    +0.000 C 
ATOM      9  C   UNL     1       2.531   8.642  17.795  0.00  0.00    +0.000 C 
ATOM     10  C   UNL     1       3.293   7.370  17.409  0.00  0.00    +0.000 C 
ATOM     11  C   UNL     1       1.068   9.916  19.443  0.00  0.00    +0.000 C 
ATOM     12  N   UNL     1       0.067   9.780  20.514  0.00  0.00    +0.000 NA
ATOM     13  C   UNL     1      -0.434  11.089  20.924  0.00  0.00    +0.000 C 
ATOM     14  C   UNL     1       0.644   9.064  21.652  0.00  0.00    +0.000 C 
ATOM     15  C   UNL     1       1.038   7.639  21.251  0.00  0.00    +0.000 C 
ENDROOT
BRANCH   1  17
ATOM     16  C   UNL     1       1.869   2.693  21.639  0.00  0.00    +0.000 C 
ATOM     17  O   UNL     1       3.024   2.841  20.819  0.00  0.00    +0.000 OA
ENDBRANCH   1  17
TORSDOF 1
ENDMDL
