MODEL 1
REMARK VINA RESULT:      -7.5      0.000      0.000
REMARK  Name = 
REMARK  6 active torsions:
REMARK  status: ('A' for Active; 'I' for Inactive)
REMARK    1  A    between atoms: C_2  and  C_15
REMARK    2  A    between atoms: N_3  and  N_4
REMARK    3  A    between atoms: N_4  and  C_5
REMARK    4  A    between atoms: C_5  and  N_7
REMARK    5  A    between atoms: N_7  and  C_8
REMARK    6  A    between atoms: C_8  and  C_9
REMARK                            x       y       z     vdW  Elec       q    Type
REMARK                         _______ _______ _______ _____ _____    ______ ____
ROOT
ATOM      1  N   UNL     1       5.843   6.702  16.985  0.00  0.00    +0.000 N 
ATOM      2  H   UNL     1       6.382   7.504  17.291  0.00  0.00    +0.000 HD
ENDROOT
BRANCH   1   5
ATOM      3  O   UNL     1       7.657   4.726  16.291  0.00  0.00    +0.000 OA
ATOM      4  C   UNL     1       6.930   5.218  15.428  0.00  0.00    +0.000 C 
ATOM      5  N   UNL     1       6.038   6.252  15.676  0.00  0.00    +0.000 N 
ATOM      6  H   UNL     1       5.360   6.514  14.966  0.00  0.00    +0.000 HD
BRANCH   4   7
ATOM      7  C   UNL     1       6.924   4.750  14.061  0.00  0.00    +0.000 A 
ATOM      8  C   UNL     1       7.664   5.164  12.975  0.00  0.00    +0.000 A 
ATOM      9  C   UNL     1       7.298   4.328  11.889  0.00  0.00    +0.000 A 
ATOM     10  C   UNL     1       6.358   3.453  12.384  0.00  0.00    +0.000 A 
ATOM     11 BR   UNL     1       5.539   2.096  11.400  0.00  0.00    +0.000 Br
ATOM     12  O   UNL     1       6.114   3.706  13.699  0.00  0.00    +0.000 OA
ENDBRANCH   4   7
ENDBRANCH   1   5
BRANCH   1  13
ATOM     13  C   UNL     1       5.009   6.074  17.879  0.00  0.00    +0.000 C 
ATOM     14  S   UNL     1       5.479   5.171  19.206  0.00  0.00    +0.000 S 
BRANCH  13  15
ATOM     15  N   UNL     1       3.670   6.201  17.619  0.00  0.00    +0.000 N 
ATOM     16  H   UNL     1       3.463   6.496  16.672  0.00  0.00    +0.000 HD
BRANCH  15  17
ATOM     17  C   UNL     1       2.617   6.379  18.608  0.00  0.00    +0.000 C 
BRANCH  17  18
ATOM     18  C   UNL     1       2.033   5.061  19.040  0.00  0.00    +0.000 A 
ATOM     19  C   UNL     1       1.679   4.081  18.100  0.00  0.00    +0.000 A 
ATOM     20  C   UNL     1       1.078   2.893  18.513  0.00  0.00    +0.000 A 
ATOM     21  C   UNL     1       0.833   2.665  19.865  0.00  0.00    +0.000 A 
ATOM     22  C   UNL     1       1.201   3.620  20.810  0.00  0.00    +0.000 A 
ATOM     23  C   UNL     1       1.794   4.812  20.401  0.00  0.00    +0.000 A 
ENDBRANCH  17  18
ENDBRANCH  15  17
ENDBRANCH  13  15
ENDBRANCH   1  13
TORSDOF 6
ENDMDL
MODEL 2
REMARK VINA RESULT:      -7.5      0.433      1.141
REMARK  Name = 
REMARK  6 active torsions:
REMARK  status: ('A' for Active; 'I' for Inactive)
REMARK    1  A    between atoms: C_2  and  C_15
REMARK    2  A    between atoms: N_3  and  N_4
REMARK    3  A    between atoms: N_4  and  C_5
REMARK    4  A    between atoms: C_5  and  N_7
REMARK    5  A    between atoms: N_7  and  C_8
REMARK    6  A    between atoms: C_8  and  C_9
REMARK                            x       y       z     vdW  Elec       q    Type
REMARK                         _______ _______ _______ _____ _____    ______ ____
ROOT
ATOM      1  N   UNL     1       5.908   6.434  17.252  0.00  0.00    +0.000 N 
ATOM      2  H   UNL     1       6.487   7.194  17.590  0.00  0.00    +0.000 HD
ENDROOT
BRANCH   1   5
ATOM      3  O   UNL     1       7.850   4.677  16.343  0.00  0.00    +0.000 OA
ATOM      4  C   UNL     1       7.018   5.129  15.556  0.00  0.00    +0.000 C 
ATOM      5  N   UNL     1       6.051   6.058  15.912  0.00  0.00    +0.000 N 
ATOM      6  H   UNL     1       5.301   6.281  15.263  0.00  0.00    +0.000 HD
BRANCH   4   7
ATOM      7  C   UNL     1       6.958   4.718  14.172  0.00  0.00    +0.000 A 
ATOM      8  C   UNL     1       7.647   5.186  13.074  0.00  0.00    +0.000 A 
ATOM      9  C   UNL     1       7.244   4.392  11.970  0.00  0.00    +0.000 A 
ATOM     10  C   UNL     1       6.336   3.485  12.466  0.00  0.00    +0.000 A 
ATOM     11 BR   UNL     1       5.489   2.160  11.463  0.00  0.00    +0.000 Br
ATOM     12  O   UNL     1       6.145   3.680  13.800  0.00  0.00    +0.000 OA
ENDBRANCH   4   7
ENDBRANCH   1   5
BRANCH   1  13
ATOM     13  C   UNL     1       5.072   5.785  18.129  0.00  0.00    +0.000 C 
ATOM     14  S   UNL     1       5.378   4.332  18.897  0.00  0.00    +0.000 S 
BRANCH  13  15
ATOM     15  N   UNL     1       3.872   6.403  18.359  0.00  0.00    +0.000 N 
ATOM     16  H   UNL     1       3.867   6.997  19.180  0.00  0.00    +0.000 HD
BRANCH  15  17
ATOM     17  C   UNL     1       2.577   5.978  17.848  0.00  0.00    +0.000 C 
BRANCH  17  18
ATOM     18  C   UNL     1       1.971   4.896  18.703  0.00  0.00    +0.000 A 
ATOM     19  C   UNL     1       1.924   5.017  20.100  0.00  0.00    +0.000 A 
ATOM     20  C   UNL     1       1.420   3.976  20.880  0.00  0.00    +0.000 A 
ATOM     21  C   UNL     1       0.950   2.812  20.275  0.00  0.00    +0.000 A 
ATOM     22  C   UNL     1       0.970   2.691  18.888  0.00  0.00    +0.000 A 
ATOM     23  C   UNL     1       1.480   3.724  18.106  0.00  0.00    +0.000 A 
ENDBRANCH  17  18
ENDBRANCH  15  17
ENDBRANCH  13  15
ENDBRANCH   1  13
TORSDOF 6
ENDMDL
MODEL 3
REMARK VINA RESULT:      -7.3      1.611      1.758
REMARK  Name = 
REMARK  6 active torsions:
REMARK  status: ('A' for Active; 'I' for Inactive)
REMARK    1  A    between atoms: C_2  and  C_15
REMARK    2  A    between atoms: N_3  and  N_4
REMARK    3  A    between atoms: N_4  and  C_5
REMARK    4  A    between atoms: C_5  and  N_7
REMARK    5  A    between atoms: N_7  and  C_8
REMARK    6  A    between atoms: C_8  and  C_9
REMARK                            x       y       z     vdW  Elec       q    Type
REMARK                         _______ _______ _______ _____ _____    ______ ____
ROOT
ATOM      1  N   UNL     1       6.536   4.083  17.109  0.00  0.00    +0.000 N 
ATOM      2  H   UNL     1       7.043   3.370  17.619  0.00  0.00    +0.000 HD
ENDROOT
BRANCH   1   5
ATOM      3  O   UNL     1       7.591   5.247  14.825  0.00  0.00    +0.000 OA
ATOM      4  C   UNL     1       6.737   4.366  14.723  0.00  0.00    +0.000 C 
ATOM      5  N   UNL     1       6.113   3.774  15.812  0.00  0.00    +0.000 N 
ATOM      6  H   UNL     1       5.530   2.952  15.675  0.00  0.00    +0.000 HD
BRANCH   4   7
ATOM      7  C   UNL     1       6.307   3.847  13.445  0.00  0.00    +0.000 A 
ATOM      8  C   UNL     1       7.011   3.157  12.482  0.00  0.00    +0.000 A 
ATOM      9  C   UNL     1       6.091   2.842  11.450  0.00  0.00    +0.000 A 
ATOM     10  C   UNL     1       4.880   3.358  11.852  0.00  0.00    +0.000 A 
ATOM     11 BR   UNL     1       3.286   3.215  10.893  0.00  0.00    +0.000 Br
ATOM     12  O   UNL     1       5.000   3.981  13.056  0.00  0.00    +0.000 OA
ENDBRANCH   4   7
ENDBRANCH   1   5
BRANCH   1  13
ATOM     13  C   UNL     1       6.242   5.274  17.730  0.00  0.00    +0.000 C 
ATOM     14  S   UNL     1       7.326   6.492  18.098  0.00  0.00    +0.000 S 
BRANCH  13  15
ATOM     15  N   UNL     1       4.931   5.439  18.089  0.00  0.00    +0.000 N 
ATOM     16  H   UNL     1       4.424   6.090  17.501  0.00  0.00    +0.000 HD
BRANCH  15  17
ATOM     17  C   UNL     1       4.355   5.148  19.394  0.00  0.00    +0.000 C 
BRANCH  17  18
ATOM     18  C   UNL     1       3.163   4.235  19.284  0.00  0.00    +0.000 A 
ATOM     19  C   UNL     1       3.097   3.246  18.291  0.00  0.00    +0.000 A 
ATOM     20  C   UNL     1       1.957   2.453  18.162  0.00  0.00    +0.000 A 
ATOM     21  C   UNL     1       0.878   2.631  19.026  0.00  0.00    +0.000 A 
ATOM     22  C   UNL     1       0.942   3.594  20.029  0.00  0.00    +0.000 A 
ATOM     23  C   UNL     1       2.076   4.394  20.157  0.00  0.00    +0.000 A 
ENDBRANCH  17  18
ENDBRANCH  15  17
ENDBRANCH  13  15
ENDBRANCH   1  13
TORSDOF 6
ENDMDL
MODEL 4
REMARK VINA RESULT:      -7.2      2.155      3.020
REMARK  Name = 
REMARK  6 active torsions:
REMARK  status: ('A' for Active; 'I' for Inactive)
REMARK    1  A    between atoms: C_2  and  C_15
REMARK    2  A    between atoms: N_3  and  N_4
REMARK    3  A    between atoms: N_4  and  C_5
REMARK    4  A    between atoms: C_5  and  N_7
REMARK    5  A    between atoms: N_7  and  C_8
REMARK    6  A    between atoms: C_8  and  C_9
REMARK                            x       y       z     vdW  Elec       q    Type
REMARK                         _______ _______ _______ _____ _____    ______ ____
ROOT
ATOM      1  N   UNL     1       6.096   4.009  18.214  0.00  0.00    +0.000 N 
ATOM      2  H   UNL     1       7.002   4.005  18.668  0.00  0.00    +0.000 HD
ENDROOT
BRANCH   1   5
ATOM      3  O   UNL     1       7.521   5.761  16.606  0.00  0.00    +0.000 OA
ATOM      4  C   UNL     1       6.862   4.856  16.092  0.00  0.00    +0.000 C 
ATOM      5  N   UNL     1       6.073   3.975  16.816  0.00  0.00    +0.000 N 
ATOM      6  H   UNL     1       5.674   3.160  16.357  0.00  0.00    +0.000 HD
BRANCH   4   7
ATOM      7  C   UNL     1       6.860   4.615  14.667  0.00  0.00    +0.000 A 
ATOM      8  C   UNL     1       7.617   5.183  13.666  0.00  0.00    +0.000 A 
ATOM      9  C   UNL     1       7.245   4.542  12.458  0.00  0.00    +0.000 A 
ATOM     10  C   UNL     1       6.284   3.617  12.799  0.00  0.00    +0.000 A 
ATOM     11 BR   UNL     1       5.448   2.454  11.605  0.00  0.00    +0.000 Br
ATOM     12  O   UNL     1       6.033   3.660  14.136  0.00  0.00    +0.000 OA
ENDBRANCH   4   7
ENDBRANCH   1   5
BRANCH   1  13
ATOM     13  C   UNL     1       4.958   3.987  18.985  0.00  0.00    +0.000 C 
ATOM     14  S   UNL     1       4.307   2.651  19.751  0.00  0.00    +0.000 S 
BRANCH  13  15
ATOM     15  N   UNL     1       4.306   5.186  19.100  0.00  0.00    +0.000 N 
ATOM     16  H   UNL     1       4.214   5.512  20.055  0.00  0.00    +0.000 HD
BRANCH  15  17
ATOM     17  C   UNL     1       3.407   5.771  18.116  0.00  0.00    +0.000 C 
BRANCH  17  18
ATOM     18  C   UNL     1       2.685   6.971  18.669  0.00  0.00    +0.000 A 
ATOM     19  C   UNL     1       2.231   6.997  19.996  0.00  0.00    +0.000 A 
ATOM     20  C   UNL     1       1.507   8.090  20.472  0.00  0.00    +0.000 A 
ATOM     21  C   UNL     1       1.238   9.170  19.634  0.00  0.00    +0.000 A 
ATOM     22  C   UNL     1       1.704   9.166  18.321  0.00  0.00    +0.000 A 
ATOM     23  C   UNL     1       2.420   8.073  17.840  0.00  0.00    +0.000 A 
ENDBRANCH  17  18
ENDBRANCH  15  17
ENDBRANCH  13  15
ENDBRANCH   1  13
TORSDOF 6
ENDMDL
MODEL 5
REMARK VINA RESULT:      -7.2      1.370      1.528
REMARK  Name = 
REMARK  6 active torsions:
REMARK  status: ('A' for Active; 'I' for Inactive)
REMARK    1  A    between atoms: C_2  and  C_15
REMARK    2  A    between atoms: N_3  and  N_4
REMARK    3  A    between atoms: N_4  and  C_5
REMARK    4  A    between atoms: C_5  and  N_7
REMARK    5  A    between atoms: N_7  and  C_8
REMARK    6  A    between atoms: C_8  and  C_9
REMARK                            x       y       z     vdW  Elec       q    Type
REMARK                         _______ _______ _______ _____ _____    ______ ____
ROOT
ATOM      1  N   UNL     1       5.145   6.422  16.906  0.00  0.00    +0.000 N 
ATOM      2  H   UNL     1       5.860   6.879  17.461  0.00  0.00    +0.000 HD
ENDROOT
BRANCH   1   5
ATOM      3  O   UNL     1       7.379   4.885  16.332  0.00  0.00    +0.000 OA
ATOM      4  C   UNL     1       6.600   5.192  15.430  0.00  0.00    +0.000 C 
ATOM      5  N   UNL     1       5.493   6.007  15.617  0.00  0.00    +0.000 N 
ATOM      6  H   UNL     1       4.805   6.103  14.874  0.00  0.00    +0.000 HD
BRANCH   4   7
ATOM      7  C   UNL     1       6.758   4.715  14.075  0.00  0.00    +0.000 A 
ATOM      8  C   UNL     1       7.581   5.162  13.064  0.00  0.00    +0.000 A 
ATOM      9  C   UNL     1       7.373   4.300  11.957  0.00  0.00    +0.000 A 
ATOM     10  C   UNL     1       6.437   3.377  12.365  0.00  0.00    +0.000 A 
ATOM     11 BR   UNL     1       5.796   1.971  11.321  0.00  0.00    +0.000 Br
ATOM     12  O   UNL     1       6.047   3.625  13.646  0.00  0.00    +0.000 OA
ENDBRANCH   4   7
ENDBRANCH   1   5
BRANCH   1  13
ATOM     13  C   UNL     1       3.912   6.183  17.465  0.00  0.00    +0.000 C 
ATOM     14  S   UNL     1       2.958   7.295  18.270  0.00  0.00    +0.000 S 
BRANCH  13  15
ATOM     15  N   UNL     1       3.458   4.896  17.353  0.00  0.00    +0.000 N 
ATOM     16  H   UNL     1       2.534   4.821  16.944  0.00  0.00    +0.000 HD
BRANCH  15  17
ATOM     17  C   UNL     1       3.934   3.749  18.113  0.00  0.00    +0.000 C 
BRANCH  17  18
ATOM     18  C   UNL     1       3.000   3.405  19.242  0.00  0.00    +0.000 A 
ATOM     19  C   UNL     1       1.627   3.682  19.157  0.00  0.00    +0.000 A 
ATOM     20  C   UNL     1       0.787   3.416  20.239  0.00  0.00    +0.000 A 
ATOM     21  C   UNL     1       1.305   2.864  21.409  0.00  0.00    +0.000 A 
ATOM     22  C   UNL     1       2.661   2.564  21.496  0.00  0.00    +0.000 A 
ATOM     23  C   UNL     1       3.505   2.834  20.421  0.00  0.00    +0.000 A 
ENDBRANCH  17  18
ENDBRANCH  15  17
ENDBRANCH  13  15
ENDBRANCH   1  13
TORSDOF 6
ENDMDL
MODEL 6
REMARK VINA RESULT:      -7.2      1.812      2.079
REMARK  Name = 
REMARK  6 active torsions:
REMARK  status: ('A' for Active; 'I' for Inactive)
REMARK    1  A    between atoms: C_2  and  C_15
REMARK    2  A    between atoms: N_3  and  N_4
REMARK    3  A    between atoms: N_4  and  C_5
REMARK    4  A    between atoms: C_5  and  N_7
REMARK    5  A    between atoms: N_7  and  C_8
REMARK    6  A    between atoms: C_8  and  C_9
REMARK                            x       y       z     vdW  Elec       q    Type
REMARK                         _______ _______ _______ _____ _____    ______ ____
ROOT
ATOM      1  N   UNL     1       7.545   5.251  16.928  0.00  0.00    +0.000 N 
ATOM      2  H   UNL     1       8.095   4.624  17.503  0.00  0.00    +0.000 HD
ENDROOT
BRANCH   1   5
ATOM      3  O   UNL     1       5.557   3.525  16.061  0.00  0.00    +0.000 OA
ATOM      4  C   UNL     1       6.295   4.069  15.240  0.00  0.00    +0.000 C 
ATOM      5  N   UNL     1       7.352   4.898  15.589  0.00  0.00    +0.000 N 
ATOM      6  H   UNL     1       7.830   5.436  14.870  0.00  0.00    +0.000 HD
BRANCH   4   7
ATOM      7  C   UNL     1       6.119   3.907  13.815  0.00  0.00    +0.000 A 
ATOM      8  C   UNL     1       7.052   3.866  12.801  0.00  0.00    +0.000 A 
ATOM      9  C   UNL     1       6.338   3.633  11.598  0.00  0.00    +0.000 A 
ATOM     10  C   UNL     1       5.012   3.542  11.955  0.00  0.00    +0.000 A 
ATOM     11 BR   UNL     1       3.608   3.210  10.774  0.00  0.00    +0.000 Br
ATOM     12  O   UNL     1       4.865   3.718  13.297  0.00  0.00    +0.000 OA
ENDBRANCH   4   7
ENDBRANCH   1   5
BRANCH   1  13
ATOM     13  C   UNL     1       6.978   6.364  17.501  0.00  0.00    +0.000 C 
ATOM     14  S   UNL     1       7.655   7.891  17.578  0.00  0.00    +0.000 S 
BRANCH  13  15
ATOM     15  N   UNL     1       5.750   6.167  18.073  0.00  0.00    +0.000 N 
ATOM     16  H   UNL     1       5.132   6.967  18.005  0.00  0.00    +0.000 HD
BRANCH  15  17
ATOM     17  C   UNL     1       5.424   5.170  19.083  0.00  0.00    +0.000 C 
BRANCH  17  18
ATOM     18  C   UNL     1       4.039   4.614  18.888  0.00  0.00    +0.000 A 
ATOM     19  C   UNL     1       3.163   5.167  17.942  0.00  0.00    +0.000 A 
ATOM     20  C   UNL     1       1.861   4.682  17.820  0.00  0.00    +0.000 A 
ATOM     21  C   UNL     1       1.424   3.637  18.632  0.00  0.00    +0.000 A 
ATOM     22  C   UNL     1       2.291   3.066  19.558  0.00  0.00    +0.000 A 
ATOM     23  C   UNL     1       3.591   3.552  19.688  0.00  0.00    +0.000 A 
ENDBRANCH  17  18
ENDBRANCH  15  17
ENDBRANCH  13  15
ENDBRANCH   1  13
TORSDOF 6
ENDMDL
MODEL 7
REMARK VINA RESULT:      -7.2      1.265      1.366
REMARK  Name = 
REMARK  6 active torsions:
REMARK  status: ('A' for Active; 'I' for Inactive)
REMARK    1  A    between atoms: C_2  and  C_15
REMARK    2  A    between atoms: N_3  and  N_4
REMARK    3  A    between atoms: N_4  and  C_5
REMARK    4  A    between atoms: C_5  and  N_7
REMARK    5  A    between atoms: N_7  and  C_8
REMARK    6  A    between atoms: C_8  and  C_9
REMARK                            x       y       z     vdW  Elec       q    Type
REMARK                         _______ _______ _______ _____ _____    ______ ____
ROOT
ATOM      1  N   UNL     1       5.838   6.581  17.014  0.00  0.00    +0.000 N 
ATOM      2  H   UNL     1       6.650   7.068  17.373  0.00  0.00    +0.000 HD
ENDROOT
BRANCH   1   5
ATOM      3  O   UNL     1       7.520   4.532  16.206  0.00  0.00    +0.000 OA
ATOM      4  C   UNL     1       6.733   5.030  15.401  0.00  0.00    +0.000 C 
ATOM      5  N   UNL     1       5.900   6.098  15.704  0.00  0.00    +0.000 N 
ATOM      6  H   UNL     1       5.168   6.367  15.051  0.00  0.00    +0.000 HD
BRANCH   4   7
ATOM      7  C   UNL     1       6.589   4.535  14.051  0.00  0.00    +0.000 A 
ATOM      8  C   UNL     1       7.536   4.328  13.072  0.00  0.00    +0.000 A 
ATOM      9  C   UNL     1       6.857   3.778  11.956  0.00  0.00    +0.000 A 
ATOM     10  C   UNL     1       5.535   3.680  12.326  0.00  0.00    +0.000 A 
ATOM     11 BR   UNL     1       4.173   2.992  11.254  0.00  0.00    +0.000 Br
ATOM     12  O   UNL     1       5.357   4.148  13.592  0.00  0.00    +0.000 OA
ENDBRANCH   4   7
ENDBRANCH   1   5
BRANCH   1  13
ATOM     13  C   UNL     1       4.760   6.372  17.842  0.00  0.00    +0.000 C 
ATOM     14  S   UNL     1       3.355   7.278  17.886  0.00  0.00    +0.000 S 
BRANCH  13  15
ATOM     15  N   UNL     1       4.889   5.327  18.718  0.00  0.00    +0.000 N 
ATOM     16  H   UNL     1       5.550   5.499  19.466  0.00  0.00    +0.000 HD
BRANCH  15  17
ATOM     17  C   UNL     1       4.541   3.939  18.453  0.00  0.00    +0.000 C 
BRANCH  17  18
ATOM     18  C   UNL     1       3.177   3.597  18.991  0.00  0.00    +0.000 A 
ATOM     19  C   UNL     1       2.296   2.779  18.267  0.00  0.00    +0.000 A 
ATOM     20  C   UNL     1       1.012   2.526  18.750  0.00  0.00    +0.000 A 
ATOM     21  C   UNL     1       0.598   3.077  19.961  0.00  0.00    +0.000 A 
ATOM     22  C   UNL     1       1.471   3.872  20.699  0.00  0.00    +0.000 A 
ATOM     23  C   UNL     1       2.752   4.133  20.217  0.00  0.00    +0.000 A 
ENDBRANCH  17  18
ENDBRANCH  15  17
ENDBRANCH  13  15
ENDBRANCH   1  13
TORSDOF 6
ENDMDL
MODEL 8
REMARK VINA RESULT:      -7.1      1.303      1.688
REMARK  Name = 
REMARK  6 active torsions:
REMARK  status: ('A' for Active; 'I' for Inactive)
REMARK    1  A    between atoms: C_2  and  C_15
REMARK    2  A    between atoms: N_3  and  N_4
REMARK    3  A    between atoms: N_4  and  C_5
REMARK    4  A    between atoms: C_5  and  N_7
REMARK    5  A    between atoms: N_7  and  C_8
REMARK    6  A    between atoms: C_8  and  C_9
REMARK                            x       y       z     vdW  Elec       q    Type
REMARK                         _______ _______ _______ _____ _____    ______ ____
ROOT
ATOM      1  N   UNL     1       6.543   4.260  17.964  0.00  0.00    +0.000 N 
ATOM      2  H   UNL     1       7.494   4.310  18.311  0.00  0.00    +0.000 HD
ENDROOT
BRANCH   1   5
ATOM      3  O   UNL     1       7.382   6.106  16.074  0.00  0.00    +0.000 OA
ATOM      4  C   UNL     1       6.867   5.048  15.710  0.00  0.00    +0.000 C 
ATOM      5  N   UNL     1       6.365   4.098  16.587  0.00  0.00    +0.000 N 
ATOM      6  H   UNL     1       6.090   3.183  16.237  0.00  0.00    +0.000 HD
BRANCH   4   7
ATOM      7  C   UNL     1       6.747   4.685  14.316  0.00  0.00    +0.000 A 
ATOM      8  C   UNL     1       7.635   4.848  13.274  0.00  0.00    +0.000 A 
ATOM      9  C   UNL     1       7.032   4.264  12.131  0.00  0.00    +0.000 A 
ATOM     10  C   UNL     1       5.815   3.778  12.549  0.00  0.00    +0.000 A 
ATOM     11 BR   UNL     1       4.595   2.875  11.465  0.00  0.00    +0.000 Br
ATOM     12  O   UNL     1       5.624   4.038  13.872  0.00  0.00    +0.000 OA
ENDBRANCH   4   7
ENDBRANCH   1   5
BRANCH   1  13
ATOM     13  C   UNL     1       5.499   4.292  18.858  0.00  0.00    +0.000 C 
ATOM     14  S   UNL     1       4.918   3.002  19.749  0.00  0.00    +0.000 S 
BRANCH  13  15
ATOM     15  N   UNL     1       4.883   5.508  18.994  0.00  0.00    +0.000 N 
ATOM     16  H   UNL     1       5.202   6.042  19.794  0.00  0.00    +0.000 HD
BRANCH  15  17
ATOM     17  C   UNL     1       3.601   5.889  18.418  0.00  0.00    +0.000 C 
BRANCH  17  18
ATOM     18  C   UNL     1       2.505   4.943  18.831  0.00  0.00    +0.000 A 
ATOM     19  C   UNL     1       1.961   4.983  20.124  0.00  0.00    +0.000 A 
ATOM     20  C   UNL     1       0.993   4.057  20.509  0.00  0.00    +0.000 A 
ATOM     21  C   UNL     1       0.550   3.090  19.609  0.00  0.00    +0.000 A 
ATOM     22  C   UNL     1       1.065   3.055  18.316  0.00  0.00    +0.000 A 
ATOM     23  C   UNL     1       2.039   3.974  17.929  0.00  0.00    +0.000 A 
ENDBRANCH  17  18
ENDBRANCH  15  17
ENDBRANCH  13  15
ENDBRANCH   1  13
TORSDOF 6
ENDMDL
MODEL 9
REMARK VINA RESULT:      -6.9      2.060      3.070
REMARK  Name = 
REMARK  6 active torsions:
REMARK  status: ('A' for Active; 'I' for Inactive)
REMARK    1  A    between atoms: C_2  and  C_15
REMARK    2  A    between atoms: N_3  and  N_4
REMARK    3  A    between atoms: N_4  and  C_5
REMARK    4  A    between atoms: C_5  and  N_7
REMARK    5  A    between atoms: N_7  and  C_8
REMARK    6  A    between atoms: C_8  and  C_9
REMARK                            x       y       z     vdW  Elec       q    Type
REMARK                         _______ _______ _______ _____ _____    ______ ____
ROOT
ATOM      1  N   UNL     1       5.697   3.879  17.767  0.00  0.00    +0.000 N 
ATOM      2  H   UNL     1       6.617   4.028  18.167  0.00  0.00    +0.000 HD
ENDROOT
BRANCH   1   5
ATOM      3  O   UNL     1       7.354   5.286  16.047  0.00  0.00    +0.000 OA
ATOM      4  C   UNL     1       6.508   4.518  15.589  0.00  0.00    +0.000 C 
ATOM      5  N   UNL     1       5.599   3.822  16.373  0.00  0.00    +0.000 N 
ATOM      6  H   UNL     1       5.027   3.092  15.956  0.00  0.00    +0.000 HD
BRANCH   4   7
ATOM      7  C   UNL     1       6.388   4.254  14.173  0.00  0.00    +0.000 A 
ATOM      8  C   UNL     1       7.346   4.256  13.183  0.00  0.00    +0.000 A 
ATOM      9  C   UNL     1       6.692   3.876  11.983  0.00  0.00    +0.000 A 
ATOM     10  C   UNL     1       5.375   3.662  12.318  0.00  0.00    +0.000 A 
ATOM     11 BR   UNL     1       4.046   3.109  11.133  0.00  0.00    +0.000 Br
ATOM     12  O   UNL     1       5.175   3.899  13.644  0.00  0.00    +0.000 OA
ENDBRANCH   4   7
ENDBRANCH   1   5
BRANCH   1  13
ATOM     13  C   UNL     1       4.625   3.682  18.604  0.00  0.00    +0.000 C 
ATOM     14  S   UNL     1       3.619   2.347  18.628  0.00  0.00    +0.000 S 
BRANCH  13  15
ATOM     15  N   UNL     1       4.369   4.706  19.477  0.00  0.00    +0.000 N 
ATOM     16  H   UNL     1       5.171   4.984  20.029  0.00  0.00    +0.000 HD
BRANCH  15  17
ATOM     17  C   UNL     1       3.059   5.100  19.977  0.00  0.00    +0.000 C 
BRANCH  17  18
ATOM     18  C   UNL     1       2.660   6.460  19.472  0.00  0.00    +0.000 A 
ATOM     19  C   UNL     1       1.947   7.355  20.284  0.00  0.00    +0.000 A 
ATOM     20  C   UNL     1       1.527   8.585  19.778  0.00  0.00    +0.000 A 
ATOM     21  C   UNL     1       1.823   8.939  18.464  0.00  0.00    +0.000 A 
ATOM     22  C   UNL     1       2.550   8.069  17.655  0.00  0.00    +0.000 A 
ATOM     23  C   UNL     1       2.964   6.836  18.154  0.00  0.00    +0.000 A 
ENDBRANCH  17  18
ENDBRANCH  15  17
ENDBRANCH  13  15
ENDBRANCH   1  13
TORSDOF 6
ENDMDL
