MODEL 1
REMARK VINA RESULT:      -9.1      0.000      0.000
REMARK  Name = 
REMARK  5 active torsions:
REMARK  status: ('A' for Active; 'I' for Inactive)
REMARK    1  A    between atoms: C_1  and  O_2
REMARK    2  A    between atoms: O_2  and  C_3
REMARK    3  A    between atoms: C_10  and  C_11
REMARK    4  A    between atoms: C_11  and  O_12
REMARK    5  A    between atoms: N_21  and  C_22
REMARK                            x       y       z     vdW  Elec       q    Type
REMARK                         _______ _______ _______ _____ _____    ______ ____
ROOT
ATOM      1  C   UNL     1      -0.216  11.430  19.022  0.00  0.00    +0.000 C 
ATOM      2  C   UNL     1      -1.448  10.983  18.252  0.00  0.00    +0.000 A 
ATOM      3  C   UNL     1      -1.602  10.013  17.268  0.00  0.00    +0.000 A 
ATOM      4  C   UNL     1      -2.897   9.697  16.836  0.00  0.00    +0.000 A 
ATOM      5  C   UNL     1      -4.020  10.356  17.365  0.00  0.00    +0.000 A 
ATOM      6  C   UNL     1      -3.864  11.345  18.334  0.00  0.00    +0.000 A 
ATOM      7  C   UNL     1      -2.576  11.624  18.755  0.00  0.00    +0.000 A 
ATOM      8  C   UNL     1      -2.156  12.522  19.823  0.00  0.00    +0.000 C 
ATOM      9  O   UNL     1      -2.924  13.209  20.472  0.00  0.00    +0.000 OA
ATOM     10  N   UNL     1      -0.777  12.413  19.953  0.00  0.00    +0.000 N 
ENDROOT
BRANCH   1  18
ATOM     11  C   UNL     1       4.320   4.853  18.687  0.00  0.00    +0.000 C 
ATOM     12  O   UNL     1       4.633   5.574  17.756  0.00  0.00    +0.000 OA
ATOM     13  N   UNL     1       3.416   5.094  19.687  0.00  0.00    +0.000 N 
ATOM     14  C   UNL     1       2.703   6.263  19.772  0.00  0.00    +0.000 A 
ATOM     15  N   UNL     1       2.694   7.282  18.944  0.00  0.00    +0.000 NA
ATOM     16  C   UNL     1       1.825   8.200  19.475  0.00  0.00    +0.000 A 
ATOM     17  C   UNL     1       1.415   9.447  18.972  0.00  0.00    +0.000 A 
ATOM     18  C   UNL     1       0.443  10.203  19.671  0.00  0.00    +0.000 A 
ATOM     19  C   UNL     1      -0.037   9.700  20.901  0.00  0.00    +0.000 A 
ATOM     20  C   UNL     1       0.379   8.469  21.427  0.00  0.00    +0.000 A 
ATOM     21  C   UNL     1       1.291   7.739  20.668  0.00  0.00    +0.000 A 
ATOM     22  N   UNL     1       1.851   6.495  20.824  0.00  0.00    +0.000 N 
ATOM     23  H   UNL     1       3.326   4.375  20.381  0.00  0.00    +0.000 HD
ATOM     24  H   UNL     1       1.658   5.856  21.578  0.00  0.00    +0.000 HD
BRANCH  11  26
ATOM     25  C   UNL     1       4.022   2.732  19.636  0.00  0.00    +0.000 C 
ATOM     26  O   UNL     1       4.869   3.623  18.904  0.00  0.00    +0.000 OA
ENDBRANCH  11  26
ENDBRANCH   1  18
BRANCH  10  27
ATOM     27  C   UNL     1      -0.062  13.181  20.982  0.00  0.00    +0.000 C 
ATOM     28  C   UNL     1       0.078  14.715  20.802  0.00  0.00    +0.000 C 
ATOM     29  C   UNL     1      -0.370  15.278  22.116  0.00  0.00    +0.000 A 
ATOM     30  C   UNL     1      -0.415  16.613  22.489  0.00  0.00    +0.000 A 
ATOM     31  C   UNL     1      -0.925  16.940  23.749  0.00  0.00    +0.000 A 
ATOM     32  C   UNL     1      -1.382  15.938  24.616  0.00  0.00    +0.000 A 
ATOM     33  C   UNL     1      -1.314  14.597  24.240  0.00  0.00    +0.000 A 
ATOM     34  C   UNL     1      -0.801  14.285  22.989  0.00  0.00    +0.000 A 
ATOM     35  C   UNL     1      -0.643  12.924  22.404  0.00  0.00    +0.000 C 
ENDBRANCH  10  27
BRANCH   1  36
ATOM     36  O   UNL     1       0.653  12.138  18.163  0.00  0.00    +0.000 OA
ATOM     37  H   UNL     1       0.238  12.170  17.289  0.00  0.00    +0.000 HD
ENDBRANCH   1  36
TORSDOF 4
ENDMDL
MODEL 2
REMARK VINA RESULT:      -8.8      1.593      2.422
REMARK  Name = 
REMARK  5 active torsions:
REMARK  status: ('A' for Active; 'I' for Inactive)
REMARK    1  A    between atoms: C_1  and  O_2
REMARK    2  A    between atoms: O_2  and  C_3
REMARK    3  A    between atoms: C_10  and  C_11
REMARK    4  A    between atoms: C_11  and  O_12
REMARK    5  A    between atoms: N_21  and  C_22
REMARK                            x       y       z     vdW  Elec       q    Type
REMARK                         _______ _______ _______ _____ _____    ______ ____
ROOT
ATOM      1  C   UNL     1      -0.256  11.512  18.860  0.00  0.00    +0.000 C 
ATOM      2  C   UNL     1      -1.595  11.057  18.303  0.00  0.00    +0.000 A 
ATOM      3  C   UNL     1      -1.916  10.005  17.454  0.00  0.00    +0.000 A 
ATOM      4  C   UNL     1      -3.268   9.716  17.226  0.00  0.00    +0.000 A 
ATOM      5  C   UNL     1      -4.285  10.482  17.823  0.00  0.00    +0.000 A 
ATOM      6  C   UNL     1      -3.963  11.551  18.655  0.00  0.00    +0.000 A 
ATOM      7  C   UNL     1      -2.621  11.802  18.877  0.00  0.00    +0.000 A 
ATOM      8  C   UNL     1      -2.029  12.778  19.784  0.00  0.00    +0.000 C 
ATOM      9  O   UNL     1      -2.676  13.564  20.451  0.00  0.00    +0.000 OA
ATOM     10  N   UNL     1      -0.650  12.609  19.747  0.00  0.00    +0.000 N 
ENDROOT
BRANCH   1  18
ATOM     11  C   UNL     1       4.329   4.963  18.682  0.00  0.00    +0.000 C 
ATOM     12  O   UNL     1       4.606   5.643  17.710  0.00  0.00    +0.000 OA
ATOM     13  N   UNL     1       3.454   5.243  19.698  0.00  0.00    +0.000 N 
ATOM     14  C   UNL     1       2.733   6.408  19.753  0.00  0.00    +0.000 A 
ATOM     15  N   UNL     1       2.689   7.388  18.879  0.00  0.00    +0.000 NA
ATOM     16  C   UNL     1       1.829   8.323  19.395  0.00  0.00    +0.000 A 
ATOM     17  C   UNL     1       1.391   9.542  18.849  0.00  0.00    +0.000 A 
ATOM     18  C   UNL     1       0.435  10.322  19.543  0.00  0.00    +0.000 A 
ATOM     19  C   UNL     1      -0.002   9.872  20.809  0.00  0.00    +0.000 A 
ATOM     20  C   UNL     1       0.442   8.671  21.377  0.00  0.00    +0.000 A 
ATOM     21  C   UNL     1       1.336   7.913  20.624  0.00  0.00    +0.000 A 
ATOM     22  N   UNL     1       1.913   6.682  20.819  0.00  0.00    +0.000 N 
ATOM     23  H   UNL     1       3.394   4.556  20.428  0.00  0.00    +0.000 HD
ATOM     24  H   UNL     1       1.750   6.077  21.608  0.00  0.00    +0.000 HD
BRANCH  11  26
ATOM     25  C   UNL     1       4.056   2.864  19.685  0.00  0.00    +0.000 C 
ATOM     26  O   UNL     1       4.896   3.749  18.938  0.00  0.00    +0.000 OA
ENDBRANCH  11  26
ENDBRANCH   1  18
BRANCH  10  27
ATOM     27  C   UNL     1       0.224  13.436  20.590  0.00  0.00    +0.000 C 
ATOM     28  C   UNL     1       1.706  13.012  20.767  0.00  0.00    +0.000 C 
ATOM     29  C   UNL     1       2.479  14.261  20.476  0.00  0.00    +0.000 A 
ATOM     30  C   UNL     1       3.855  14.430  20.518  0.00  0.00    +0.000 A 
ATOM     31  C   UNL     1       4.390  15.668  20.151  0.00  0.00    +0.000 A 
ATOM     32  C   UNL     1       3.553  16.717  19.749  0.00  0.00    +0.000 A 
ATOM     33  C   UNL     1       2.169  16.545  19.729  0.00  0.00    +0.000 A 
ATOM     34  C   UNL     1       1.650  15.313  20.101  0.00  0.00    +0.000 A 
ATOM     35  C   UNL     1       0.211  14.930  20.149  0.00  0.00    +0.000 C 
ENDBRANCH  10  27
BRANCH   1  36
ATOM     36  O   UNL     1       0.519  12.086  17.827  0.00  0.00    +0.000 OA
ATOM     37  H   UNL     1       0.422  11.527  17.044  0.00  0.00    +0.000 HD
ENDBRANCH   1  36
TORSDOF 4
ENDMDL
MODEL 3
REMARK VINA RESULT:      -8.6      3.490      8.471
REMARK  Name = 
REMARK  5 active torsions:
REMARK  status: ('A' for Active; 'I' for Inactive)
REMARK    1  A    between atoms: C_1  and  O_2
REMARK    2  A    between atoms: O_2  and  C_3
REMARK    3  A    between atoms: C_10  and  C_11
REMARK    4  A    between atoms: C_11  and  O_12
REMARK    5  A    between atoms: N_21  and  C_22
REMARK                            x       y       z     vdW  Elec       q    Type
REMARK                         _______ _______ _______ _____ _____    ______ ____
ROOT
ATOM      1  C   UNL     1       0.165  10.447  19.202  0.00  0.00    +0.000 C 
ATOM      2  C   UNL     1      -0.149  10.627  20.678  0.00  0.00    +0.000 A 
ATOM      3  C   UNL     1      -0.939  11.565  21.331  0.00  0.00    +0.000 A 
ATOM      4  C   UNL     1      -1.183  11.399  22.702  0.00  0.00    +0.000 A 
ATOM      5  C   UNL     1      -0.627  10.321  23.412  0.00  0.00    +0.000 A 
ATOM      6  C   UNL     1       0.184   9.394  22.762  0.00  0.00    +0.000 A 
ATOM      7  C   UNL     1       0.393   9.572  21.406  0.00  0.00    +0.000 A 
ATOM      8  C   UNL     1       1.099   8.692  20.484  0.00  0.00    +0.000 C 
ATOM      9  O   UNL     1       1.662   7.667  20.822  0.00  0.00    +0.000 OA
ATOM     10  N   UNL     1       0.974   9.226  19.208  0.00  0.00    +0.000 N 
ENDROOT
BRANCH   1  18
ATOM     11  C   UNL     1      -3.938   9.720  12.377  0.00  0.00    +0.000 C 
ATOM     12  O   UNL     1      -2.831   9.240  12.204  0.00  0.00    +0.000 OA
ATOM     13  N   UNL     1      -4.473  10.240  13.526  0.00  0.00    +0.000 N 
ATOM     14  C   UNL     1      -3.780  10.285  14.709  0.00  0.00    +0.000 A 
ATOM     15  N   UNL     1      -2.540   9.926  14.949  0.00  0.00    +0.000 NA
ATOM     16  C   UNL     1      -2.324  10.160  16.283  0.00  0.00    +0.000 A 
ATOM     17  C   UNL     1      -1.158   9.992  17.048  0.00  0.00    +0.000 A 
ATOM     18  C   UNL     1      -1.151  10.368  18.414  0.00  0.00    +0.000 A 
ATOM     19  C   UNL     1      -2.354  10.844  18.981  0.00  0.00    +0.000 A 
ATOM     20  C   UNL     1      -3.531  10.996  18.236  0.00  0.00    +0.000 A 
ATOM     21  C   UNL     1      -3.465  10.668  16.884  0.00  0.00    +0.000 A 
ATOM     22  N   UNL     1      -4.371  10.756  15.855  0.00  0.00    +0.000 N 
ATOM     23  H   UNL     1      -5.422  10.559  13.463  0.00  0.00    +0.000 HD
ATOM     24  H   UNL     1      -5.308  11.118  15.930  0.00  0.00    +0.000 HD
BRANCH  11  26
ATOM     25  C   UNL     1      -6.157   9.267  11.778  0.00  0.00    +0.000 C 
ATOM     26  O   UNL     1      -4.885   9.801  11.398  0.00  0.00    +0.000 OA
ENDBRANCH  11  26
ENDBRANCH   1  18
BRANCH  10  27
ATOM     27  C   UNL     1       1.560   8.535  18.050  0.00  0.00    +0.000 C 
ATOM     28  C   UNL     1       3.076   8.705  17.770  0.00  0.00    +0.000 C 
ATOM     29  C   UNL     1       3.573   7.303  17.594  0.00  0.00    +0.000 A 
ATOM     30  C   UNL     1       4.866   6.898  17.300  0.00  0.00    +0.000 A 
ATOM     31  C   UNL     1       5.142   5.530  17.235  0.00  0.00    +0.000 A 
ATOM     32  C   UNL     1       4.131   4.586  17.463  0.00  0.00    +0.000 A 
ATOM     33  C   UNL     1       2.829   5.003  17.738  0.00  0.00    +0.000 A 
ATOM     34  C   UNL     1       2.567   6.364  17.795  0.00  0.00    +0.000 A 
ATOM     35  C   UNL     1       1.252   7.008  18.071  0.00  0.00    +0.000 C 
ENDBRANCH  10  27
BRANCH   1  36
ATOM     36  O   UNL     1       1.012  11.490  18.765  0.00  0.00    +0.000 OA
ATOM     37  H   UNL     1       0.721  11.750  17.879  0.00  0.00    +0.000 HD
ENDBRANCH   1  36
TORSDOF 4
ENDMDL
MODEL 4
REMARK VINA RESULT:      -8.6      3.122      9.209
REMARK  Name = 
REMARK  5 active torsions:
REMARK  status: ('A' for Active; 'I' for Inactive)
REMARK    1  A    between atoms: C_1  and  O_2
REMARK    2  A    between atoms: O_2  and  C_3
REMARK    3  A    between atoms: C_10  and  C_11
REMARK    4  A    between atoms: C_11  and  O_12
REMARK    5  A    between atoms: N_21  and  C_22
REMARK                            x       y       z     vdW  Elec       q    Type
REMARK                         _______ _______ _______ _____ _____    ______ ____
ROOT
ATOM      1  C   UNL     1       3.659   5.235  19.189  0.00  0.00    +0.000 C 
ATOM      2  C   UNL     1       2.564   4.188  19.310  0.00  0.00    +0.000 A 
ATOM      3  C   UNL     1       1.504   4.081  20.202  0.00  0.00    +0.000 A 
ATOM      4  C   UNL     1       0.542   3.086  19.983  0.00  0.00    +0.000 A 
ATOM      5  C   UNL     1       0.649   2.197  18.899  0.00  0.00    +0.000 A 
ATOM      6  C   UNL     1       1.724   2.290  18.018  0.00  0.00    +0.000 A 
ATOM      7  C   UNL     1       2.649   3.293  18.248  0.00  0.00    +0.000 A 
ATOM      8  C   UNL     1       3.788   3.670  17.419  0.00  0.00    +0.000 C 
ATOM      9  O   UNL     1       4.109   3.085  16.401  0.00  0.00    +0.000 OA
ATOM     10  N   UNL     1       4.377   4.790  17.992  0.00  0.00    +0.000 N 
ENDROOT
BRANCH   1  18
ATOM     11  C   UNL     1      -0.646  11.236  22.256  0.00  0.00    +0.000 C 
ATOM     12  O   UNL     1      -0.195  10.585  23.182  0.00  0.00    +0.000 OA
ATOM     13  N   UNL     1      -0.435  11.070  20.913  0.00  0.00    +0.000 N 
ATOM     14  C   UNL     1       0.371  10.081  20.409  0.00  0.00    +0.000 A 
ATOM     15  N   UNL     1       1.004   9.128  21.053  0.00  0.00    +0.000 NA
ATOM     16  C   UNL     1       1.675   8.403  20.103  0.00  0.00    +0.000 A 
ATOM     17  C   UNL     1       2.470   7.252  20.245  0.00  0.00    +0.000 A 
ATOM     18  C   UNL     1       3.016   6.627  19.097  0.00  0.00    +0.000 A 
ATOM     19  C   UNL     1       2.793   7.230  17.839  0.00  0.00    +0.000 A 
ATOM     20  C   UNL     1       2.021   8.390  17.684  0.00  0.00    +0.000 A 
ATOM     21  C   UNL     1       1.458   8.928  18.839  0.00  0.00    +0.000 A 
ATOM     22  N   UNL     1       0.609   9.984  19.060  0.00  0.00    +0.000 N 
ATOM     23  H   UNL     1      -0.880  11.739  20.312  0.00  0.00    +0.000 HD
ATOM     24  H   UNL     1       0.217  10.579  18.348  0.00  0.00    +0.000 HD
BRANCH  11  26
ATOM     25  C   UNL     1      -2.617  12.043  23.229  0.00  0.00    +0.000 C 
ATOM     26  O   UNL     1      -1.467  12.312  22.423  0.00  0.00    +0.000 OA
ENDBRANCH  11  26
ENDBRANCH   1  18
BRANCH  10  27
ATOM     27  C   UNL     1       5.540   5.427  17.358  0.00  0.00    +0.000 C 
ATOM     28  C   UNL     1       5.407   6.887  16.853  0.00  0.00    +0.000 C 
ATOM     29  C   UNL     1       6.600   7.583  17.432  0.00  0.00    +0.000 A 
ATOM     30  C   UNL     1       6.966   8.910  17.264  0.00  0.00    +0.000 A 
ATOM     31  C   UNL     1       8.091   9.386  17.941  0.00  0.00    +0.000 A 
ATOM     32  C   UNL     1       8.834   8.540  18.775  0.00  0.00    +0.000 A 
ATOM     33  C   UNL     1       8.470   7.202  18.923  0.00  0.00    +0.000 A 
ATOM     34  C   UNL     1       7.354   6.739  18.241  0.00  0.00    +0.000 A 
ATOM     35  C   UNL     1       6.805   5.355  18.263  0.00  0.00    +0.000 C 
ENDBRANCH  10  27
BRANCH   1  36
ATOM     36  O   UNL     1       4.560   5.110  20.270  0.00  0.00    +0.000 OA
ATOM     37  H   UNL     1       4.226   5.661  20.993  0.00  0.00    +0.000 HD
ENDBRANCH   1  36
TORSDOF 4
ENDMDL
MODEL 5
REMARK VINA RESULT:      -8.5      1.776      2.548
REMARK  Name = 
REMARK  5 active torsions:
REMARK  status: ('A' for Active; 'I' for Inactive)
REMARK    1  A    between atoms: C_1  and  O_2
REMARK    2  A    between atoms: O_2  and  C_3
REMARK    3  A    between atoms: C_10  and  C_11
REMARK    4  A    between atoms: C_11  and  O_12
REMARK    5  A    between atoms: N_21  and  C_22
REMARK                            x       y       z     vdW  Elec       q    Type
REMARK                         _______ _______ _______ _____ _____    ______ ____
ROOT
ATOM      1  C   UNL     1      -0.265  11.801  18.778  0.00  0.00    +0.000 C 
ATOM      2  C   UNL     1      -1.607  11.331  18.242  0.00  0.00    +0.000 A 
ATOM      3  C   UNL     1      -1.917  10.392  17.265  0.00  0.00    +0.000 A 
ATOM      4  C   UNL     1      -3.260  10.037  17.079  0.00  0.00    +0.000 A 
ATOM      5  C   UNL     1      -4.280  10.627  17.846  0.00  0.00    +0.000 A 
ATOM      6  C   UNL     1      -3.971  11.585  18.809  0.00  0.00    +0.000 A 
ATOM      7  C   UNL     1      -2.637  11.903  18.984  0.00  0.00    +0.000 A 
ATOM      8  C   UNL     1      -2.047  12.778  19.989  0.00  0.00    +0.000 C 
ATOM      9  O   UNL     1      -2.696  13.406  20.806  0.00  0.00    +0.000 OA
ATOM     10  N   UNL     1      -0.667  12.723  19.843  0.00  0.00    +0.000 N 
ENDROOT
BRANCH   1  18
ATOM     11  C   UNL     1       4.629   5.648  17.314  0.00  0.00    +0.000 C 
ATOM     12  O   UNL     1       4.775   6.466  16.422  0.00  0.00    +0.000 OA
ATOM     13  N   UNL     1       3.841   5.735  18.431  0.00  0.00    +0.000 N 
ATOM     14  C   UNL     1       3.067   6.833  18.706  0.00  0.00    +0.000 A 
ATOM     15  N   UNL     1       2.887   7.914  17.981  0.00  0.00    +0.000 NA
ATOM     16  C   UNL     1       2.031   8.714  18.692  0.00  0.00    +0.000 A 
ATOM     17  C   UNL     1       1.478   9.962  18.356  0.00  0.00    +0.000 A 
ATOM     18  C   UNL     1       0.551  10.581  19.231  0.00  0.00    +0.000 A 
ATOM     19  C   UNL     1       0.262   9.942  20.457  0.00  0.00    +0.000 A 
ATOM     20  C   UNL     1       0.822   8.708  20.816  0.00  0.00    +0.000 A 
ATOM     21  C   UNL     1       1.680   8.116  19.892  0.00  0.00    +0.000 A 
ATOM     22  N   UNL     1       2.339   6.911  19.867  0.00  0.00    +0.000 N 
ATOM     23  H   UNL     1       3.887   4.957  19.063  0.00  0.00    +0.000 HD
ATOM     24  H   UNL     1       2.284   6.199  20.577  0.00  0.00    +0.000 HD
BRANCH  11  26
ATOM     25  C   UNL     1       6.584   4.484  16.758  0.00  0.00    +0.000 C 
ATOM     26  O   UNL     1       5.283   4.452  17.352  0.00  0.00    +0.000 OA
ENDBRANCH  11  26
ENDBRANCH   1  18
BRANCH  10  27
ATOM     27  C   UNL     1       0.209  13.483  20.747  0.00  0.00    +0.000 C 
ATOM     28  C   UNL     1       1.698  13.064  20.867  0.00  0.00    +0.000 C 
ATOM     29  C   UNL     1       2.452  14.344  20.680  0.00  0.00    +0.000 A 
ATOM     30  C   UNL     1       3.826  14.526  20.720  0.00  0.00    +0.000 A 
ATOM     31  C   UNL     1       4.342  15.799  20.460  0.00  0.00    +0.000 A 
ATOM     32  C   UNL     1       3.486  16.869  20.163  0.00  0.00    +0.000 A 
ATOM     33  C   UNL     1       2.105  16.681  20.145  0.00  0.00    +0.000 A 
ATOM     34  C   UNL     1       1.605  15.414  20.411  0.00  0.00    +0.000 A 
ATOM     35  C   UNL     1       0.172  15.009  20.442  0.00  0.00    +0.000 C 
ENDBRANCH  10  27
BRANCH   1  36
ATOM     36  O   UNL     1       0.394  12.578  17.799  0.00  0.00    +0.000 OA
ATOM     37  H   UNL     1      -0.286  12.982  17.241  0.00  0.00    +0.000 HD
ENDBRANCH   1  36
TORSDOF 4
ENDMDL
MODEL 6
REMARK VINA RESULT:      -8.4      3.664      6.675
REMARK  Name = 
REMARK  5 active torsions:
REMARK  status: ('A' for Active; 'I' for Inactive)
REMARK    1  A    between atoms: C_1  and  O_2
REMARK    2  A    between atoms: O_2  and  C_3
REMARK    3  A    between atoms: C_10  and  C_11
REMARK    4  A    between atoms: C_11  and  O_12
REMARK    5  A    between atoms: N_21  and  C_22
REMARK                            x       y       z     vdW  Elec       q    Type
REMARK                         _______ _______ _______ _____ _____    ______ ____
ROOT
ATOM      1  C   UNL     1      -0.219  11.225  19.967  0.00  0.00    +0.000 C 
ATOM      2  C   UNL     1       0.505  10.042  19.347  0.00  0.00    +0.000 A 
ATOM      3  C   UNL     1       0.729   9.710  18.016  0.00  0.00    +0.000 A 
ATOM      4  C   UNL     1       1.574   8.630  17.727  0.00  0.00    +0.000 A 
ATOM      5  C   UNL     1       2.170   7.879  18.756  0.00  0.00    +0.000 A 
ATOM      6  C   UNL     1       1.926   8.197  20.090  0.00  0.00    +0.000 A 
ATOM      7  C   UNL     1       1.103   9.280  20.345  0.00  0.00    +0.000 A 
ATOM      8  C   UNL     1       0.786   9.880  21.635  0.00  0.00    +0.000 C 
ATOM      9  O   UNL     1       1.185   9.449  22.700  0.00  0.00    +0.000 OA
ATOM     10  N   UNL     1      -0.002  11.000  21.399  0.00  0.00    +0.000 N 
ENDROOT
BRANCH   1  18
ATOM     11  C   UNL     1       5.774  16.436  19.032  0.00  0.00    +0.000 C 
ATOM     12  O   UNL     1       6.258  15.351  19.304  0.00  0.00    +0.000 OA
ATOM     13  N   UNL     1       4.458  16.759  18.836  0.00  0.00    +0.000 N 
ATOM     14  C   UNL     1       3.449  15.833  18.923  0.00  0.00    +0.000 A 
ATOM     15  N   UNL     1       3.526  14.563  19.250  0.00  0.00    +0.000 NA
ATOM     16  C   UNL     1       2.247  14.074  19.186  0.00  0.00    +0.000 A 
ATOM     17  C   UNL     1       1.760  12.788  19.478  0.00  0.00    +0.000 A 
ATOM     18  C   UNL     1       0.370  12.527  19.404  0.00  0.00    +0.000 A 
ATOM     19  C   UNL     1      -0.482  13.567  18.968  0.00  0.00    +0.000 A 
ATOM     20  C   UNL     1      -0.009  14.848  18.651  0.00  0.00    +0.000 A 
ATOM     21  C   UNL     1       1.359  15.065  18.800  0.00  0.00    +0.000 A 
ATOM     22  N   UNL     1       2.148  16.181  18.658  0.00  0.00    +0.000 N 
ATOM     23  H   UNL     1       4.272  17.713  18.588  0.00  0.00    +0.000 HD
ATOM     24  H   UNL     1       1.822  17.102  18.413  0.00  0.00    +0.000 HD
BRANCH  11  26
ATOM     25  C   UNL     1       7.898  17.314  18.580  0.00  0.00    +0.000 C 
ATOM     26  O   UNL     1       6.516  17.566  18.850  0.00  0.00    +0.000 OA
ENDBRANCH  11  26
ENDBRANCH   1  18
BRANCH  10  27
ATOM     27  C   UNL     1      -0.456  11.840  22.516  0.00  0.00    +0.000 C 
ATOM     28  C   UNL     1      -0.645  13.361  22.275  0.00  0.00    +0.000 C 
ATOM     29  C   UNL     1      -2.013  13.648  22.813  0.00  0.00    +0.000 A 
ATOM     30  C   UNL     1      -2.660  14.873  22.861  0.00  0.00    +0.000 A 
ATOM     31  C   UNL     1      -3.968  14.922  23.351  0.00  0.00    +0.000 A 
ATOM     32  C   UNL     1      -4.613  13.755  23.784  0.00  0.00    +0.000 A 
ATOM     33  C   UNL     1      -3.947  12.530  23.751  0.00  0.00    +0.000 A 
ATOM     34  C   UNL     1      -2.647  12.496  23.267  0.00  0.00    +0.000 A 
ATOM     35  C   UNL     1      -1.770  11.297  23.152  0.00  0.00    +0.000 C 
ENDBRANCH  10  27
BRANCH   1  36
ATOM     36  O   UNL     1      -1.609  11.103  19.746  0.00  0.00    +0.000 OA
ATOM     37  H   UNL     1      -2.060  11.584  20.455  0.00  0.00    +0.000 HD
ENDBRANCH   1  36
TORSDOF 4
ENDMDL
MODEL 7
REMARK VINA RESULT:      -8.3      1.180      1.505
REMARK  Name = 
REMARK  5 active torsions:
REMARK  status: ('A' for Active; 'I' for Inactive)
REMARK    1  A    between atoms: C_1  and  O_2
REMARK    2  A    between atoms: O_2  and  C_3
REMARK    3  A    between atoms: C_10  and  C_11
REMARK    4  A    between atoms: C_11  and  O_12
REMARK    5  A    between atoms: N_21  and  C_22
REMARK                            x       y       z     vdW  Elec       q    Type
REMARK                         _______ _______ _______ _____ _____    ______ ____
ROOT
ATOM      1  C   UNL     1       0.424  11.282  18.773  0.00  0.00    +0.000 C 
ATOM      2  C   UNL     1      -0.959  10.957  18.234  0.00  0.00    +0.000 A 
ATOM      3  C   UNL     1      -1.393   9.927  17.408  0.00  0.00    +0.000 A 
ATOM      4  C   UNL     1      -2.770   9.775  17.194  0.00  0.00    +0.000 A 
ATOM      5  C   UNL     1      -3.697  10.653  17.783  0.00  0.00    +0.000 A 
ATOM      6  C   UNL     1      -3.260  11.699  18.591  0.00  0.00    +0.000 A 
ATOM      7  C   UNL     1      -1.897  11.814  18.800  0.00  0.00    +0.000 A 
ATOM      8  C   UNL     1      -1.200  12.741  19.683  0.00  0.00    +0.000 C 
ATOM      9  O   UNL     1      -1.757  13.602  20.338  0.00  0.00    +0.000 OA
ATOM     10  N   UNL     1       0.153  12.430  19.640  0.00  0.00    +0.000 N 
ENDROOT
BRANCH   1  18
ATOM     11  C   UNL     1       3.889   4.075  18.653  0.00  0.00    +0.000 C 
ATOM     12  O   UNL     1       4.157   4.639  17.607  0.00  0.00    +0.000 OA
ATOM     13  N   UNL     1       3.188   4.557  19.727  0.00  0.00    +0.000 N 
ATOM     14  C   UNL     1       2.668   5.825  19.761  0.00  0.00    +0.000 A 
ATOM     15  N   UNL     1       2.678   6.743  18.822  0.00  0.00    +0.000 NA
ATOM     16  C   UNL     1       2.037   7.836  19.346  0.00  0.00    +0.000 A 
ATOM     17  C   UNL     1       1.735   9.073  18.752  0.00  0.00    +0.000 A 
ATOM     18  C   UNL     1       0.996  10.040  19.475  0.00  0.00    +0.000 A 
ATOM     19  C   UNL     1       0.640   9.748  20.810  0.00  0.00    +0.000 A 
ATOM     20  C   UNL     1       0.953   8.527  21.425  0.00  0.00    +0.000 A 
ATOM     21  C   UNL     1       1.628   7.589  20.647  0.00  0.00    +0.000 A 
ATOM     22  N   UNL     1       2.026   6.295  20.880  0.00  0.00    +0.000 N 
ATOM     23  H   UNL     1       3.105   3.936  20.511  0.00  0.00    +0.000 HD
ATOM     24  H   UNL     1       1.861   5.775  21.727  0.00  0.00    +0.000 HD
BRANCH  11  26
ATOM     25  C   UNL     1       3.421   1.792  18.421  0.00  0.00    +0.000 C 
ATOM     26  O   UNL     1       4.286   2.804  18.946  0.00  0.00    +0.000 OA
ENDBRANCH  11  26
ENDBRANCH   1  18
BRANCH  10  27
ATOM     27  C   UNL     1       1.115  13.179  20.462  0.00  0.00    +0.000 C 
ATOM     28  C   UNL     1       1.897  14.351  19.812  0.00  0.00    +0.000 C 
ATOM     29  C   UNL     1       1.716  15.486  20.771  0.00  0.00    +0.000 A 
ATOM     30  C   UNL     1       2.238  16.766  20.670  0.00  0.00    +0.000 A 
ATOM     31  C   UNL     1       1.901  17.707  21.647  0.00  0.00    +0.000 A 
ATOM     32  C   UNL     1       1.052  17.362  22.708  0.00  0.00    +0.000 A 
ATOM     33  C   UNL     1       0.547  16.066  22.812  0.00  0.00    +0.000 A 
ATOM     34  C   UNL     1       0.894  15.140  21.839  0.00  0.00    +0.000 A 
ATOM     35  C   UNL     1       0.465  13.715  21.771  0.00  0.00    +0.000 C 
ENDBRANCH  10  27
BRANCH   1  36
ATOM     36  O   UNL     1       1.246  11.754  17.724  0.00  0.00    +0.000 OA
ATOM     37  H   UNL     1       1.242  11.083  17.026  0.00  0.00    +0.000 HD
ENDBRANCH   1  36
TORSDOF 4
ENDMDL
MODEL 8
REMARK VINA RESULT:      -8.0      3.284      8.677
REMARK  Name = 
REMARK  5 active torsions:
REMARK  status: ('A' for Active; 'I' for Inactive)
REMARK    1  A    between atoms: C_1  and  O_2
REMARK    2  A    between atoms: O_2  and  C_3
REMARK    3  A    between atoms: C_10  and  C_11
REMARK    4  A    between atoms: C_11  and  O_12
REMARK    5  A    between atoms: N_21  and  C_22
REMARK                            x       y       z     vdW  Elec       q    Type
REMARK                         _______ _______ _______ _____ _____    ______ ____
ROOT
ATOM      1  C   UNL     1      -0.209  12.686  18.690  0.00  0.00    +0.000 C 
ATOM      2  C   UNL     1       0.637  13.948  18.660  0.00  0.00    +0.000 A 
ATOM      3  C   UNL     1       0.295  15.276  18.880  0.00  0.00    +0.000 A 
ATOM      4  C   UNL     1       1.319  16.231  18.946  0.00  0.00    +0.000 A 
ATOM      5  C   UNL     1       2.665  15.864  18.772  0.00  0.00    +0.000 A 
ATOM      6  C   UNL     1       3.006  14.536  18.528  0.00  0.00    +0.000 A 
ATOM      7  C   UNL     1       1.976  13.613  18.487  0.00  0.00    +0.000 A 
ATOM      8  C   UNL     1       2.075  12.164  18.362  0.00  0.00    +0.000 C 
ATOM      9  O   UNL     1       3.126  11.566  18.219  0.00  0.00    +0.000 OA
ATOM     10  N   UNL     1       0.792  11.641  18.461  0.00  0.00    +0.000 N 
ENDROOT
BRANCH   1  18
ATOM     11  C   UNL     1      -6.917  12.443  23.035  0.00  0.00    +0.000 C 
ATOM     12  O   UNL     1      -7.183  12.055  21.911  0.00  0.00    +0.000 OA
ATOM     13  N   UNL     1      -5.700  12.802  23.549  0.00  0.00    +0.000 N 
ATOM     14  C   UNL     1      -4.545  12.762  22.810  0.00  0.00    +0.000 A 
ATOM     15  N   UNL     1      -4.392  12.458  21.541  0.00  0.00    +0.000 NA
ATOM     16  C   UNL     1      -3.049  12.560  21.282  0.00  0.00    +0.000 A 
ATOM     17  C   UNL     1      -2.350  12.384  20.076  0.00  0.00    +0.000 A 
ATOM     18  C   UNL     1      -0.953  12.610  20.032  0.00  0.00    +0.000 A 
ATOM     19  C   UNL     1      -0.293  12.946  21.235  0.00  0.00    +0.000 A 
ATOM     20  C   UNL     1      -0.972  13.104  22.450  0.00  0.00    +0.000 A 
ATOM     21  C   UNL     1      -2.354  12.928  22.423  0.00  0.00    +0.000 A 
ATOM     22  N   UNL     1      -3.333  13.070  23.377  0.00  0.00    +0.000 N 
ATOM     23  H   UNL     1      -5.692  13.067  24.517  0.00  0.00    +0.000 HD
ATOM     24  H   UNL     1      -3.185  13.362  24.329  0.00  0.00    +0.000 HD
BRANCH  11  26
ATOM     25  C   UNL     1      -7.916  13.885  24.588  0.00  0.00    +0.000 C 
ATOM     26  O   UNL     1      -7.846  12.571  24.026  0.00  0.00    +0.000 OA
ENDBRANCH  11  26
ENDBRANCH   1  18
BRANCH  10  27
ATOM     27  C   UNL     1       0.573  10.188  18.405  0.00  0.00    +0.000 C 
ATOM     28  C   UNL     1       1.462   9.337  17.461  0.00  0.00    +0.000 C 
ATOM     29  C   UNL     1       1.954   8.222  18.331  0.00  0.00    +0.000 A 
ATOM     30  C   UNL     1       2.772   7.164  17.963  0.00  0.00    +0.000 A 
ATOM     31  C   UNL     1       3.169   6.252  18.944  0.00  0.00    +0.000 A 
ATOM     32  C   UNL     1       2.750   6.404  20.273  0.00  0.00    +0.000 A 
ATOM     33  C   UNL     1       1.911   7.459  20.629  0.00  0.00    +0.000 A 
ATOM     34  C   UNL     1       1.519   8.355  19.645  0.00  0.00    +0.000 A 
ATOM     35  C   UNL     1       0.631   9.538  19.819  0.00  0.00    +0.000 C 
ENDBRANCH  10  27
BRANCH   1  36
ATOM     36  O   UNL     1      -1.075  12.665  17.573  0.00  0.00    +0.000 OA
ATOM     37  H   UNL     1      -0.566  12.960  16.804  0.00  0.00    +0.000 HD
ENDBRANCH   1  36
TORSDOF 4
ENDMDL
MODEL 9
REMARK VINA RESULT:      -7.9      2.269      4.710
REMARK  Name = 
REMARK  5 active torsions:
REMARK  status: ('A' for Active; 'I' for Inactive)
REMARK    1  A    between atoms: C_1  and  O_2
REMARK    2  A    between atoms: O_2  and  C_3
REMARK    3  A    between atoms: C_10  and  C_11
REMARK    4  A    between atoms: C_11  and  O_12
REMARK    5  A    between atoms: N_21  and  C_22
REMARK                            x       y       z     vdW  Elec       q    Type
REMARK                         _______ _______ _______ _____ _____    ______ ____
ROOT
ATOM      1  C   UNL     1       0.311  11.958  20.729  0.00  0.00    +0.000 C 
ATOM      2  C   UNL     1       1.304  13.089  20.515  0.00  0.00    +0.000 A 
ATOM      3  C   UNL     1       2.682  13.132  20.683  0.00  0.00    +0.000 A 
ATOM      4  C   UNL     1       3.375  14.273  20.256  0.00  0.00    +0.000 A 
ATOM      5  C   UNL     1       2.695  15.364  19.687  0.00  0.00    +0.000 A 
ATOM      6  C   UNL     1       1.310  15.330  19.540  0.00  0.00    +0.000 A 
ATOM      7  C   UNL     1       0.655  14.184  19.953  0.00  0.00    +0.000 A 
ATOM      8  C   UNL     1      -0.758  13.856  19.807  0.00  0.00    +0.000 C 
ATOM      9  O   UNL     1      -1.582  14.611  19.325  0.00  0.00    +0.000 OA
ATOM     10  N   UNL     1      -0.945  12.565  20.282  0.00  0.00    +0.000 N 
ENDROOT
BRANCH   1  18
ATOM     11  C   UNL     1       2.866   4.393  20.299  0.00  0.00    +0.000 C 
ATOM     12  O   UNL     1       2.276   4.531  21.356  0.00  0.00    +0.000 OA
ATOM     13  N   UNL     1       3.036   5.304  19.290  0.00  0.00    +0.000 N 
ATOM     14  C   UNL     1       2.522   6.574  19.348  0.00  0.00    +0.000 A 
ATOM     15  N   UNL     1       1.870   7.153  20.330  0.00  0.00    +0.000 NA
ATOM     16  C   UNL     1       1.567   8.418  19.897  0.00  0.00    +0.000 A 
ATOM     17  C   UNL     1       0.917   9.467  20.568  0.00  0.00    +0.000 A 
ATOM     18  C   UNL     1       0.773  10.726  19.936  0.00  0.00    +0.000 A 
ATOM     19  C   UNL     1       1.237  10.864  18.609  0.00  0.00    +0.000 A 
ATOM     20  C   UNL     1       1.868   9.820  17.918  0.00  0.00    +0.000 A 
ATOM     21  C   UNL     1       2.037   8.623  18.609  0.00  0.00    +0.000 A 
ATOM     22  N   UNL     1       2.658   7.439  18.290  0.00  0.00    +0.000 N 
ATOM     23  H   UNL     1       3.532   4.977  18.482  0.00  0.00    +0.000 HD
ATOM     24  H   UNL     1       3.143   7.246  17.429  0.00  0.00    +0.000 HD
BRANCH  11  26
ATOM     25  C   UNL     1       4.685   3.421  19.188  0.00  0.00    +0.000 C 
ATOM     26  O   UNL     1       3.472   3.230  19.921  0.00  0.00    +0.000 OA
ENDBRANCH  11  26
ENDBRANCH   1  18
BRANCH  10  27
ATOM     27  C   UNL     1      -2.274  11.938  20.233  0.00  0.00    +0.000 C 
ATOM     28  C   UNL     1      -3.493  12.734  20.771  0.00  0.00    +0.000 C 
ATOM     29  C   UNL     1      -4.506  12.632  19.673  0.00  0.00    +0.000 A 
ATOM     30  C   UNL     1      -5.789  13.157  19.659  0.00  0.00    +0.000 A 
ATOM     31  C   UNL     1      -6.565  13.003  18.507  0.00  0.00    +0.000 A 
ATOM     32  C   UNL     1      -6.054  12.333  17.387  0.00  0.00    +0.000 A 
ATOM     33  C   UNL     1      -4.770  11.792  17.416  0.00  0.00    +0.000 A 
ATOM     34  C   UNL     1      -4.012  11.946  18.568  0.00  0.00    +0.000 A 
ATOM     35  C   UNL     1      -2.629  11.444  18.800  0.00  0.00    +0.000 C 
ENDBRANCH  10  27
BRANCH   1  36
ATOM     36  O   UNL     1       0.167  11.706  22.112  0.00  0.00    +0.000 OA
ATOM     37  H   UNL     1       0.497  10.812  22.281  0.00  0.00    +0.000 HD
ENDBRANCH   1  36
TORSDOF 4
ENDMDL
