MODEL 1
REMARK VINA RESULT:      -7.4      0.000      0.000
REMARK  Name = 
REMARK  9 active torsions:
REMARK  status: ('A' for Active; 'I' for Inactive)
REMARK    1  A    between atoms: C_1  and  C_2
REMARK    2  A    between atoms: C_2  and  C_3
REMARK    3  A    between atoms: C_3  and  C_4
REMARK    4  A    between atoms: C_4  and  C_5
REMARK    5  A    between atoms: C_6  and  C_7
REMARK    6  A    between atoms: C_9  and  C_10
REMARK    7  A    between atoms: C_14  and  C_15
REMARK    8  A    between atoms: C_14  and  C_16
REMARK    9  A    between atoms: C_18  and  O_19
REMARK                            x       y       z     vdW  Elec       q    Type
REMARK                         _______ _______ _______ _____ _____    ______ ____
ROOT
ATOM      1  C   UNL     1       5.093   4.865  18.291  0.00  0.00    +0.000 C 
ATOM      2  C   UNL     1       4.712   6.290  17.943  0.00  0.00    +0.000 C 
ATOM      3  C   UNL     1       3.515   6.875  17.980  0.00  0.00    +0.000 C 
ATOM      4  C   UNL     1       3.209   8.281  17.540  0.00  0.00    +0.000 C 
ATOM      5  N   UNL     1       2.441   6.175  18.406  0.00  0.00    +0.000 NA
ATOM      6  C   UNL     1       2.640   4.969  18.828  0.00  0.00    +0.000 C 
ATOM      7  C   UNL     1       1.401   4.318  19.274  0.00  0.00    +0.000 C 
ATOM      8  C   UNL     1       1.573   2.883  19.792  0.00  0.00    +0.000 C 
ATOM      9  C   UNL     1       0.834   2.090  18.685  0.00  0.00    +0.000 C 
ATOM     10  C   UNL     1       1.220   3.077  21.287  0.00  0.00    +0.000 C 
ATOM     11  C   UNL     1       2.939   2.181  19.854  0.00  0.00    +0.000 C 
ATOM     12  C   UNL     1       4.076   3.012  19.455  0.00  0.00    +0.000 C 
ATOM     13  C   UNL     1       3.931   4.225  18.925  0.00  0.00    +0.000 C 
ENDROOT
BRANCH   2  14
ATOM     14  C   UNL     1       5.942   7.019  17.425  0.00  0.00    +0.000 C 
ATOM     15  N   UNL     1       6.962   7.624  16.995  0.00  0.00    +0.000 NA
ENDBRANCH   2  14
BRANCH  12  16
ATOM     16  O   UNL     1       5.317   2.407  19.595  0.00  0.00    +0.000 OA
ATOM     17  H   UNL     1       5.262   1.480  19.305  0.00  0.00    +0.000 HD
ENDBRANCH  12  16
BRANCH   1  18
ATOM     18  C   UNL     1       5.518   4.021  17.036  0.00  0.00    +0.000 C 
BRANCH  18  19
ATOM     19  C   UNL     1       4.697   4.157  15.742  0.00  0.00    +0.000 C 
BRANCH  19  21
ATOM     20  C   UNL     1       6.988   4.646  14.838  0.00  0.00    +0.000 C 
ATOM     21  C   UNL     1       5.531   4.395  14.481  0.00  0.00    +0.000 C 
ENDBRANCH  19  21
ENDBRANCH  18  19
ENDBRANCH   1  18
TORSDOF 5
ENDMDL
MODEL 2
REMARK VINA RESULT:      -6.8      2.756      5.569
REMARK  Name = 
REMARK  9 active torsions:
REMARK  status: ('A' for Active; 'I' for Inactive)
REMARK    1  A    between atoms: C_1  and  C_2
REMARK    2  A    between atoms: C_2  and  C_3
REMARK    3  A    between atoms: C_3  and  C_4
REMARK    4  A    between atoms: C_4  and  C_5
REMARK    5  A    between atoms: C_6  and  C_7
REMARK    6  A    between atoms: C_9  and  C_10
REMARK    7  A    between atoms: C_14  and  C_15
REMARK    8  A    between atoms: C_14  and  C_16
REMARK    9  A    between atoms: C_18  and  O_19
REMARK                            x       y       z     vdW  Elec       q    Type
REMARK                         _______ _______ _______ _____ _____    ______ ____
ROOT
ATOM      1  C   UNL     1       2.854   6.301  19.804  0.00  0.00    +0.000 C 
ATOM      2  C   UNL     1       3.817   5.931  18.693  0.00  0.00    +0.000 C 
ATOM      3  C   UNL     1       4.020   6.531  17.520  0.00  0.00    +0.000 C 
ATOM      4  C   UNL     1       4.945   6.050  16.435  0.00  0.00    +0.000 C 
ATOM      5  N   UNL     1       3.330   7.651  17.213  0.00  0.00    +0.000 NA
ATOM      6  C   UNL     1       2.541   8.136  18.115  0.00  0.00    +0.000 C 
ATOM      7  C   UNL     1       1.860   9.358  17.667  0.00  0.00    +0.000 C 
ATOM      8  C   UNL     1       0.910   9.985  18.699  0.00  0.00    +0.000 C 
ATOM      9  C   UNL     1      -0.457   9.739  18.013  0.00  0.00    +0.000 C 
ATOM     10  C   UNL     1       1.652  11.309  19.000  0.00  0.00    +0.000 C 
ATOM     11  C   UNL     1       0.696   9.390  20.099  0.00  0.00    +0.000 C 
ATOM     12  C   UNL     1       1.525   8.223  20.406  0.00  0.00    +0.000 C 
ATOM     13  C   UNL     1       2.287   7.621  19.493  0.00  0.00    +0.000 C 
ENDROOT
BRANCH   2  14
ATOM     14  C   UNL     1       4.531   4.641  19.064  0.00  0.00    +0.000 C 
ATOM     15  N   UNL     1       5.122   3.571  19.373  0.00  0.00    +0.000 NA
ENDBRANCH   2  14
BRANCH  12  16
ATOM     16  O   UNL     1       1.396   7.740  21.700  0.00  0.00    +0.000 OA
ATOM     17  H   UNL     1       2.160   8.026  22.231  0.00  0.00    +0.000 HD
ENDBRANCH  12  16
BRANCH   1  18
ATOM     18  C   UNL     1       1.683   5.268  19.967  0.00  0.00    +0.000 C 
BRANCH  18  19
ATOM     19  C   UNL     1       1.764   4.231  21.100  0.00  0.00    +0.000 C 
BRANCH  19  21
ATOM     20  C   UNL     1       0.951   2.764  19.232  0.00  0.00    +0.000 C 
ATOM     21  C   UNL     1       1.328   2.819  20.705  0.00  0.00    +0.000 C 
ENDBRANCH  19  21
ENDBRANCH  18  19
ENDBRANCH   1  18
TORSDOF 5
ENDMDL
MODEL 3
REMARK VINA RESULT:      -6.4      2.266      5.596
REMARK  Name = 
REMARK  9 active torsions:
REMARK  status: ('A' for Active; 'I' for Inactive)
REMARK    1  A    between atoms: C_1  and  C_2
REMARK    2  A    between atoms: C_2  and  C_3
REMARK    3  A    between atoms: C_3  and  C_4
REMARK    4  A    between atoms: C_4  and  C_5
REMARK    5  A    between atoms: C_6  and  C_7
REMARK    6  A    between atoms: C_9  and  C_10
REMARK    7  A    between atoms: C_14  and  C_15
REMARK    8  A    between atoms: C_14  and  C_16
REMARK    9  A    between atoms: C_18  and  O_19
REMARK                            x       y       z     vdW  Elec       q    Type
REMARK                         _______ _______ _______ _____ _____    ______ ____
ROOT
ATOM      1  C   UNL     1       2.913   4.937  19.741  0.00  0.00    +0.000 C 
ATOM      2  C   UNL     1       3.407   3.656  20.381  0.00  0.00    +0.000 C 
ATOM      3  C   UNL     1       4.492   2.936  20.099  0.00  0.00    +0.000 C 
ATOM      4  C   UNL     1       4.870   1.626  20.735  0.00  0.00    +0.000 C 
ATOM      5  N   UNL     1       5.342   3.358  19.136  0.00  0.00    +0.000 NA
ATOM      6  C   UNL     1       5.093   4.493  18.571  0.00  0.00    +0.000 C 
ATOM      7  C   UNL     1       6.092   4.846  17.553  0.00  0.00    +0.000 C 
ATOM      8  C   UNL     1       5.852   6.189  16.848  0.00  0.00    +0.000 C 
ATOM      9  C   UNL     1       5.507   5.703  15.419  0.00  0.00    +0.000 C 
ATOM     10  C   UNL     1       7.067   7.000  17.361  0.00  0.00    +0.000 C 
ATOM     11  C   UNL     1       4.666   7.105  17.188  0.00  0.00    +0.000 C 
ATOM     12  C   UNL     1       3.824   6.638  18.290  0.00  0.00    +0.000 C 
ATOM     13  C   UNL     1       3.970   5.438  18.850  0.00  0.00    +0.000 C 
ENDROOT
BRANCH   2  14
ATOM     14  C   UNL     1       2.395   3.199  21.420  0.00  0.00    +0.000 C 
ATOM     15  N   UNL     1       1.556   2.819  22.282  0.00  0.00    +0.000 NA
ENDBRANCH   2  14
BRANCH  12  16
ATOM     16  O   UNL     1       2.806   7.507  18.654  0.00  0.00    +0.000 OA
ATOM     17  H   UNL     1       2.545   8.043  17.885  0.00  0.00    +0.000 HD
ENDBRANCH  12  16
BRANCH   1  18
ATOM     18  C   UNL     1       1.597   4.737  18.907  0.00  0.00    +0.000 C 
BRANCH  18  19
ATOM     19  C   UNL     1       1.670   3.945  17.590  0.00  0.00    +0.000 C 
BRANCH  19  21
ATOM     20  C   UNL     1       0.695   1.917  18.703  0.00  0.00    +0.000 C 
ATOM     21  C   UNL     1       1.777   2.428  17.764  0.00  0.00    +0.000 C 
ENDBRANCH  19  21
ENDBRANCH  18  19
ENDBRANCH   1  18
TORSDOF 5
ENDMDL
MODEL 4
REMARK VINA RESULT:      -6.4      2.065      5.318
REMARK  Name = 
REMARK  9 active torsions:
REMARK  status: ('A' for Active; 'I' for Inactive)
REMARK    1  A    between atoms: C_1  and  C_2
REMARK    2  A    between atoms: C_2  and  C_3
REMARK    3  A    between atoms: C_3  and  C_4
REMARK    4  A    between atoms: C_4  and  C_5
REMARK    5  A    between atoms: C_6  and  C_7
REMARK    6  A    between atoms: C_9  and  C_10
REMARK    7  A    between atoms: C_14  and  C_15
REMARK    8  A    between atoms: C_14  and  C_16
REMARK    9  A    between atoms: C_18  and  O_19
REMARK                            x       y       z     vdW  Elec       q    Type
REMARK                         _______ _______ _______ _____ _____    ______ ____
ROOT
ATOM      1  C   UNL     1       3.877   4.285  19.829  0.00  0.00    +0.000 C 
ATOM      2  C   UNL     1       2.744   3.303  19.615  0.00  0.00    +0.000 C 
ATOM      3  C   UNL     1       2.291   2.774  18.478  0.00  0.00    +0.000 C 
ATOM      4  C   UNL     1       1.103   1.860  18.345  0.00  0.00    +0.000 C 
ATOM      5  N   UNL     1       2.894   3.084  17.309  0.00  0.00    +0.000 NA
ATOM      6  C   UNL     1       3.941   3.839  17.357  0.00  0.00    +0.000 C 
ATOM      7  C   UNL     1       4.511   4.094  16.027  0.00  0.00    +0.000 C 
ATOM      8  C   UNL     1       5.763   4.984  16.018  0.00  0.00    +0.000 C 
ATOM      9  C   UNL     1       5.208   6.248  15.316  0.00  0.00    +0.000 C 
ATOM     10  C   UNL     1       6.831   3.967  15.546  0.00  0.00    +0.000 C 
ATOM     11  C   UNL     1       6.384   5.556  17.301  0.00  0.00    +0.000 C 
ATOM     12  C   UNL     1       5.738   5.126  18.542  0.00  0.00    +0.000 C 
ATOM     13  C   UNL     1       4.605   4.426  18.559  0.00  0.00    +0.000 C 
ENDROOT
BRANCH   2  14
ATOM     14  C   UNL     1       2.070   3.025  20.949  0.00  0.00    +0.000 C 
ATOM     15  N   UNL     1       1.511   2.793  22.056  0.00  0.00    +0.000 NA
ENDBRANCH   2  14
BRANCH  12  16
ATOM     16  O   UNL     1       6.352   5.571  19.704  0.00  0.00    +0.000 OA
ATOM     17  H   UNL     1       6.218   4.918  20.414  0.00  0.00    +0.000 HD
ENDBRANCH  12  16
BRANCH   1  18
ATOM     18  C   UNL     1       3.380   5.702  20.291  0.00  0.00    +0.000 C 
BRANCH  18  19
ATOM     19  C   UNL     1       2.294   6.409  19.463  0.00  0.00    +0.000 C 
BRANCH  19  21
ATOM     20  C   UNL     1       1.990   8.524  18.143  0.00  0.00    +0.000 C 
ATOM     21  C   UNL     1       2.826   7.264  18.310  0.00  0.00    +0.000 C 
ENDBRANCH  19  21
ENDBRANCH  18  19
ENDBRANCH   1  18
TORSDOF 5
ENDMDL
MODEL 5
REMARK VINA RESULT:      -6.3      0.876      1.091
REMARK  Name = 
REMARK  9 active torsions:
REMARK  status: ('A' for Active; 'I' for Inactive)
REMARK    1  A    between atoms: C_1  and  C_2
REMARK    2  A    between atoms: C_2  and  C_3
REMARK    3  A    between atoms: C_3  and  C_4
REMARK    4  A    between atoms: C_4  and  C_5
REMARK    5  A    between atoms: C_6  and  C_7
REMARK    6  A    between atoms: C_9  and  C_10
REMARK    7  A    between atoms: C_14  and  C_15
REMARK    8  A    between atoms: C_14  and  C_16
REMARK    9  A    between atoms: C_18  and  O_19
REMARK                            x       y       z     vdW  Elec       q    Type
REMARK                         _______ _______ _______ _____ _____    ______ ____
ROOT
ATOM      1  C   UNL     1       4.560   4.930  17.991  0.00  0.00    +0.000 C 
ATOM      2  C   UNL     1       4.148   6.382  17.868  0.00  0.00    +0.000 C 
ATOM      3  C   UNL     1       3.004   6.967  18.224  0.00  0.00    +0.000 C 
ATOM      4  C   UNL     1       2.644   8.410  17.994  0.00  0.00    +0.000 C 
ATOM      5  N   UNL     1       2.033   6.234  18.812  0.00  0.00    +0.000 NA
ATOM      6  C   UNL     1       2.290   4.994  19.068  0.00  0.00    +0.000 C 
ATOM      7  C   UNL     1       1.164   4.309  19.716  0.00  0.00    +0.000 C 
ATOM      8  C   UNL     1       1.410   2.830  20.050  0.00  0.00    +0.000 C 
ATOM      9  C   UNL     1       0.425   2.149  19.068  0.00  0.00    +0.000 C 
ATOM     10  C   UNL     1       1.401   2.883  21.597  0.00  0.00    +0.000 C 
ATOM     11  C   UNL     1       2.737   2.119  19.742  0.00  0.00    +0.000 C 
ATOM     12  C   UNL     1       3.779   2.979  19.178  0.00  0.00    +0.000 C 
ATOM     13  C   UNL     1       3.551   4.238  18.806  0.00  0.00    +0.000 C 
ENDROOT
BRANCH   2  14
ATOM     14  C   UNL     1       5.251   7.153  17.159  0.00  0.00    +0.000 C 
ATOM     15  N   UNL     1       6.166   7.791  16.571  0.00  0.00    +0.000 NA
ENDBRANCH   2  14
BRANCH  12  16
ATOM     16  O   UNL     1       5.004   2.358  18.983  0.00  0.00    +0.000 OA
ATOM     17  H   UNL     1       5.208   1.793  19.749  0.00  0.00    +0.000 HD
ENDBRANCH  12  16
BRANCH   1  18
ATOM     18  C   UNL     1       4.676   4.207  16.602  0.00  0.00    +0.000 C 
BRANCH  18  19
ATOM     19  C   UNL     1       6.038   3.629  16.181  0.00  0.00    +0.000 C 
BRANCH  19  21
ATOM     20  C   UNL     1       7.801   4.506  17.738  0.00  0.00    +0.000 C 
ATOM     21  C   UNL     1       7.215   4.594  16.337  0.00  0.00    +0.000 C 
ENDBRANCH  19  21
ENDBRANCH  18  19
ENDBRANCH   1  18
TORSDOF 5
ENDMDL
MODEL 6
REMARK VINA RESULT:      -6.0      1.992      3.460
REMARK  Name = 
REMARK  9 active torsions:
REMARK  status: ('A' for Active; 'I' for Inactive)
REMARK    1  A    between atoms: C_1  and  C_2
REMARK    2  A    between atoms: C_2  and  C_3
REMARK    3  A    between atoms: C_3  and  C_4
REMARK    4  A    between atoms: C_4  and  C_5
REMARK    5  A    between atoms: C_6  and  C_7
REMARK    6  A    between atoms: C_9  and  C_10
REMARK    7  A    between atoms: C_14  and  C_15
REMARK    8  A    between atoms: C_14  and  C_16
REMARK    9  A    between atoms: C_18  and  O_19
REMARK                            x       y       z     vdW  Elec       q    Type
REMARK                         _______ _______ _______ _____ _____    ______ ____
ROOT
ATOM      1  C   UNL     1       4.609   4.742  16.964  0.00  0.00    +0.000 C 
ATOM      2  C   UNL     1       6.020   4.987  17.457  0.00  0.00    +0.000 C 
ATOM      3  C   UNL     1       6.478   5.042  18.708  0.00  0.00    +0.000 C 
ATOM      4  C   UNL     1       7.889   5.370  19.116  0.00  0.00    +0.000 C 
ATOM      5  N   UNL     1       5.632   4.828  19.740  0.00  0.00    +0.000 NA
ATOM      6  C   UNL     1       4.411   4.510  19.458  0.00  0.00    +0.000 C 
ATOM      7  C   UNL     1       3.595   4.292  20.661  0.00  0.00    +0.000 C 
ATOM      8  C   UNL     1       2.134   3.906  20.391  0.00  0.00    +0.000 C 
ATOM      9  C   UNL     1       1.405   5.172  20.906  0.00  0.00    +0.000 C 
ATOM     10  C   UNL     1       2.119   2.456  20.932  0.00  0.00    +0.000 C 
ATOM     11  C   UNL     1       1.566   3.745  18.973  0.00  0.00    +0.000 C 
ATOM     12  C   UNL     1       2.543   3.910  17.896  0.00  0.00    +0.000 C 
ATOM     13  C   UNL     1       3.790   4.328  18.113  0.00  0.00    +0.000 C 
ENDROOT
BRANCH   2  14
ATOM     14  C   UNL     1       6.921   5.269  16.265  0.00  0.00    +0.000 C 
ATOM     15  N   UNL     1       7.669   5.504  15.277  0.00  0.00    +0.000 NA
ENDBRANCH   2  14
BRANCH  12  16
ATOM     16  O   UNL     1       2.051   3.678  16.620  0.00  0.00    +0.000 OA
ATOM     17  H   UNL     1       2.545   2.947  16.209  0.00  0.00    +0.000 HD
ENDBRANCH  12  16
BRANCH   1  18
ATOM     18  C   UNL     1       3.960   6.013  16.307  0.00  0.00    +0.000 C 
BRANCH  18  19
ATOM     19  C   UNL     1       3.910   7.319  17.118  0.00  0.00    +0.000 C 
BRANCH  19  21
ATOM     20  C   UNL     1       2.112   8.935  17.793  0.00  0.00    +0.000 C 
ATOM     21  C   UNL     1       2.632   7.513  17.937  0.00  0.00    +0.000 C 
ENDBRANCH  19  21
ENDBRANCH  18  19
ENDBRANCH   1  18
TORSDOF 5
ENDMDL
MODEL 7
REMARK VINA RESULT:      -5.8      2.654      4.828
REMARK  Name = 
REMARK  9 active torsions:
REMARK  status: ('A' for Active; 'I' for Inactive)
REMARK    1  A    between atoms: C_1  and  C_2
REMARK    2  A    between atoms: C_2  and  C_3
REMARK    3  A    between atoms: C_3  and  C_4
REMARK    4  A    between atoms: C_4  and  C_5
REMARK    5  A    between atoms: C_6  and  C_7
REMARK    6  A    between atoms: C_9  and  C_10
REMARK    7  A    between atoms: C_14  and  C_15
REMARK    8  A    between atoms: C_14  and  C_16
REMARK    9  A    between atoms: C_18  and  O_19
REMARK                            x       y       z     vdW  Elec       q    Type
REMARK                         _______ _______ _______ _____ _____    ______ ____
ROOT
ATOM      1  C   UNL     1       2.081   6.275  19.029  0.00  0.00    +0.000 C 
ATOM      2  C   UNL     1       2.969   7.002  18.040  0.00  0.00    +0.000 C 
ATOM      3  C   UNL     1       4.090   6.587  17.450  0.00  0.00    +0.000 C 
ATOM      4  C   UNL     1       4.959   7.407  16.535  0.00  0.00    +0.000 C 
ATOM      5  N   UNL     1       4.551   5.340  17.693  0.00  0.00    +0.000 NA
ATOM      6  C   UNL     1       3.835   4.572  18.446  0.00  0.00    +0.000 C 
ATOM      7  C   UNL     1       4.434   3.242  18.624  0.00  0.00    +0.000 C 
ATOM      8  C   UNL     1       3.626   2.281  19.507  0.00  0.00    +0.000 C 
ATOM      9  C   UNL     1       4.566   2.162  20.733  0.00  0.00    +0.000 C 
ATOM     10  C   UNL     1       3.209   1.217  18.462  0.00  0.00    +0.000 C 
ATOM     11  C   UNL     1       2.285   2.670  20.148  0.00  0.00    +0.000 C 
ATOM     12  C   UNL     1       1.796   4.002  19.789  0.00  0.00    +0.000 C 
ATOM     13  C   UNL     1       2.525   4.875  19.096  0.00  0.00    +0.000 C 
ENDROOT
BRANCH   2  14
ATOM     14  C   UNL     1       2.437   8.412  17.839  0.00  0.00    +0.000 C 
ATOM     15  N   UNL     1       1.996   9.582  17.673  0.00  0.00    +0.000 NA
ENDBRANCH   2  14
BRANCH  12  16
ATOM     16  O   UNL     1       0.544   4.319  20.296  0.00  0.00    +0.000 OA
ATOM     17  H   UNL     1       0.586   5.177  20.754  0.00  0.00    +0.000 HD
ENDBRANCH  12  16
BRANCH   1  18
ATOM     18  C   UNL     1       2.134   6.895  20.470  0.00  0.00    +0.000 C 
BRANCH  18  19
ATOM     19  C   UNL     1       0.948   7.748  20.951  0.00  0.00    +0.000 C 
BRANCH  19  21
ATOM     20  C   UNL     1       0.146   9.321  22.737  0.00  0.00    +0.000 C 
ATOM     21  C   UNL     1       1.329   8.908  21.875  0.00  0.00    +0.000 C 
ENDBRANCH  19  21
ENDBRANCH  18  19
ENDBRANCH   1  18
TORSDOF 5
ENDMDL
MODEL 8
REMARK VINA RESULT:      -5.7      2.173      3.883
REMARK  Name = 
REMARK  9 active torsions:
REMARK  status: ('A' for Active; 'I' for Inactive)
REMARK    1  A    between atoms: C_1  and  C_2
REMARK    2  A    between atoms: C_2  and  C_3
REMARK    3  A    between atoms: C_3  and  C_4
REMARK    4  A    between atoms: C_4  and  C_5
REMARK    5  A    between atoms: C_6  and  C_7
REMARK    6  A    between atoms: C_9  and  C_10
REMARK    7  A    between atoms: C_14  and  C_15
REMARK    8  A    between atoms: C_14  and  C_16
REMARK    9  A    between atoms: C_18  and  O_19
REMARK                            x       y       z     vdW  Elec       q    Type
REMARK                         _______ _______ _______ _____ _____    ______ ____
ROOT
ATOM      1  C   UNL     1       3.827   5.892  17.854  0.00  0.00    +0.000 C 
ATOM      2  C   UNL     1       5.319   5.871  18.118  0.00  0.00    +0.000 C 
ATOM      3  C   UNL     1       6.023   5.064  18.912  0.00  0.00    +0.000 C 
ATOM      4  C   UNL     1       7.501   5.162  19.179  0.00  0.00    +0.000 C 
ATOM      5  N   UNL     1       5.395   4.079  19.591  0.00  0.00    +0.000 NA
ATOM      6  C   UNL     1       4.129   3.919  19.382  0.00  0.00    +0.000 C 
ATOM      7  C   UNL     1       3.566   2.813  20.167  0.00  0.00    +0.000 C 
ATOM      8  C   UNL     1       2.063   2.570  19.958  0.00  0.00    +0.000 C 
ATOM      9  C   UNL     1       1.513   2.985  21.346  0.00  0.00    +0.000 C 
ATOM     10  C   UNL     1       2.092   1.184  19.269  0.00  0.00    +0.000 C 
ATOM     11  C   UNL     1       1.213   3.411  18.994  0.00  0.00    +0.000 C 
ATOM     12  C   UNL     1       1.958   4.411  18.228  0.00  0.00    +0.000 C 
ATOM     13  C   UNL     1       3.240   4.688  18.461  0.00  0.00    +0.000 C 
ENDROOT
BRANCH   2  14
ATOM     14  C   UNL     1       5.971   7.025  17.373  0.00  0.00    +0.000 C 
ATOM     15  N   UNL     1       6.510   7.982  16.755  0.00  0.00    +0.000 NA
ENDBRANCH   2  14
BRANCH  12  16
ATOM     16  O   UNL     1       1.206   5.109  17.294  0.00  0.00    +0.000 OA
ATOM     17  H   UNL     1       0.766   4.480  16.696  0.00  0.00    +0.000 HD
ENDBRANCH  12  16
BRANCH   1  18
ATOM     18  C   UNL     1       3.118   7.160  18.451  0.00  0.00    +0.000 C 
BRANCH  18  19
ATOM     19  C   UNL     1       2.528   8.200  17.483  0.00  0.00    +0.000 C 
BRANCH  19  21
ATOM     20  C   UNL     1       0.602   9.681  18.116  0.00  0.00    +0.000 C 
ATOM     21  C   UNL     1       2.114   9.519  18.139  0.00  0.00    +0.000 C 
ENDBRANCH  19  21
ENDBRANCH  18  19
ENDBRANCH   1  18
TORSDOF 5
ENDMDL
MODEL 9
REMARK VINA RESULT:      -5.7      2.145      4.025
REMARK  Name = 
REMARK  9 active torsions:
REMARK  status: ('A' for Active; 'I' for Inactive)
REMARK    1  A    between atoms: C_1  and  C_2
REMARK    2  A    between atoms: C_2  and  C_3
REMARK    3  A    between atoms: C_3  and  C_4
REMARK    4  A    between atoms: C_4  and  C_5
REMARK    5  A    between atoms: C_6  and  C_7
REMARK    6  A    between atoms: C_9  and  C_10
REMARK    7  A    between atoms: C_14  and  C_15
REMARK    8  A    between atoms: C_14  and  C_16
REMARK    9  A    between atoms: C_18  and  O_19
REMARK                            x       y       z     vdW  Elec       q    Type
REMARK                         _______ _______ _______ _____ _____    ______ ____
ROOT
ATOM      1  C   UNL     1       3.681   5.700  17.719  0.00  0.00    +0.000 C 
ATOM      2  C   UNL     1       5.147   5.791  18.092  0.00  0.00    +0.000 C 
ATOM      3  C   UNL     1       5.832   5.092  18.997  0.00  0.00    +0.000 C 
ATOM      4  C   UNL     1       7.276   5.301  19.362  0.00  0.00    +0.000 C 
ATOM      5  N   UNL     1       5.209   4.124  19.705  0.00  0.00    +0.000 NA
ATOM      6  C   UNL     1       3.974   3.871  19.419  0.00  0.00    +0.000 C 
ATOM      7  C   UNL     1       3.414   2.794  20.246  0.00  0.00    +0.000 C 
ATOM      8  C   UNL     1       1.949   2.445  19.949  0.00  0.00    +0.000 C 
ATOM      9  C   UNL     1       1.270   2.928  21.255  0.00  0.00    +0.000 C 
ATOM     10  C   UNL     1       2.108   1.015  19.377  0.00  0.00    +0.000 C 
ATOM     11  C   UNL     1       1.130   3.156  18.861  0.00  0.00    +0.000 C 
ATOM     12  C   UNL     1       1.875   4.139  18.074  0.00  0.00    +0.000 C 
ATOM     13  C   UNL     1       3.118   4.511  18.376  0.00  0.00    +0.000 C 
ENDROOT
BRANCH   2  14
ATOM     14  C   UNL     1       5.789   6.924  17.306  0.00  0.00    +0.000 C 
ATOM     15  N   UNL     1       6.323   7.863  16.655  0.00  0.00    +0.000 NA
ENDBRANCH   2  14
BRANCH  12  16
ATOM     16  O   UNL     1       1.160   4.717  17.035  0.00  0.00    +0.000 OA
ATOM     17  H   UNL     1       1.703   5.404  16.609  0.00  0.00    +0.000 HD
ENDBRANCH  12  16
BRANCH   1  18
ATOM     18  C   UNL     1       2.858   6.963  18.159  0.00  0.00    +0.000 C 
BRANCH  18  19
ATOM     19  C   UNL     1       2.407   7.077  19.625  0.00  0.00    +0.000 C 
BRANCH  19  21
ATOM     20  C   UNL     1       1.157   8.334  21.403  0.00  0.00    +0.000 C 
ATOM     21  C   UNL     1       1.591   8.332  19.945  0.00  0.00    +0.000 C 
ENDBRANCH  19  21
ENDBRANCH  18  19
ENDBRANCH   1  18
TORSDOF 5
ENDMDL
