MODEL 1
REMARK VINA RESULT:      -7.2      0.000      0.000
REMARK  Name = 
REMARK  5 active torsions:
REMARK  status: ('A' for Active; 'I' for Inactive)
REMARK    1  A    between atoms: C_1  and  N_2
REMARK    2  A    between atoms: C_4  and  N_5
REMARK    3  A    between atoms: C_6  and  C_8
REMARK    4  A    between atoms: N_14  and  C_15
REMARK    5  A    between atoms: C_15  and  C_16
REMARK                            x       y       z     vdW  Elec       q    Type
REMARK                         _______ _______ _______ _____ _____    ______ ____
ROOT
ATOM      1  C   UNL     1       3.988   3.217  19.731  0.00  0.00    +0.000 C 
ATOM      2  C   UNL     1       3.900   2.032  18.761  0.00  0.00    +0.000 C 
ATOM      3  O   UNL     1       2.758   1.232  19.065  0.00  0.00    +0.000 OA
ATOM      4  C   UNL     1       1.572   1.977  18.844  0.00  0.00    +0.000 C 
ATOM      5  C   UNL     1       1.520   3.419  19.385  0.00  0.00    +0.000 C 
ATOM      6  O   UNL     1       0.468   4.060  19.365  0.00  0.00    +0.000 OA
ATOM      7  N   UNL     1       2.715   3.960  19.845  0.00  0.00    +0.000 N 
ENDROOT
BRANCH   1   9
ATOM      8  N   UNL     1       5.505   3.942  17.898  0.00  0.00    +0.000 N 
ATOM      9  C   UNL     1       5.146   4.104  19.229  0.00  0.00    +0.000 C 
ATOM     10  O   UNL     1       5.799   4.802  20.000  0.00  0.00    +0.000 OA
ATOM     11  H   UNL     1       4.849   3.466  17.284  0.00  0.00    +0.000 HD
BRANCH   8  15
ATOM     12  C   UNL     1       6.562   4.625  13.563  0.00  0.00    +0.000 C 
ATOM     13  N   UNL     1       6.276   4.825  14.967  0.00  0.00    +0.000 N 
ATOM     14  C   UNL     1       7.101   4.235  15.991  0.00  0.00    +0.000 C 
ATOM     15  C   UNL     1       6.536   4.797  17.295  0.00  0.00    +0.000 C 
ATOM     16  C   UNL     1       5.976   6.163  16.887  0.00  0.00    +0.000 C 
ATOM     17  C   UNL     1       5.721   6.024  15.403  0.00  0.00    +0.000 C 
ATOM     18  O   UNL     1       5.180   6.865  14.708  0.00  0.00    +0.000 OA
ENDBRANCH   8  15
ENDBRANCH   1   9
BRANCH   7  19
ATOM     19  C   UNL     1       2.667   5.166  20.671  0.00  0.00    +0.000 C 
BRANCH  19  20
ATOM     20  C   UNL     1       2.459   6.463  19.920  0.00  0.00    +0.000 A 
ATOM     21  C   UNL     1       2.867   6.603  18.584  0.00  0.00    +0.000 A 
ATOM     22  C   UNL     1       2.532   7.749  17.854  0.00  0.00    +0.000 A 
ATOM     23  C   UNL     1       1.796   8.771  18.454  0.00  0.00    +0.000 A 
ATOM     24  C   UNL     1       1.421   8.661  19.790  0.00  0.00    +0.000 A 
ATOM     25  C   UNL     1       1.759   7.520  20.522  0.00  0.00    +0.000 A 
ENDBRANCH  19  20
ENDBRANCH   7  19
TORSDOF 4
ENDMDL
MODEL 2
REMARK VINA RESULT:      -7.1      2.299      6.659
REMARK  Name = 
REMARK  5 active torsions:
REMARK  status: ('A' for Active; 'I' for Inactive)
REMARK    1  A    between atoms: C_1  and  N_2
REMARK    2  A    between atoms: C_4  and  N_5
REMARK    3  A    between atoms: C_6  and  C_8
REMARK    4  A    between atoms: N_14  and  C_15
REMARK    5  A    between atoms: C_15  and  C_16
REMARK                            x       y       z     vdW  Elec       q    Type
REMARK                         _______ _______ _______ _____ _____    ______ ____
ROOT
ATOM      1  C   UNL     1       5.752   4.933  17.941  0.00  0.00    +0.000 C 
ATOM      2  C   UNL     1       6.393   4.929  19.334  0.00  0.00    +0.000 C 
ATOM      3  O   UNL     1       7.798   5.160  19.229  0.00  0.00    +0.000 OA
ATOM      4  C   UNL     1       8.039   6.460  18.715  0.00  0.00    +0.000 C 
ATOM      5  C   UNL     1       7.210   6.914  17.498  0.00  0.00    +0.000 C 
ATOM      6  O   UNL     1       7.481   7.963  16.911  0.00  0.00    +0.000 OA
ATOM      7  N   UNL     1       6.135   6.112  17.136  0.00  0.00    +0.000 N 
ENDROOT
BRANCH   1   9
ATOM      8  N   UNL     1       3.774   5.198  19.425  0.00  0.00    +0.000 N 
ATOM      9  C   UNL     1       4.228   4.840  18.164  0.00  0.00    +0.000 C 
ATOM     10  O   UNL     1       3.487   4.342  17.321  0.00  0.00    +0.000 OA
ATOM     11  H   UNL     1       4.403   5.729  20.024  0.00  0.00    +0.000 HD
BRANCH   8  15
ATOM     12  C   UNL     1       0.686   1.911  19.237  0.00  0.00    +0.000 C 
ATOM     13  N   UNL     1       1.471   3.052  19.656  0.00  0.00    +0.000 N 
ATOM     14  C   UNL     1       1.523   4.256  18.864  0.00  0.00    +0.000 C 
ATOM     15  C   UNL     1       2.335   5.229  19.718  0.00  0.00    +0.000 C 
ATOM     16  C   UNL     1       2.037   4.784  21.154  0.00  0.00    +0.000 C 
ATOM     17  C   UNL     1       1.620   3.339  21.009  0.00  0.00    +0.000 C 
ATOM     18  O   UNL     1       1.390   2.584  21.937  0.00  0.00    +0.000 OA
ENDBRANCH   8  15
ENDBRANCH   1   9
BRANCH   7  19
ATOM     19  C   UNL     1       5.537   6.296  15.814  0.00  0.00    +0.000 C 
BRANCH  19  20
ATOM     20  C   UNL     1       6.010   5.335  14.745  0.00  0.00    +0.000 A 
ATOM     21  C   UNL     1       5.173   4.318  14.259  0.00  0.00    +0.000 A 
ATOM     22  C   UNL     1       5.563   3.537  13.166  0.00  0.00    +0.000 A 
ATOM     23  C   UNL     1       6.796   3.757  12.553  0.00  0.00    +0.000 A 
ATOM     24  C   UNL     1       7.652   4.735  13.051  0.00  0.00    +0.000 A 
ATOM     25  C   UNL     1       7.267   5.512  14.146  0.00  0.00    +0.000 A 
ENDBRANCH  19  20
ENDBRANCH   7  19
TORSDOF 4
ENDMDL
MODEL 3
REMARK VINA RESULT:      -7.1      2.528      6.658
REMARK  Name = 
REMARK  5 active torsions:
REMARK  status: ('A' for Active; 'I' for Inactive)
REMARK    1  A    between atoms: C_1  and  N_2
REMARK    2  A    between atoms: C_4  and  N_5
REMARK    3  A    between atoms: C_6  and  C_8
REMARK    4  A    between atoms: N_14  and  C_15
REMARK    5  A    between atoms: C_15  and  C_16
REMARK                            x       y       z     vdW  Elec       q    Type
REMARK                         _______ _______ _______ _____ _____    ______ ____
ROOT
ATOM      1  C   UNL     1       5.692   4.561  17.479  0.00  0.00    +0.000 C 
ATOM      2  C   UNL     1       6.235   4.475  18.911  0.00  0.00    +0.000 C 
ATOM      3  O   UNL     1       7.627   4.789  18.928  0.00  0.00    +0.000 OA
ATOM      4  C   UNL     1       7.825   6.138  18.538  0.00  0.00    +0.000 C 
ATOM      5  C   UNL     1       7.057   6.647  17.303  0.00  0.00    +0.000 C 
ATOM      6  O   UNL     1       7.305   7.754  16.823  0.00  0.00    +0.000 OA
ATOM      7  N   UNL     1       6.059   5.822  16.801  0.00  0.00    +0.000 N 
ENDROOT
BRANCH   1   9
ATOM      8  N   UNL     1       3.732   3.099  17.938  0.00  0.00    +0.000 N 
ATOM      9  C   UNL     1       4.165   4.369  17.582  0.00  0.00    +0.000 C 
ATOM     10  O   UNL     1       3.383   5.248  17.229  0.00  0.00    +0.000 OA
ATOM     11  H   UNL     1       4.412   2.464  18.350  0.00  0.00    +0.000 HD
BRANCH   8  15
ATOM     12  C   UNL     1       1.417   2.446  21.758  0.00  0.00    +0.000 C 
ATOM     13  N   UNL     1       1.819   2.887  20.440  0.00  0.00    +0.000 N 
ATOM     14  C   UNL     1       2.028   1.949  19.366  0.00  0.00    +0.000 C 
ATOM     15  C   UNL     1       2.304   2.829  18.148  0.00  0.00    +0.000 C 
ATOM     16  C   UNL     1       1.520   4.112  18.445  0.00  0.00    +0.000 C 
ATOM     17  C   UNL     1       1.382   4.115  19.951  0.00  0.00    +0.000 C 
ATOM     18  O   UNL     1       0.901   5.023  20.604  0.00  0.00    +0.000 OA
ENDBRANCH   8  15
ENDBRANCH   1   9
BRANCH   7  19
ATOM     19  C   UNL     1       5.543   6.083  15.458  0.00  0.00    +0.000 C 
BRANCH  19  20
ATOM     20  C   UNL     1       6.043   5.153  14.374  0.00  0.00    +0.000 A 
ATOM     21  C   UNL     1       5.236   4.121  13.871  0.00  0.00    +0.000 A 
ATOM     22  C   UNL     1       5.648   3.368  12.766  0.00  0.00    +0.000 A 
ATOM     23  C   UNL     1       6.876   3.631  12.159  0.00  0.00    +0.000 A 
ATOM     24  C   UNL     1       7.704   4.625  12.675  0.00  0.00    +0.000 A 
ATOM     25  C   UNL     1       7.296   5.374  13.781  0.00  0.00    +0.000 A 
ENDBRANCH  19  20
ENDBRANCH   7  19
TORSDOF 4
ENDMDL
MODEL 4
REMARK VINA RESULT:      -6.9      1.589      1.995
REMARK  Name = 
REMARK  5 active torsions:
REMARK  status: ('A' for Active; 'I' for Inactive)
REMARK    1  A    between atoms: C_1  and  N_2
REMARK    2  A    between atoms: C_4  and  N_5
REMARK    3  A    between atoms: C_6  and  C_8
REMARK    4  A    between atoms: N_14  and  C_15
REMARK    5  A    between atoms: C_15  and  C_16
REMARK                            x       y       z     vdW  Elec       q    Type
REMARK                         _______ _______ _______ _____ _____    ______ ____
ROOT
ATOM      1  C   UNL     1       3.209   3.963  19.867  0.00  0.00    +0.000 C 
ATOM      2  C   UNL     1       2.738   2.599  20.387  0.00  0.00    +0.000 C 
ATOM      3  O   UNL     1       1.320   2.599  20.551  0.00  0.00    +0.000 OA
ATOM      4  C   UNL     1       0.686   2.753  19.293  0.00  0.00    +0.000 C 
ATOM      5  C   UNL     1       1.232   3.836  18.342  0.00  0.00    +0.000 C 
ATOM      6  O   UNL     1       0.630   4.124  17.307  0.00  0.00    +0.000 OA
ATOM      7  N   UNL     1       2.441   4.424  18.691  0.00  0.00    +0.000 N 
ENDROOT
BRANCH   1   9
ATOM      8  N   UNL     1       5.322   4.902  18.951  0.00  0.00    +0.000 N 
ATOM      9  C   UNL     1       4.715   3.817  19.568  0.00  0.00    +0.000 C 
ATOM     10  O   UNL     1       5.301   2.751  19.737  0.00  0.00    +0.000 OA
ATOM     11  H   UNL     1       4.831   5.793  18.966  0.00  0.00    +0.000 HD
BRANCH   8  15
ATOM     12  C   UNL     1       7.615   5.426  15.098  0.00  0.00    +0.000 C 
ATOM     13  N   UNL     1       7.184   5.515  16.476  0.00  0.00    +0.000 N 
ATOM     14  C   UNL     1       7.145   4.350  17.325  0.00  0.00    +0.000 C 
ATOM     15  C   UNL     1       6.769   4.903  18.699  0.00  0.00    +0.000 C 
ATOM     16  C   UNL     1       7.344   6.323  18.687  0.00  0.00    +0.000 C 
ATOM     17  C   UNL     1       7.443   6.663  17.217  0.00  0.00    +0.000 C 
ATOM     18  O   UNL     1       7.766   7.751  16.775  0.00  0.00    +0.000 OA
ENDBRANCH   8  15
ENDBRANCH   1   9
BRANCH   7  19
ATOM     19  C   UNL     1       2.829   5.671  18.033  0.00  0.00    +0.000 C 
BRANCH  19  20
ATOM     20  C   UNL     1       2.223   6.931  18.612  0.00  0.00    +0.000 A 
ATOM     21  C   UNL     1       1.953   7.044  19.985  0.00  0.00    +0.000 A 
ATOM     22  C   UNL     1       1.539   8.264  20.531  0.00  0.00    +0.000 A 
ATOM     23  C   UNL     1       1.380   9.380  19.711  0.00  0.00    +0.000 A 
ATOM     24  C   UNL     1       1.606   9.270  18.341  0.00  0.00    +0.000 A 
ATOM     25  C   UNL     1       2.014   8.052  17.794  0.00  0.00    +0.000 A 
ENDBRANCH  19  20
ENDBRANCH   7  19
TORSDOF 4
ENDMDL
MODEL 5
REMARK VINA RESULT:      -6.9      2.286      6.635
REMARK  Name = 
REMARK  5 active torsions:
REMARK  status: ('A' for Active; 'I' for Inactive)
REMARK    1  A    between atoms: C_1  and  N_2
REMARK    2  A    between atoms: C_4  and  N_5
REMARK    3  A    between atoms: C_6  and  C_8
REMARK    4  A    between atoms: N_14  and  C_15
REMARK    5  A    between atoms: C_15  and  C_16
REMARK                            x       y       z     vdW  Elec       q    Type
REMARK                         _______ _______ _______ _____ _____    ______ ____
ROOT
ATOM      1  C   UNL     1       5.637   5.002  17.916  0.00  0.00    +0.000 C 
ATOM      2  C   UNL     1       6.222   4.935  19.332  0.00  0.00    +0.000 C 
ATOM      3  O   UNL     1       7.646   5.009  19.279  0.00  0.00    +0.000 OA
ATOM      4  C   UNL     1       8.048   6.271  18.773  0.00  0.00    +0.000 C 
ATOM      5  C   UNL     1       7.320   6.808  17.525  0.00  0.00    +0.000 C 
ATOM      6  O   UNL     1       7.727   7.817  16.948  0.00  0.00    +0.000 OA
ATOM      7  N   UNL     1       6.178   6.127  17.124  0.00  0.00    +0.000 N 
ENDROOT
BRANCH   1   9
ATOM      8  N   UNL     1       3.616   6.218  18.706  0.00  0.00    +0.000 N 
ATOM      9  C   UNL     1       4.105   5.079  18.082  0.00  0.00    +0.000 C 
ATOM     10  O   UNL     1       3.383   4.124  17.808  0.00  0.00    +0.000 OA
ATOM     11  H   UNL     1       4.235   7.022  18.779  0.00  0.00    +0.000 HD
BRANCH   8  15
ATOM     12  C   UNL     1       1.291   8.687  21.685  0.00  0.00    +0.000 C 
ATOM     13  N   UNL     1       1.759   8.070  20.463  0.00  0.00    +0.000 N 
ATOM     14  C   UNL     1       1.718   6.640  20.283  0.00  0.00    +0.000 C 
ATOM     15  C   UNL     1       2.169   6.433  18.838  0.00  0.00    +0.000 C 
ATOM     16  C   UNL     1       1.717   7.715  18.131  0.00  0.00    +0.000 C 
ATOM     17  C   UNL     1       1.615   8.730  19.247  0.00  0.00    +0.000 C 
ATOM     18  O   UNL     1       1.376   9.914  19.091  0.00  0.00    +0.000 OA
ENDBRANCH   8  15
ENDBRANCH   1   9
BRANCH   7  19
ATOM     19  C   UNL     1       5.653   6.369  15.781  0.00  0.00    +0.000 C 
BRANCH  19  20
ATOM     20  C   UNL     1       6.044   5.348  14.734  0.00  0.00    +0.000 A 
ATOM     21  C   UNL     1       5.155   4.337  14.336  0.00  0.00    +0.000 A 
ATOM     22  C   UNL     1       5.468   3.497  13.261  0.00  0.00    +0.000 A 
ATOM     23  C   UNL     1       6.675   3.651  12.580  0.00  0.00    +0.000 A 
ATOM     24  C   UNL     1       7.583   4.623  12.993  0.00  0.00    +0.000 A 
ATOM     25  C   UNL     1       7.275   5.459  14.069  0.00  0.00    +0.000 A 
ENDBRANCH  19  20
ENDBRANCH   7  19
TORSDOF 4
ENDMDL
MODEL 6
REMARK VINA RESULT:      -6.7      2.443      5.536
REMARK  Name = 
REMARK  5 active torsions:
REMARK  status: ('A' for Active; 'I' for Inactive)
REMARK    1  A    between atoms: C_1  and  N_2
REMARK    2  A    between atoms: C_4  and  N_5
REMARK    3  A    between atoms: C_6  and  C_8
REMARK    4  A    between atoms: N_14  and  C_15
REMARK    5  A    between atoms: C_15  and  C_16
REMARK                            x       y       z     vdW  Elec       q    Type
REMARK                         _______ _______ _______ _____ _____    ______ ____
ROOT
ATOM      1  C   UNL     1       1.850   4.589  18.511  0.00  0.00    +0.000 C 
ATOM      2  C   UNL     1       1.143   3.883  19.675  0.00  0.00    +0.000 C 
ATOM      3  O   UNL     1       0.762   2.562  19.290  0.00  0.00    +0.000 OA
ATOM      4  C   UNL     1       1.916   1.781  19.031  0.00  0.00    +0.000 C 
ATOM      5  C   UNL     1       3.033   2.412  18.176  0.00  0.00    +0.000 C 
ATOM      6  O   UNL     1       3.984   1.734  17.786  0.00  0.00    +0.000 OA
ATOM      7  N   UNL     1       2.929   3.773  17.916  0.00  0.00    +0.000 N 
ENDROOT
BRANCH   1   9
ATOM      8  N   UNL     1       1.834   7.076  18.483  0.00  0.00    +0.000 N 
ATOM      9  C   UNL     1       2.364   5.933  19.066  0.00  0.00    +0.000 C 
ATOM     10  O   UNL     1       3.289   5.981  19.872  0.00  0.00    +0.000 OA
ATOM     11  H   UNL     1       0.984   6.978  17.933  0.00  0.00    +0.000 HD
BRANCH   8  15
ATOM     12  C   UNL     1      -0.472  10.955  18.377  0.00  0.00    +0.000 C 
ATOM     13  N   UNL     1       0.348   9.842  18.805  0.00  0.00    +0.000 N 
ATOM     14  C   UNL     1       1.605   9.549  18.164  0.00  0.00    +0.000 C 
ATOM     15  C   UNL     1       2.190   8.406  18.994  0.00  0.00    +0.000 C 
ATOM     16  C   UNL     1       1.619   8.649  20.395  0.00  0.00    +0.000 C 
ATOM     17  C   UNL     1       0.371   9.465  20.144  0.00  0.00    +0.000 C 
ATOM     18  O   UNL     1      -0.434   9.787  20.999  0.00  0.00    +0.000 OA
ENDBRANCH   8  15
ENDBRANCH   1   9
BRANCH   7  19
ATOM     19  C   UNL     1       3.748   4.346  16.849  0.00  0.00    +0.000 C 
BRANCH  19  20
ATOM     20  C   UNL     1       4.981   5.098  17.304  0.00  0.00    +0.000 A 
ATOM     21  C   UNL     1       5.966   4.474  18.085  0.00  0.00    +0.000 A 
ATOM     22  C   UNL     1       7.170   5.128  18.369  0.00  0.00    +0.000 A 
ATOM     23  C   UNL     1       7.398   6.416  17.884  0.00  0.00    +0.000 A 
ATOM     24  C   UNL     1       6.411   7.061  17.143  0.00  0.00    +0.000 A 
ATOM     25  C   UNL     1       5.207   6.411  16.864  0.00  0.00    +0.000 A 
ENDBRANCH  19  20
ENDBRANCH   7  19
TORSDOF 4
ENDMDL
MODEL 7
REMARK VINA RESULT:      -6.7      2.341      6.012
REMARK  Name = 
REMARK  5 active torsions:
REMARK  status: ('A' for Active; 'I' for Inactive)
REMARK    1  A    between atoms: C_1  and  N_2
REMARK    2  A    between atoms: C_4  and  N_5
REMARK    3  A    between atoms: C_6  and  C_8
REMARK    4  A    between atoms: N_14  and  C_15
REMARK    5  A    between atoms: C_15  and  C_16
REMARK                            x       y       z     vdW  Elec       q    Type
REMARK                         _______ _______ _______ _____ _____    ______ ____
ROOT
ATOM      1  C   UNL     1       2.819   5.037  17.939  0.00  0.00    +0.000 C 
ATOM      2  C   UNL     1       1.339   4.656  18.070  0.00  0.00    +0.000 C 
ATOM      3  O   UNL     1       1.162   3.268  17.793  0.00  0.00    +0.000 OA
ATOM      4  C   UNL     1       1.831   2.489  18.771  0.00  0.00    +0.000 C 
ATOM      5  C   UNL     1       3.265   2.899  19.156  0.00  0.00    +0.000 C 
ATOM      6  O   UNL     1       3.952   2.176  19.878  0.00  0.00    +0.000 OA
ATOM      7  N   UNL     1       3.713   4.129  18.689  0.00  0.00    +0.000 N 
ENDROOT
BRANCH   1   9
ATOM      8  N   UNL     1       2.056   6.890  19.412  0.00  0.00    +0.000 N 
ATOM      9  C   UNL     1       2.935   6.501  18.411  0.00  0.00    +0.000 C 
ATOM     10  O   UNL     1       3.661   7.305  17.832  0.00  0.00    +0.000 OA
ATOM     11  H   UNL     1       1.586   6.160  19.942  0.00  0.00    +0.000 HD
BRANCH   8  15
ATOM     12  C   UNL     1      -0.980  10.230  19.482  0.00  0.00    +0.000 C 
ATOM     13  N   UNL     1       0.046   9.283  19.860  0.00  0.00    +0.000 N 
ATOM     14  C   UNL     1       1.337   9.280  19.218  0.00  0.00    +0.000 C 
ATOM     15  C   UNL     1       2.138   8.236  19.994  0.00  0.00    +0.000 C 
ATOM     16  C   UNL     1       1.530   8.287  21.400  0.00  0.00    +0.000 C 
ATOM     17  C   UNL     1       0.144   8.848  21.178  0.00  0.00    +0.000 C 
ATOM     18  O   UNL     1      -0.708   8.958  22.040  0.00  0.00    +0.000 OA
ENDBRANCH   8  15
ENDBRANCH   1   9
BRANCH   7  19
ATOM     19  C   UNL     1       5.147   4.413  18.726  0.00  0.00    +0.000 C 
BRANCH  19  20
ATOM     20  C   UNL     1       5.830   4.498  17.379  0.00  0.00    +0.000 A 
ATOM     21  C   UNL     1       5.454   3.660  16.318  0.00  0.00    +0.000 A 
ATOM     22  C   UNL     1       5.983   3.852  15.036  0.00  0.00    +0.000 A 
ATOM     23  C   UNL     1       6.901   4.876  14.804  0.00  0.00    +0.000 A 
ATOM     24  C   UNL     1       7.312   5.688  15.857  0.00  0.00    +0.000 A 
ATOM     25  C   UNL     1       6.790   5.495  17.138  0.00  0.00    +0.000 A 
ENDBRANCH  19  20
ENDBRANCH   7  19
TORSDOF 4
ENDMDL
MODEL 8
REMARK VINA RESULT:      -6.6      2.750      6.175
REMARK  Name = 
REMARK  5 active torsions:
REMARK  status: ('A' for Active; 'I' for Inactive)
REMARK    1  A    between atoms: C_1  and  N_2
REMARK    2  A    between atoms: C_4  and  N_5
REMARK    3  A    between atoms: C_6  and  C_8
REMARK    4  A    between atoms: N_14  and  C_15
REMARK    5  A    between atoms: C_15  and  C_16
REMARK                            x       y       z     vdW  Elec       q    Type
REMARK                         _______ _______ _______ _____ _____    ______ ____
ROOT
ATOM      1  C   UNL     1       2.147   4.968  19.468  0.00  0.00    +0.000 C 
ATOM      2  C   UNL     1       1.534   4.562  20.814  0.00  0.00    +0.000 C 
ATOM      3  O   UNL     1       1.480   3.140  20.920  0.00  0.00    +0.000 OA
ATOM      4  C   UNL     1       2.793   2.604  20.935  0.00  0.00    +0.000 C 
ATOM      5  C   UNL     1       3.799   3.143  19.900  0.00  0.00    +0.000 C 
ATOM      6  O   UNL     1       4.901   2.610  19.759  0.00  0.00    +0.000 OA
ATOM      7  N   UNL     1       3.417   4.269  19.181  0.00  0.00    +0.000 N 
ENDROOT
BRANCH   1   9
ATOM      8  N   UNL     1       1.703   7.151  20.576  0.00  0.00    +0.000 N 
ATOM      9  C   UNL     1       2.313   6.501  19.512  0.00  0.00    +0.000 C 
ATOM     10  O   UNL     1       2.830   7.116  18.583  0.00  0.00    +0.000 OA
ATOM     11  H   UNL     1       1.418   6.589  21.375  0.00  0.00    +0.000 HD
BRANCH   8  15
ATOM     12  C   UNL     1      -1.183  10.542  19.833  0.00  0.00    +0.000 C 
ATOM     13  N   UNL     1      -0.180   9.680  20.420  0.00  0.00    +0.000 N 
ATOM     14  C   UNL     1       1.076   9.432  19.757  0.00  0.00    +0.000 C 
ATOM     15  C   UNL     1       1.871   8.598  20.761  0.00  0.00    +0.000 C 
ATOM     16  C   UNL     1       1.337   9.064  22.120  0.00  0.00    +0.000 C 
ATOM     17  C   UNL     1      -0.034   9.618  21.802  0.00  0.00    +0.000 C 
ATOM     18  O   UNL     1      -0.837  10.005  22.632  0.00  0.00    +0.000 OA
ENDBRANCH   8  15
ENDBRANCH   1   9
BRANCH   7  19
ATOM     19  C   UNL     1       4.161   4.614  17.971  0.00  0.00    +0.000 C 
BRANCH  19  20
ATOM     20  C   UNL     1       5.422   5.422  18.188  0.00  0.00    +0.000 A 
ATOM     21  C   UNL     1       6.244   5.204  19.304  0.00  0.00    +0.000 A 
ATOM     22  C   UNL     1       7.482   5.846  19.414  0.00  0.00    +0.000 A 
ATOM     23  C   UNL     1       7.908   6.721  18.415  0.00  0.00    +0.000 A 
ATOM     24  C   UNL     1       7.083   6.977  17.322  0.00  0.00    +0.000 A 
ATOM     25  C   UNL     1       5.845   6.341  17.214  0.00  0.00    +0.000 A 
ENDBRANCH  19  20
ENDBRANCH   7  19
TORSDOF 4
ENDMDL
MODEL 9
REMARK VINA RESULT:      -6.6      2.438      5.466
REMARK  Name = 
REMARK  5 active torsions:
REMARK  status: ('A' for Active; 'I' for Inactive)
REMARK    1  A    between atoms: C_1  and  N_2
REMARK    2  A    between atoms: C_4  and  N_5
REMARK    3  A    between atoms: C_6  and  C_8
REMARK    4  A    between atoms: N_14  and  C_15
REMARK    5  A    between atoms: C_15  and  C_16
REMARK                            x       y       z     vdW  Elec       q    Type
REMARK                         _______ _______ _______ _____ _____    ______ ____
ROOT
ATOM      1  C   UNL     1       1.885   4.552  18.400  0.00  0.00    +0.000 C 
ATOM      2  C   UNL     1       1.192   3.888  19.596  0.00  0.00    +0.000 C 
ATOM      3  O   UNL     1       0.807   2.555  19.263  0.00  0.00    +0.000 OA
ATOM      4  C   UNL     1       1.957   1.764  19.017  0.00  0.00    +0.000 C 
ATOM      5  C   UNL     1       3.063   2.365  18.128  0.00  0.00    +0.000 C 
ATOM      6  O   UNL     1       4.010   1.673  17.750  0.00  0.00    +0.000 OA
ATOM      7  N   UNL     1       2.957   3.716  17.821  0.00  0.00    +0.000 N 
ENDROOT
BRANCH   1   9
ATOM      8  N   UNL     1       1.888   7.036  18.267  0.00  0.00    +0.000 N 
ATOM      9  C   UNL     1       2.405   5.915  18.902  0.00  0.00    +0.000 C 
ATOM     10  O   UNL     1       3.326   5.990  19.711  0.00  0.00    +0.000 OA
ATOM     11  H   UNL     1       1.041   6.921  17.716  0.00  0.00    +0.000 HD
BRANCH   8  15
ATOM     12  C   UNL     1      -0.497  10.869  18.234  0.00  0.00    +0.000 C 
ATOM     13  N   UNL     1       0.372   9.781  18.629  0.00  0.00    +0.000 N 
ATOM     14  C   UNL     1       1.589   9.496  17.911  0.00  0.00    +0.000 C 
ATOM     15  C   UNL     1       2.251   8.384  18.724  0.00  0.00    +0.000 C 
ATOM     16  C   UNL     1       1.771   8.649  20.155  0.00  0.00    +0.000 C 
ATOM     17  C   UNL     1       0.492   9.435  19.971  0.00  0.00    +0.000 C 
ATOM     18  O   UNL     1      -0.259   9.762  20.872  0.00  0.00    +0.000 OA
ENDBRANCH   8  15
ENDBRANCH   1   9
BRANCH   7  19
ATOM     19  C   UNL     1       3.763   4.251  16.724  0.00  0.00    +0.000 C 
BRANCH  19  20
ATOM     20  C   UNL     1       5.021   4.984  17.137  0.00  0.00    +0.000 A 
ATOM     21  C   UNL     1       5.299   6.276  16.663  0.00  0.00    +0.000 A 
ATOM     22  C   UNL     1       6.382   7.003  17.170  0.00  0.00    +0.000 A 
ATOM     23  C   UNL     1       7.204   6.444  18.148  0.00  0.00    +0.000 A 
ATOM     24  C   UNL     1       6.962   5.148  18.596  0.00  0.00    +0.000 A 
ATOM     25  C   UNL     1       5.885   4.419  18.087  0.00  0.00    +0.000 A 
ENDBRANCH  19  20
ENDBRANCH   7  19
TORSDOF 4
ENDMDL
