MODEL 1
REMARK VINA RESULT:      -6.9      0.000      0.000
REMARK  Name = 
REMARK  5 active torsions:
REMARK  status: ('A' for Active; 'I' for Inactive)
REMARK    1  A    between atoms: C_1  and  C_2
REMARK    2  A    between atoms: C_2  and  C_3
REMARK    3  A    between atoms: C_8  and  O_9
REMARK    4  A    between atoms: O_9  and  C_10
REMARK    5  A    between atoms: C_15  and  C_16
REMARK                            x       y       z     vdW  Elec       q    Type
REMARK                         _______ _______ _______ _____ _____    ______ ____
ROOT
ATOM      1  C   UNL     1      -4.169  14.743  21.637  0.00  0.00    +0.000 C 
ATOM      2  C   UNL     1      -2.613  14.429  21.679  0.00  0.00    +0.000 C 
ATOM      3  C   UNL     1      -2.195  12.917  21.947  0.00  0.00    +0.000 C 
ATOM      4  C   UNL     1      -3.483  12.273  22.578  0.00  0.00    +0.000 C 
ATOM      5  C   UNL     1      -3.998  13.288  23.671  0.00  0.00    +0.000 C 
ATOM      6  C   UNL     1      -4.707  14.504  23.055  0.00  0.00    +0.000 C 
ATOM      7  C   UNL     1      -1.164  12.403  23.067  0.00  0.00    +0.000 C 
ATOM      8  C   UNL     1      -0.712  11.075  22.450  0.00  0.00    +0.000 A 
ATOM      9  C   UNL     1      -0.395   9.851  22.999  0.00  0.00    +0.000 A 
ATOM     10  C   UNL     1       0.208   8.871  22.178  0.00  0.00    +0.000 A 
ATOM     11  C   UNL     1       0.572   9.131  20.834  0.00  0.00    +0.000 A 
ATOM     12  C   UNL     1       0.100  10.333  20.286  0.00  0.00    +0.000 A 
ATOM     13  C   UNL     1      -0.616  11.230  21.078  0.00  0.00    +0.000 A 
ATOM     14  C   UNL     1      -1.251  12.535  20.695  0.00  0.00    +0.000 C 
ATOM     15  C   UNL     1      -1.790  12.601  19.272  0.00  0.00    +0.000 C 
ATOM     16  O   UNL     1      -0.828  13.378  18.546  0.00  0.00    +0.000 OA
ATOM     17  C   UNL     1       0.017  13.871  19.469  0.00  0.00    +0.000 C 
ATOM     18  N   UNL     1       0.941  14.739  19.014  0.00  0.00    +0.000 N 
ATOM     19  N   UNL     1      -0.134  13.533  20.705  0.00  0.00    +0.000 NA
ATOM     20  H   UNL     1       0.670  15.244  18.177  0.00  0.00    +0.000 HD
ATOM     21  H   UNL     1       1.328  15.322  19.747  0.00  0.00    +0.000 HD
ENDROOT
BRANCH  11  22
ATOM     22  C   UNL     1       1.451   8.216  20.065  0.00  0.00    +0.000 A 
ATOM     23  C   UNL     1       1.833   6.946  20.487  0.00  0.00    +0.000 A 
ATOM     24  N   UNL     1       2.590   6.071  19.776  0.00  0.00    +0.000 NA
ATOM     25  C   UNL     1       2.981   6.495  18.571  0.00  0.00    +0.000 A 
ATOM     26  N   UNL     1       2.690   7.685  18.035  0.00  0.00    +0.000 NA
ATOM     27  C   UNL     1       1.931   8.507  18.793  0.00  0.00    +0.000 A 
ENDBRANCH  11  22
BRANCH   1  29
ATOM     28  C   UNL     1      -6.453  13.728  20.839  0.00  0.00    +0.000 C 
ATOM     29  C   UNL     1      -4.996  14.059  20.502  0.00  0.00    +0.000 C 
ENDBRANCH   1  29
BRANCH   6  30
ATOM     30  O   UNL     1      -4.432  15.733  23.750  0.00  0.00    +0.000 OA
ATOM     31  C   UNL     1      -3.690  15.625  24.950  0.00  0.00    +0.000 C 
ENDBRANCH   6  30
TORSDOF 3
ENDMDL
MODEL 2
REMARK VINA RESULT:      -6.7      1.025      1.353
REMARK  Name = 
REMARK  5 active torsions:
REMARK  status: ('A' for Active; 'I' for Inactive)
REMARK    1  A    between atoms: C_1  and  C_2
REMARK    2  A    between atoms: C_2  and  C_3
REMARK    3  A    between atoms: C_8  and  O_9
REMARK    4  A    between atoms: O_9  and  C_10
REMARK    5  A    between atoms: C_15  and  C_16
REMARK                            x       y       z     vdW  Elec       q    Type
REMARK                         _______ _______ _______ _____ _____    ______ ____
ROOT
ATOM      1  C   UNL     1      -4.382  13.930  21.699  0.00  0.00    +0.000 C 
ATOM      2  C   UNL     1      -2.850  13.803  21.298  0.00  0.00    +0.000 C 
ATOM      3  C   UNL     1      -2.099  12.475  21.754  0.00  0.00    +0.000 C 
ATOM      4  C   UNL     1      -3.007  11.902  22.904  0.00  0.00    +0.000 C 
ATOM      5  C   UNL     1      -3.361  13.122  23.840  0.00  0.00    +0.000 C 
ATOM      6  C   UNL     1      -4.431  14.039  23.229  0.00  0.00    +0.000 C 
ATOM      7  C   UNL     1      -0.711  12.400  22.560  0.00  0.00    +0.000 C 
ATOM      8  C   UNL     1      -0.220  11.007  22.152  0.00  0.00    +0.000 A 
ATOM      9  C   UNL     1       0.465  10.023  22.833  0.00  0.00    +0.000 A 
ATOM     10  C   UNL     1       0.974   8.921  22.108  0.00  0.00    +0.000 A 
ATOM     11  C   UNL     1       0.878   8.835  20.698  0.00  0.00    +0.000 A 
ATOM     12  C   UNL     1       0.052   9.782  20.074  0.00  0.00    +0.000 A 
ATOM     13  C   UNL     1      -0.557  10.785  20.828  0.00  0.00    +0.000 A 
ATOM     14  C   UNL     1      -1.506  11.860  20.385  0.00  0.00    +0.000 C 
ATOM     15  C   UNL     1      -2.437  11.473  19.244  0.00  0.00    +0.000 C 
ATOM     16  O   UNL     1      -1.888  12.114  18.084  0.00  0.00    +0.000 OA
ATOM     17  C   UNL     1      -0.918  12.928  18.538  0.00  0.00    +0.000 C 
ATOM     18  N   UNL     1      -0.344  13.727  17.618  0.00  0.00    +0.000 N 
ATOM     19  N   UNL     1      -0.639  12.932  19.798  0.00  0.00    +0.000 NA
ATOM     20  H   UNL     1      -0.934  13.948  16.824  0.00  0.00    +0.000 HD
ATOM     21  H   UNL     1       0.124  14.526  18.028  0.00  0.00    +0.000 HD
ENDROOT
BRANCH  11  22
ATOM     22  C   UNL     1       1.649   7.839  19.915  0.00  0.00    +0.000 A 
ATOM     23  C   UNL     1       2.188   8.070  18.653  0.00  0.00    +0.000 A 
ATOM     24  N   UNL     1       2.943   7.193  17.943  0.00  0.00    +0.000 NA
ATOM     25  C   UNL     1       3.173   6.018  18.537  0.00  0.00    +0.000 A 
ATOM     26  N   UNL     1       2.722   5.657  19.743  0.00  0.00    +0.000 NA
ATOM     27  C   UNL     1       1.980   6.577  20.398  0.00  0.00    +0.000 A 
ENDBRANCH  11  22
BRANCH   1  29
ATOM     28  C   UNL     1      -6.640  12.609  21.885  0.00  0.00    +0.000 C 
ATOM     29  C   UNL     1      -5.360  12.877  21.087  0.00  0.00    +0.000 C 
ENDBRANCH   1  29
BRANCH   6  30
ATOM     30  O   UNL     1      -4.199  15.435  23.493  0.00  0.00    +0.000 OA
ATOM     31  C   UNL     1      -5.319  16.291  23.374  0.00  0.00    +0.000 C 
ENDBRANCH   6  30
TORSDOF 3
ENDMDL
MODEL 3
REMARK VINA RESULT:      -6.7      3.699      5.386
REMARK  Name = 
REMARK  5 active torsions:
REMARK  status: ('A' for Active; 'I' for Inactive)
REMARK    1  A    between atoms: C_1  and  C_2
REMARK    2  A    between atoms: C_2  and  C_3
REMARK    3  A    between atoms: C_8  and  O_9
REMARK    4  A    between atoms: O_9  and  C_10
REMARK    5  A    between atoms: C_15  and  C_16
REMARK                            x       y       z     vdW  Elec       q    Type
REMARK                         _______ _______ _______ _____ _____    ______ ____
ROOT
ATOM      1  C   UNL     1       0.947  13.911  20.524  0.00  0.00    +0.000 C 
ATOM      2  C   UNL     1       0.206  12.509  20.445  0.00  0.00    +0.000 C 
ATOM      3  C   UNL     1       0.965  11.341  19.674  0.00  0.00    +0.000 C 
ATOM      4  C   UNL     1       2.030  12.096  18.796  0.00  0.00    +0.000 C 
ATOM      5  C   UNL     1       1.271  13.301  18.115  0.00  0.00    +0.000 C 
ATOM      6  C   UNL     1       1.014  14.458  19.092  0.00  0.00    +0.000 C 
ATOM      7  C   UNL     1       0.359  10.436  18.493  0.00  0.00    +0.000 C 
ATOM      8  C   UNL     1       1.236   9.185  18.614  0.00  0.00    +0.000 A 
ATOM      9  C   UNL     1       1.761   8.319  17.679  0.00  0.00    +0.000 A 
ATOM     10  C   UNL     1       2.356   7.115  18.123  0.00  0.00    +0.000 A 
ATOM     11  C   UNL     1       2.357   6.731  19.486  0.00  0.00    +0.000 A 
ATOM     12  C   UNL     1       1.944   7.707  20.405  0.00  0.00    +0.000 A 
ATOM     13  C   UNL     1       1.488   8.945  19.954  0.00  0.00    +0.000 A 
ATOM     14  C   UNL     1       1.048  10.141  20.748  0.00  0.00    +0.000 C 
ATOM     15  C   UNL     1       1.770  10.339  22.075  0.00  0.00    +0.000 C 
ATOM     16  O   UNL     1       0.838   9.902  23.074  0.00  0.00    +0.000 OA
ATOM     17  C   UNL     1      -0.324   9.698  22.427  0.00  0.00    +0.000 C 
ATOM     18  N   UNL     1      -1.382   9.395  23.204  0.00  0.00    +0.000 N 
ATOM     19  N   UNL     1      -0.366   9.848  21.147  0.00  0.00    +0.000 NA
ATOM     20  H   UNL     1      -1.324   9.749  24.153  0.00  0.00    +0.000 HD
ATOM     21  H   UNL     1      -2.269   9.569  22.746  0.00  0.00    +0.000 HD
ENDROOT
BRANCH  11  22
ATOM     22  C   UNL     1       2.719   5.359  19.917  0.00  0.00    +0.000 A 
ATOM     23  C   UNL     1       2.058   4.641  20.909  0.00  0.00    +0.000 A 
ATOM     24  N   UNL     1       2.336   3.365  21.281  0.00  0.00    +0.000 NA
ATOM     25  C   UNL     1       3.333   2.776  20.615  0.00  0.00    +0.000 A 
ATOM     26  N   UNL     1       4.054   3.338  19.640  0.00  0.00    +0.000 NA
ATOM     27  C   UNL     1       3.724   4.609  19.316  0.00  0.00    +0.000 A 
ENDBRANCH  11  22
BRANCH   1  29
ATOM     28  C   UNL     1       3.300  15.022  20.857  0.00  0.00    +0.000 C 
ATOM     29  C   UNL     1       2.301  13.949  21.302  0.00  0.00    +0.000 C 
ENDBRANCH   1  29
BRANCH   6  30
ATOM     30  O   UNL     1      -0.262  15.094  18.895  0.00  0.00    +0.000 OA
ATOM     31  C   UNL     1      -0.267  16.508  18.901  0.00  0.00    +0.000 C 
ENDBRANCH   6  30
TORSDOF 3
ENDMDL
MODEL 4
REMARK VINA RESULT:      -6.5      1.138      1.492
REMARK  Name = 
REMARK  5 active torsions:
REMARK  status: ('A' for Active; 'I' for Inactive)
REMARK    1  A    between atoms: C_1  and  C_2
REMARK    2  A    between atoms: C_2  and  C_3
REMARK    3  A    between atoms: C_8  and  O_9
REMARK    4  A    between atoms: O_9  and  C_10
REMARK    5  A    between atoms: C_15  and  C_16
REMARK                            x       y       z     vdW  Elec       q    Type
REMARK                         _______ _______ _______ _____ _____    ______ ____
ROOT
ATOM      1  C   UNL     1      -3.390  15.133  22.523  0.00  0.00    +0.000 C 
ATOM      2  C   UNL     1      -1.931  14.523  22.666  0.00  0.00    +0.000 C 
ATOM      3  C   UNL     1      -1.779  12.960  22.400  0.00  0.00    +0.000 C 
ATOM      4  C   UNL     1      -3.243  12.406  22.549  0.00  0.00    +0.000 C 
ATOM      5  C   UNL     1      -3.834  13.059  23.859  0.00  0.00    +0.000 C 
ATOM      6  C   UNL     1      -4.235  14.528  23.652  0.00  0.00    +0.000 C 
ATOM      7  C   UNL     1      -1.078  11.896  23.379  0.00  0.00    +0.000 C 
ATOM      8  C   UNL     1      -0.687  10.804  22.378  0.00  0.00    +0.000 A 
ATOM      9  C   UNL     1      -0.653   9.428  22.465  0.00  0.00    +0.000 A 
ATOM     10  C   UNL     1      -0.028   8.696  21.430  0.00  0.00    +0.000 A 
ATOM     11  C   UNL     1       0.637   9.328  20.351  0.00  0.00    +0.000 A 
ATOM     12  C   UNL     1       0.450  10.714  20.235  0.00  0.00    +0.000 A 
ATOM     13  C   UNL     1      -0.290  11.403  21.195  0.00  0.00    +0.000 A 
ATOM     14  C   UNL     1      -0.656  12.858  21.246  0.00  0.00    +0.000 C 
ATOM     15  C   UNL     1      -0.876  13.519  19.892  0.00  0.00    +0.000 C 
ATOM     16  O   UNL     1       0.309  14.293  19.660  0.00  0.00    +0.000 OA
ATOM     17  C   UNL     1       1.003  14.257  20.812  0.00  0.00    +0.000 C 
ATOM     18  N   UNL     1       2.106  15.028  20.856  0.00  0.00    +0.000 N 
ATOM     19  N   UNL     1       0.557  13.548  21.793  0.00  0.00    +0.000 NA
ATOM     20  H   UNL     1       2.083  15.835  20.241  0.00  0.00    +0.000 HD
ATOM     21  H   UNL     1       2.407  15.231  21.802  0.00  0.00    +0.000 HD
ENDROOT
BRANCH  11  22
ATOM     22  C   UNL     1       1.527   8.583  19.428  0.00  0.00    +0.000 A 
ATOM     23  C   UNL     1       1.883   9.013  18.154  0.00  0.00    +0.000 A 
ATOM     24  N   UNL     1       2.739   8.375  17.314  0.00  0.00    +0.000 NA
ATOM     25  C   UNL     1       3.271   7.243  17.785  0.00  0.00    +0.000 A 
ATOM     26  N   UNL     1       3.023   6.710  18.986  0.00  0.00    +0.000 NA
ATOM     27  C   UNL     1       2.165   7.396  19.773  0.00  0.00    +0.000 A 
ENDBRANCH  11  22
BRANCH   1  29
ATOM     28  C   UNL     1      -4.724  16.349  20.619  0.00  0.00    +0.000 C 
ATOM     29  C   UNL     1      -4.046  15.064  21.107  0.00  0.00    +0.000 C 
ENDBRANCH   1  29
BRANCH   6  30
ATOM     30  O   UNL     1      -3.951  15.359  24.792  0.00  0.00    +0.000 OA
ATOM     31  C   UNL     1      -4.323  16.720  24.686  0.00  0.00    +0.000 C 
ENDBRANCH   6  30
TORSDOF 3
ENDMDL
MODEL 5
REMARK VINA RESULT:      -6.5      0.610      1.062
REMARK  Name = 
REMARK  5 active torsions:
REMARK  status: ('A' for Active; 'I' for Inactive)
REMARK    1  A    between atoms: C_1  and  C_2
REMARK    2  A    between atoms: C_2  and  C_3
REMARK    3  A    between atoms: C_8  and  O_9
REMARK    4  A    between atoms: O_9  and  C_10
REMARK    5  A    between atoms: C_15  and  C_16
REMARK                            x       y       z     vdW  Elec       q    Type
REMARK                         _______ _______ _______ _____ _____    ______ ____
ROOT
ATOM      1  C   UNL     1      -3.562  14.703  21.538  0.00  0.00    +0.000 C 
ATOM      2  C   UNL     1      -2.024  14.311  21.576  0.00  0.00    +0.000 C 
ATOM      3  C   UNL     1      -1.683  12.763  21.731  0.00  0.00    +0.000 C 
ATOM      4  C   UNL     1      -3.012  12.138  22.294  0.00  0.00    +0.000 C 
ATOM      5  C   UNL     1      -3.496  13.091  23.455  0.00  0.00    +0.000 C 
ATOM      6  C   UNL     1      -4.135  14.383  22.925  0.00  0.00    +0.000 C 
ATOM      7  C   UNL     1      -0.698  12.115  22.822  0.00  0.00    +0.000 C 
ATOM      8  C   UNL     1      -0.301  10.817  22.111  0.00  0.00    +0.000 A 
ATOM      9  C   UNL     1      -0.052   9.541  22.568  0.00  0.00    +0.000 A 
ATOM     10  C   UNL     1       0.517   8.597  21.681  0.00  0.00    +0.000 A 
ATOM     11  C   UNL     1       0.915   8.941  20.367  0.00  0.00    +0.000 A 
ATOM     12  C   UNL     1       0.511  10.203  19.907  0.00  0.00    +0.000 A 
ATOM     13  C   UNL     1      -0.174  11.072  20.756  0.00  0.00    +0.000 A 
ATOM     14  C   UNL     1      -0.739  12.432  20.466  0.00  0.00    +0.000 C 
ATOM     15  C   UNL     1      -1.249  12.633  19.045  0.00  0.00    +0.000 C 
ATOM     16  O   UNL     1      -0.239  13.415  18.395  0.00  0.00    +0.000 OA
ATOM     17  C   UNL     1       0.614  13.793  19.364  0.00  0.00    +0.000 C 
ATOM     18  N   UNL     1       1.586  14.647  18.990  0.00  0.00    +0.000 N 
ATOM     19  N   UNL     1       0.425  13.370  20.568  0.00  0.00    +0.000 NA
ATOM     20  H   UNL     1       1.355  15.227  18.190  0.00  0.00    +0.000 HD
ATOM     21  H   UNL     1       1.988  15.152  19.771  0.00  0.00    +0.000 HD
ENDROOT
BRANCH  11  22
ATOM     22  C   UNL     1       1.761   8.045  19.541  0.00  0.00    +0.000 A 
ATOM     23  C   UNL     1       2.318   8.393  18.314  0.00  0.00    +0.000 A 
ATOM     24  N   UNL     1       3.139   7.610  17.567  0.00  0.00    +0.000 NA
ATOM     25  C   UNL     1       3.421   6.411  18.087  0.00  0.00    +0.000 A 
ATOM     26  N   UNL     1       2.962   5.944  19.252  0.00  0.00    +0.000 NA
ATOM     27  C   UNL     1       2.152   6.774  19.947  0.00  0.00    +0.000 A 
ENDBRANCH  11  22
BRANCH   1  29
ATOM     28  C   UNL     1      -5.879  13.868  20.633  0.00  0.00    +0.000 C 
ATOM     29  C   UNL     1      -4.401  14.150  20.341  0.00  0.00    +0.000 C 
ENDBRANCH   1  29
BRANCH   6  30
ATOM     30  O   UNL     1      -3.813  15.541  23.717  0.00  0.00    +0.000 OA
ATOM     31  C   UNL     1      -3.354  15.295  25.032  0.00  0.00    +0.000 C 
ENDBRANCH   6  30
TORSDOF 3
ENDMDL
MODEL 6
REMARK VINA RESULT:      -6.3      2.842      3.847
REMARK  Name = 
REMARK  5 active torsions:
REMARK  status: ('A' for Active; 'I' for Inactive)
REMARK    1  A    between atoms: C_1  and  C_2
REMARK    2  A    between atoms: C_2  and  C_3
REMARK    3  A    between atoms: C_8  and  O_9
REMARK    4  A    between atoms: O_9  and  C_10
REMARK    5  A    between atoms: C_15  and  C_16
REMARK                            x       y       z     vdW  Elec       q    Type
REMARK                         _______ _______ _______ _____ _____    ______ ____
ROOT
ATOM      1  C   UNL     1      -5.922  12.386  18.974  0.00  0.00    +0.000 C 
ATOM      2  C   UNL     1      -4.567  12.379  18.146  0.00  0.00    +0.000 C 
ATOM      3  C   UNL     1      -3.249  11.960  18.934  0.00  0.00    +0.000 C 
ATOM      4  C   UNL     1      -3.635  12.150  20.447  0.00  0.00    +0.000 C 
ATOM      5  C   UNL     1      -4.358  13.549  20.548  0.00  0.00    +0.000 C 
ATOM      6  C   UNL     1      -5.798  13.506  20.016  0.00  0.00    +0.000 C 
ATOM      7  C   UNL     1      -1.874  12.789  18.989  0.00  0.00    +0.000 C 
ATOM      8  C   UNL     1      -0.878  11.668  19.307  0.00  0.00    +0.000 A 
ATOM      9  C   UNL     1       0.260  11.624  20.083  0.00  0.00    +0.000 A 
ATOM     10  C   UNL     1       1.097  10.487  20.001  0.00  0.00    +0.000 A 
ATOM     11  C   UNL     1       0.851   9.433  19.089  0.00  0.00    +0.000 A 
ATOM     12  C   UNL     1      -0.387   9.458  18.431  0.00  0.00    +0.000 A 
ATOM     13  C   UNL     1      -1.265  10.523  18.632  0.00  0.00    +0.000 A 
ATOM     14  C   UNL     1      -2.645  10.732  18.079  0.00  0.00    +0.000 C 
ATOM     15  C   UNL     1      -3.458   9.462  17.868  0.00  0.00    +0.000 C 
ATOM     16  O   UNL     1      -3.420   9.227  16.454  0.00  0.00    +0.000 OA
ATOM     17  C   UNL     1      -2.859  10.325  15.915  0.00  0.00    +0.000 C 
ATOM     18  N   UNL     1      -2.835  10.370  14.569  0.00  0.00    +0.000 N 
ATOM     19  N   UNL     1      -2.436  11.262  16.693  0.00  0.00    +0.000 NA
ATOM     20  H   UNL     1      -3.568   9.836  14.115  0.00  0.00    +0.000 HD
ATOM     21  H   UNL     1      -2.718  11.310  14.209  0.00  0.00    +0.000 HD
ENDROOT
BRANCH  11  22
ATOM     22  C   UNL     1       1.866   8.390  18.799  0.00  0.00    +0.000 A 
ATOM     23  C   UNL     1       2.689   8.377  17.677  0.00  0.00    +0.000 A 
ATOM     24  N   UNL     1       3.661   7.465  17.419  0.00  0.00    +0.000 NA
ATOM     25  C   UNL     1       3.816   6.512  18.344  0.00  0.00    +0.000 A 
ATOM     26  N   UNL     1       3.102   6.399  19.468  0.00  0.00    +0.000 NA
ATOM     27  C   UNL     1       2.153   7.341  19.666  0.00  0.00    +0.000 A 
ENDBRANCH  11  22
BRANCH   1  29
ATOM     28  C   UNL     1      -7.523  11.081  20.592  0.00  0.00    +0.000 C 
ATOM     29  C   UNL     1      -6.407  11.015  19.543  0.00  0.00    +0.000 C 
ENDBRANCH   1  29
BRANCH   6  30
ATOM     30  O   UNL     1      -6.175  14.697  19.303  0.00  0.00    +0.000 OA
ATOM     31  C   UNL     1      -7.495  14.734  18.793  0.00  0.00    +0.000 C 
ENDBRANCH   6  30
TORSDOF 3
ENDMDL
MODEL 7
REMARK VINA RESULT:      -6.2      2.656      3.424
REMARK  Name = 
REMARK  5 active torsions:
REMARK  status: ('A' for Active; 'I' for Inactive)
REMARK    1  A    between atoms: C_1  and  C_2
REMARK    2  A    between atoms: C_2  and  C_3
REMARK    3  A    between atoms: C_8  and  O_9
REMARK    4  A    between atoms: O_9  and  C_10
REMARK    5  A    between atoms: C_15  and  C_16
REMARK                            x       y       z     vdW  Elec       q    Type
REMARK                         _______ _______ _______ _____ _____    ______ ____
ROOT
ATOM      1  C   UNL     1      -5.882  12.639  19.413  0.00  0.00    +0.000 C 
ATOM      2  C   UNL     1      -4.532  12.632  18.576  0.00  0.00    +0.000 C 
ATOM      3  C   UNL     1      -3.218  12.160  19.341  0.00  0.00    +0.000 C 
ATOM      4  C   UNL     1      -3.591  12.306  20.862  0.00  0.00    +0.000 C 
ATOM      5  C   UNL     1      -4.285  13.716  21.015  0.00  0.00    +0.000 C 
ATOM      6  C   UNL     1      -5.729  13.719  20.491  0.00  0.00    +0.000 C 
ATOM      7  C   UNL     1      -1.826  12.959  19.415  0.00  0.00    +0.000 C 
ATOM      8  C   UNL     1      -0.852  11.808  19.688  0.00  0.00    +0.000 A 
ATOM      9  C   UNL     1       0.290  11.715  20.454  0.00  0.00    +0.000 A 
ATOM     10  C   UNL     1       1.104  10.565  20.328  0.00  0.00    +0.000 A 
ATOM     11  C   UNL     1       0.831   9.547  19.383  0.00  0.00    +0.000 A 
ATOM     12  C   UNL     1      -0.411   9.620  18.734  0.00  0.00    +0.000 A 
ATOM     13  C   UNL     1      -1.266  10.695  18.977  0.00  0.00    +0.000 A 
ATOM     14  C   UNL     1      -2.644  10.950  18.441  0.00  0.00    +0.000 C 
ATOM     15  C   UNL     1      -3.484   9.704  18.193  0.00  0.00    +0.000 C 
ATOM     16  O   UNL     1      -3.460   9.517  16.771  0.00  0.00    +0.000 OA
ATOM     17  C   UNL     1      -2.880  10.621  16.266  0.00  0.00    +0.000 C 
ATOM     18  N   UNL     1      -2.863  10.712  14.922  0.00  0.00    +0.000 N 
ATOM     19  N   UNL     1      -2.433  11.523  17.072  0.00  0.00    +0.000 NA
ATOM     20  H   UNL     1      -3.610  10.208  14.455  0.00  0.00    +0.000 HD
ATOM     21  H   UNL     1      -2.729  11.661  14.593  0.00  0.00    +0.000 HD
ENDROOT
BRANCH  11  22
ATOM     22  C   UNL     1       1.822   8.494  19.051  0.00  0.00    +0.000 A 
ATOM     23  C   UNL     1       2.072   7.370  19.831  0.00  0.00    +0.000 A 
ATOM     24  N   UNL     1       2.933   6.367  19.521  0.00  0.00    +0.000 NA
ATOM     25  C   UNL     1       3.577   6.500  18.356  0.00  0.00    +0.000 A 
ATOM     26  N   UNL     1       3.437   7.522  17.506  0.00  0.00    +0.000 NA
ATOM     27  C   UNL     1       2.562   8.485  17.873  0.00  0.00    +0.000 A 
ENDBRANCH  11  22
BRANCH   1  29
ATOM     28  C   UNL     1      -6.903  10.283  18.874  0.00  0.00    +0.000 C 
ATOM     29  C   UNL     1      -6.391  11.259  19.939  0.00  0.00    +0.000 C 
ENDBRANCH   1  29
BRANCH   6  30
ATOM     30  O   UNL     1      -6.086  14.942  19.821  0.00  0.00    +0.000 OA
ATOM     31  C   UNL     1      -7.409  15.403  20.017  0.00  0.00    +0.000 C 
ENDBRANCH   6  30
TORSDOF 3
ENDMDL
MODEL 8
REMARK VINA RESULT:      -5.9      1.518      1.942
REMARK  Name = 
REMARK  5 active torsions:
REMARK  status: ('A' for Active; 'I' for Inactive)
REMARK    1  A    between atoms: C_1  and  C_2
REMARK    2  A    between atoms: C_2  and  C_3
REMARK    3  A    between atoms: C_8  and  O_9
REMARK    4  A    between atoms: O_9  and  C_10
REMARK    5  A    between atoms: C_15  and  C_16
REMARK                            x       y       z     vdW  Elec       q    Type
REMARK                         _______ _______ _______ _____ _____    ______ ____
ROOT
ATOM      1  C   UNL     1      -3.776  16.398  22.671  0.00  0.00    +0.000 C 
ATOM      2  C   UNL     1      -2.304  15.805  22.741  0.00  0.00    +0.000 C 
ATOM      3  C   UNL     1      -2.162  14.225  22.604  0.00  0.00    +0.000 C 
ATOM      4  C   UNL     1      -3.603  13.685  22.930  0.00  0.00    +0.000 C 
ATOM      5  C   UNL     1      -4.084  14.453  24.222  0.00  0.00    +0.000 C 
ATOM      6  C   UNL     1      -4.514  15.896  23.919  0.00  0.00    +0.000 C 
ATOM      7  C   UNL     1      -1.369  13.255  23.610  0.00  0.00    +0.000 C 
ATOM      8  C   UNL     1      -1.057  12.076  22.681  0.00  0.00    +0.000 A 
ATOM      9  C   UNL     1      -1.003  10.714  22.887  0.00  0.00    +0.000 A 
ATOM     10  C   UNL     1      -0.463   9.892  21.872  0.00  0.00    +0.000 A 
ATOM     11  C   UNL     1       0.099  10.425  20.687  0.00  0.00    +0.000 A 
ATOM     12  C   UNL     1      -0.110  11.794  20.463  0.00  0.00    +0.000 A 
ATOM     13  C   UNL     1      -0.770  12.567  21.419  0.00  0.00    +0.000 A 
ATOM     14  C   UNL     1      -1.143  14.020  21.370  0.00  0.00    +0.000 C 
ATOM     15  C   UNL     1      -1.485  14.556  19.986  0.00  0.00    +0.000 C 
ATOM     16  O   UNL     1      -0.332  15.307  19.583  0.00  0.00    +0.000 OA
ATOM     17  C   UNL     1       0.459  15.376  20.668  0.00  0.00    +0.000 C 
ATOM     18  N   UNL     1       1.556  16.149  20.547  0.00  0.00    +0.000 N 
ATOM     19  N   UNL     1       0.107  14.758  21.745  0.00  0.00    +0.000 NA
ATOM     20  H   UNL     1       1.472  16.897  19.866  0.00  0.00    +0.000 HD
ATOM     21  H   UNL     1       1.935  16.437  21.441  0.00  0.00    +0.000 HD
ENDROOT
BRANCH  11  22
ATOM     22  C   UNL     1       0.913   9.600  19.761  0.00  0.00    +0.000 A 
ATOM     23  C   UNL     1       1.248   9.968  18.461  0.00  0.00    +0.000 A 
ATOM     24  N   UNL     1       2.036   9.256  17.615  0.00  0.00    +0.000 NA
ATOM     25  C   UNL     1       2.518   8.110  18.106  0.00  0.00    +0.000 A 
ATOM     26  N   UNL     1       2.283   7.631  19.332  0.00  0.00    +0.000 NA
ATOM     27  C   UNL     1       1.494   8.390  20.124  0.00  0.00    +0.000 A 
ENDBRANCH  11  22
BRANCH   1  29
ATOM     28  C   UNL     1      -6.077  16.099  21.446  0.00  0.00    +0.000 C 
ATOM     29  C   UNL     1      -4.552  16.200  21.330  0.00  0.00    +0.000 C 
ENDBRANCH   1  29
BRANCH   6  30
ATOM     30  O   UNL     1      -4.140  16.828  24.951  0.00  0.00    +0.000 OA
ATOM     31  C   UNL     1      -5.055  17.873  25.216  0.00  0.00    +0.000 C 
ENDBRANCH   6  30
TORSDOF 3
ENDMDL
MODEL 9
REMARK VINA RESULT:      -5.9      3.535      5.640
REMARK  Name = 
REMARK  5 active torsions:
REMARK  status: ('A' for Active; 'I' for Inactive)
REMARK    1  A    between atoms: C_1  and  C_2
REMARK    2  A    between atoms: C_2  and  C_3
REMARK    3  A    between atoms: C_8  and  O_9
REMARK    4  A    between atoms: O_9  and  C_10
REMARK    5  A    between atoms: C_15  and  C_16
REMARK                            x       y       z     vdW  Elec       q    Type
REMARK                         _______ _______ _______ _____ _____    ______ ____
ROOT
ATOM      1  C   UNL     1      -3.008  12.672  21.332  0.00  0.00    +0.000 C 
ATOM      2  C   UNL     1      -2.061  12.755  20.060  0.00  0.00    +0.000 C 
ATOM      3  C   UNL     1      -0.922  13.867  20.086  0.00  0.00    +0.000 C 
ATOM      4  C   UNL     1      -1.404  14.877  21.191  0.00  0.00    +0.000 C 
ATOM      5  C   UNL     1      -2.936  15.141  20.913  0.00  0.00    +0.000 C 
ATOM      6  C   UNL     1      -3.823  13.971  21.363  0.00  0.00    +0.000 C 
ATOM      7  C   UNL     1      -0.639  14.961  18.945  0.00  0.00    +0.000 C 
ATOM      8  C   UNL     1       0.840  15.268  19.205  0.00  0.00    +0.000 A 
ATOM      9  C   UNL     1       1.581  16.428  19.124  0.00  0.00    +0.000 A 
ATOM     10  C   UNL     1       2.989  16.345  19.214  0.00  0.00    +0.000 A 
ATOM     11  C   UNL     1       3.669  15.106  19.301  0.00  0.00    +0.000 A 
ATOM     12  C   UNL     1       2.869  13.975  19.524  0.00  0.00    +0.000 A 
ATOM     13  C   UNL     1       1.481  14.097  19.571  0.00  0.00    +0.000 A 
ATOM     14  C   UNL     1       0.445  13.045  19.842  0.00  0.00    +0.000 C 
ATOM     15  C   UNL     1       0.872  11.949  20.810  0.00  0.00    +0.000 C 
ATOM     16  O   UNL     1       1.152  10.812  19.982  0.00  0.00    +0.000 OA
ATOM     17  C   UNL     1       0.731  11.143  18.748  0.00  0.00    +0.000 C 
ATOM     18  N   UNL     1       0.788  10.163  17.825  0.00  0.00    +0.000 N 
ATOM     19  N   UNL     1       0.264  12.328  18.539  0.00  0.00    +0.000 NA
ATOM     20  H   UNL     1       0.731   9.224  18.203  0.00  0.00    +0.000 HD
ATOM     21  H   UNL     1       0.182  10.334  17.032  0.00  0.00    +0.000 HD
ENDROOT
BRANCH  11  22
ATOM     22  C   UNL     1       5.136  14.997  19.111  0.00  0.00    +0.000 A 
ATOM     23  C   UNL     1       6.075  15.088  20.133  0.00  0.00    +0.000 A 
ATOM     24  N   UNL     1       7.417  14.937  19.991  0.00  0.00    +0.000 NA
ATOM     25  C   UNL     1       7.838  14.675  18.749  0.00  0.00    +0.000 A 
ATOM     26  N   UNL     1       7.054  14.558  17.673  0.00  0.00    +0.000 NA
ATOM     27  C   UNL     1       5.729  14.717  17.884  0.00  0.00    +0.000 A 
ENDBRANCH  11  22
BRANCH   1  29
ATOM     28  C   UNL     1      -3.216  12.411  23.934  0.00  0.00    +0.000 C 
ATOM     29  C   UNL     1      -2.332  12.292  22.689  0.00  0.00    +0.000 C 
ENDBRANCH   1  29
BRANCH   6  30
ATOM     30  O   UNL     1      -4.925  13.720  20.472  0.00  0.00    +0.000 OA
ATOM     31  C   UNL     1      -5.819  12.692  20.853  0.00  0.00    +0.000 C 
ENDBRANCH   6  30
TORSDOF 3
ENDMDL
