MODEL 1
REMARK VINA RESULT:      -9.1      0.000      0.000
REMARK  Name = 
REMARK  8 active torsions:
REMARK  status: ('A' for Active; 'I' for Inactive)
REMARK    1  A    between atoms: C_1  and  N_2
REMARK    2  A    between atoms: N_5  and  C_6
REMARK    3  A    between atoms: C_9  and  C_10
REMARK    4  A    between atoms: C_12  and  C_13
REMARK    5  A    between atoms: C_13  and  S_14
REMARK    6  A    between atoms: S_14  and  C_17
REMARK    7  A    between atoms: C_24  and  N_25
REMARK    8  A    between atoms: C_30  and  C_31
REMARK                            x       y       z     vdW  Elec       q    Type
REMARK                         _______ _______ _______ _____ _____    ______ ____
ROOT
ATOM      1  C   UNL     1       2.531   7.448  19.139  0.00  0.00    +0.000 A 
ATOM      2  N   UNL     1       2.111   6.585  20.074  0.00  0.00    +0.000 NA
ATOM      3  C   UNL     1       2.788   5.432  20.173  0.00  0.00    +0.000 A 
ATOM      4  C   UNL     1       3.876   5.157  19.360  0.00  0.00    +0.000 A 
ATOM      5  C   UNL     1       4.208   6.061  18.366  0.00  0.00    +0.000 A 
ATOM      6  N   UNL     1       3.541   7.221  18.287  0.00  0.00    +0.000 NA
ENDROOT
BRANCH   5   7
ATOM      7  N   UNL     1       5.238   5.852  17.469  0.00  0.00    +0.000 N 
ATOM      8  C   UNL     1       5.060   6.235  16.055  0.00  0.00    +0.000 C 
ATOM      9  C   UNL     1       5.966   5.355  15.183  0.00  0.00    +0.000 C 
ATOM     10  O   UNL     1       7.343   5.493  15.560  0.00  0.00    +0.000 OA
ATOM     11  C   UNL     1       7.524   5.102  16.932  0.00  0.00    +0.000 C 
ATOM     12  C   UNL     1       6.666   5.961  17.897  0.00  0.00    +0.000 C 
ATOM     13  C   UNL     1       6.993   5.557  19.333  0.00  0.00    +0.000 C 
ENDBRANCH   5   7
BRANCH   1  17
ATOM     14  C   UNL     1       0.388  11.138  18.701  0.00  0.00    +0.000 A 
ATOM     15  C   UNL     1       0.164  10.318  19.806  0.00  0.00    +0.000 A 
ATOM     16  C   UNL     1       0.855   9.111  19.949  0.00  0.00    +0.000 A 
ATOM     17  C   UNL     1       1.772   8.687  18.980  0.00  0.00    +0.000 A 
ATOM     18  C   UNL     1       1.956   9.504  17.849  0.00  0.00    +0.000 A 
ATOM     19  C   UNL     1       1.273  10.715  17.708  0.00  0.00    +0.000 A 
BRANCH  14  24
ATOM     20  C   UNL     1      -0.196  15.967  18.946  0.00  0.00    +0.000 C 
ATOM     21  N   UNL     1      -0.619  14.621  18.651  0.00  0.00    +0.000 N 
ATOM     22  C   UNL     1       0.300  13.608  18.823  0.00  0.00    +0.000 C 
ATOM     23  O   UNL     1       1.451  13.823  19.175  0.00  0.00    +0.000 OA
ATOM     24  N   UNL     1      -0.252  12.383  18.528  0.00  0.00    +0.000 N 
ATOM     25  H   UNL     1      -1.568  14.377  18.892  0.00  0.00    +0.000 HD
ATOM     26  H   UNL     1      -1.059  12.407  17.919  0.00  0.00    +0.000 HD
ENDBRANCH  14  24
ENDBRANCH   1  17
BRANCH   3  27
ATOM     27  C   UNL     1       2.289   4.504  21.231  0.00  0.00    +0.000 C 
BRANCH  27  28
ATOM     28  S   UNL     1       2.821   2.832  20.966  0.00  0.00    +0.000 S 
ATOM     29  O   UNL     1       4.216   2.865  20.583  0.00  0.00    +0.000 OA
ATOM     30  O   UNL     1       2.466   2.133  22.199  0.00  0.00    +0.000 OA
BRANCH  28  31
ATOM     31  C   UNL     1       1.845   2.030  19.656  0.00  0.00    +0.000 C 
ATOM     32  C   UNL     1       0.791   2.852  18.910  0.00  0.00    +0.000 C 
ATOM     33  C   UNL     1       1.317   3.802  17.832  0.00  0.00    +0.000 C 
ATOM     34  C   UNL     1       2.356   3.167  16.914  0.00  0.00    +0.000 C 
ATOM     35  C   UNL     1       3.432   2.421  17.690  0.00  0.00    +0.000 C 
ATOM     36  C   UNL     1       2.813   1.393  18.638  0.00  0.00    +0.000 C 
ENDBRANCH  28  31
ENDBRANCH  27  28
ENDBRANCH   3  27
TORSDOF 6
ENDMDL
MODEL 2
REMARK VINA RESULT:      -8.9      3.419     10.577
REMARK  Name = 
REMARK  8 active torsions:
REMARK  status: ('A' for Active; 'I' for Inactive)
REMARK    1  A    between atoms: C_1  and  N_2
REMARK    2  A    between atoms: N_5  and  C_6
REMARK    3  A    between atoms: C_9  and  C_10
REMARK    4  A    between atoms: C_12  and  C_13
REMARK    5  A    between atoms: C_13  and  S_14
REMARK    6  A    between atoms: S_14  and  C_17
REMARK    7  A    between atoms: C_24  and  N_25
REMARK    8  A    between atoms: C_30  and  C_31
REMARK                            x       y       z     vdW  Elec       q    Type
REMARK                         _______ _______ _______ _____ _____    ______ ____
ROOT
ATOM      1  C   UNL     1       0.662  10.690  18.746  0.00  0.00    +0.000 A 
ATOM      2  N   UNL     1       1.409  11.802  18.757  0.00  0.00    +0.000 NA
ATOM      3  C   UNL     1       0.760  12.961  18.571  0.00  0.00    +0.000 A 
ATOM      4  C   UNL     1      -0.614  13.003  18.396  0.00  0.00    +0.000 A 
ATOM      5  C   UNL     1      -1.311  11.811  18.321  0.00  0.00    +0.000 A 
ATOM      6  N   UNL     1      -0.660  10.657  18.529  0.00  0.00    +0.000 NA
ENDROOT
BRANCH   5   7
ATOM      7  N   UNL     1      -2.672  11.745  18.091  0.00  0.00    +0.000 N 
ATOM      8  C   UNL     1      -3.184  10.906  16.990  0.00  0.00    +0.000 C 
ATOM      9  C   UNL     1      -4.527  11.476  16.512  0.00  0.00    +0.000 C 
ATOM     10  O   UNL     1      -5.482  11.522  17.581  0.00  0.00    +0.000 OA
ATOM     11  C   UNL     1      -4.994  12.356  18.647  0.00  0.00    +0.000 C 
ATOM     12  C   UNL     1      -3.649  11.837  19.219  0.00  0.00    +0.000 C 
ATOM     13  C   UNL     1      -3.255  12.709  20.408  0.00  0.00    +0.000 C 
ENDBRANCH   5   7
BRANCH   1  17
ATOM     14  C   UNL     1       2.631   6.896  19.118  0.00  0.00    +0.000 A 
ATOM     15  C   UNL     1       1.928   7.436  20.195  0.00  0.00    +0.000 A 
ATOM     16  C   UNL     1       1.292   8.675  20.080  0.00  0.00    +0.000 A 
ATOM     17  C   UNL     1       1.359   9.412  18.892  0.00  0.00    +0.000 A 
ATOM     18  C   UNL     1       2.107   8.875  17.828  0.00  0.00    +0.000 A 
ATOM     19  C   UNL     1       2.737   7.632  17.938  0.00  0.00    +0.000 A 
BRANCH  14  24
ATOM     20  C   UNL     1       3.090   2.079  18.565  0.00  0.00    +0.000 C 
ATOM     21  N   UNL     1       3.529   3.386  18.986  0.00  0.00    +0.000 N 
ATOM     22  C   UNL     1       2.723   4.462  18.684  0.00  0.00    +0.000 C 
ATOM     23  O   UNL     1       1.685   4.342  18.047  0.00  0.00    +0.000 OA
ATOM     24  N   UNL     1       3.257   5.633  19.167  0.00  0.00    +0.000 N 
ATOM     25  H   UNL     1       3.997   3.445  19.878  0.00  0.00    +0.000 HD
ATOM     26  H   UNL     1       4.254   5.619  19.333  0.00  0.00    +0.000 HD
ENDBRANCH  14  24
ENDBRANCH   1  17
BRANCH   3  27
ATOM     27  C   UNL     1       1.630  14.174  18.597  0.00  0.00    +0.000 C 
BRANCH  27  28
ATOM     28  S   UNL     1       1.850  14.811  20.238  0.00  0.00    +0.000 S 
ATOM     29  O   UNL     1       1.010  14.040  21.130  0.00  0.00    +0.000 OA
ATOM     30  O   UNL     1       3.295  14.775  20.456  0.00  0.00    +0.000 OA
BRANCH  28  31
ATOM     31  C   UNL     1       1.389  16.569  20.330  0.00  0.00    +0.000 C 
ATOM     32  C   UNL     1       1.543  17.440  19.081  0.00  0.00    +0.000 C 
ATOM     33  C   UNL     1       0.455  17.289  18.016  0.00  0.00    +0.000 C 
ATOM     34  C   UNL     1      -0.960  17.285  18.587  0.00  0.00    +0.000 C 
ATOM     35  C   UNL     1      -1.098  16.352  19.781  0.00  0.00    +0.000 C 
ATOM     36  C   UNL     1      -0.057  16.674  20.854  0.00  0.00    +0.000 C 
ENDBRANCH  28  31
ENDBRANCH  27  28
ENDBRANCH   3  27
TORSDOF 6
ENDMDL
MODEL 3
REMARK VINA RESULT:      -8.8      3.582     10.713
REMARK  Name = 
REMARK  8 active torsions:
REMARK  status: ('A' for Active; 'I' for Inactive)
REMARK    1  A    between atoms: C_1  and  N_2
REMARK    2  A    between atoms: N_5  and  C_6
REMARK    3  A    between atoms: C_9  and  C_10
REMARK    4  A    between atoms: C_12  and  C_13
REMARK    5  A    between atoms: C_13  and  S_14
REMARK    6  A    between atoms: S_14  and  C_17
REMARK    7  A    between atoms: C_24  and  N_25
REMARK    8  A    between atoms: C_30  and  C_31
REMARK                            x       y       z     vdW  Elec       q    Type
REMARK                         _______ _______ _______ _____ _____    ______ ____
ROOT
ATOM      1  C   UNL     1       0.460  10.670  19.068  0.00  0.00    +0.000 A 
ATOM      2  N   UNL     1       1.229  11.744  18.843  0.00  0.00    +0.000 NA
ATOM      3  C   UNL     1       0.591  12.908  18.655  0.00  0.00    +0.000 A 
ATOM      4  C   UNL     1      -0.791  12.995  18.709  0.00  0.00    +0.000 A 
ATOM      5  C   UNL     1      -1.524  11.833  18.871  0.00  0.00    +0.000 A 
ATOM      6  N   UNL     1      -0.881  10.676  19.079  0.00  0.00    +0.000 NA
ENDROOT
BRANCH   5   7
ATOM      7  N   UNL     1      -2.906  11.807  18.880  0.00  0.00    +0.000 N 
ATOM      8  C   UNL     1      -3.644  12.676  19.818  0.00  0.00    +0.000 C 
ATOM      9  C   UNL     1      -5.005  12.035  20.124  0.00  0.00    +0.000 C 
ATOM     10  O   UNL     1      -5.770  11.843  18.926  0.00  0.00    +0.000 OA
ATOM     11  C   UNL     1      -5.063  10.980  18.018  0.00  0.00    +0.000 C 
ATOM     12  C   UNL     1      -3.680  11.563  17.624  0.00  0.00    +0.000 C 
ATOM     13  C   UNL     1      -3.043  10.647  16.583  0.00  0.00    +0.000 C 
ENDBRANCH   5   7
BRANCH   1  17
ATOM     14  C   UNL     1       2.518   6.939  19.570  0.00  0.00    +0.000 A 
ATOM     15  C   UNL     1       2.543   7.601  18.343  0.00  0.00    +0.000 A 
ATOM     16  C   UNL     1       1.868   8.812  18.173  0.00  0.00    +0.000 A 
ATOM     17  C   UNL     1       1.135   9.381  19.221  0.00  0.00    +0.000 A 
ATOM     18  C   UNL     1       1.084   8.682  20.441  0.00  0.00    +0.000 A 
ATOM     19  C   UNL     1       1.765   7.474  20.615  0.00  0.00    +0.000 A 
BRANCH  14  24
ATOM     20  C   UNL     1       3.429   2.158  19.379  0.00  0.00    +0.000 C 
ATOM     21  N   UNL     1       3.681   3.513  19.804  0.00  0.00    +0.000 N 
ATOM     22  C   UNL     1       2.872   4.506  19.295  0.00  0.00    +0.000 C 
ATOM     23  O   UNL     1       1.988   4.275  18.481  0.00  0.00    +0.000 OA
ATOM     24  N   UNL     1       3.214   5.735  19.807  0.00  0.00    +0.000 N 
ATOM     25  H   UNL     1       3.962   3.646  20.764  0.00  0.00    +0.000 HD
ATOM     26  H   UNL     1       4.159   5.810  20.159  0.00  0.00    +0.000 HD
ENDBRANCH  14  24
ENDBRANCH   1  17
BRANCH   3  27
ATOM     27  C   UNL     1       1.486  14.079  18.414  0.00  0.00    +0.000 C 
BRANCH  27  28
ATOM     28  S   UNL     1       2.060  14.810  19.926  0.00  0.00    +0.000 S 
ATOM     29  O   UNL     1       0.931  14.917  20.825  0.00  0.00    +0.000 OA
ATOM     30  O   UNL     1       3.185  13.971  20.335  0.00  0.00    +0.000 OA
BRANCH  28  31
ATOM     31  C   UNL     1       2.768  16.460  19.633  0.00  0.00    +0.000 C 
ATOM     32  C   UNL     1       3.616  16.689  18.379  0.00  0.00    +0.000 C 
ATOM     33  C   UNL     1       2.846  16.870  17.069  0.00  0.00    +0.000 C 
ATOM     34  C   UNL     1       1.660  17.821  17.186  0.00  0.00    +0.000 C 
ATOM     35  C   UNL     1       0.795  17.519  18.400  0.00  0.00    +0.000 C 
ATOM     36  C   UNL     1       1.631  17.501  19.680  0.00  0.00    +0.000 C 
ENDBRANCH  28  31
ENDBRANCH  27  28
ENDBRANCH   3  27
TORSDOF 6
ENDMDL
MODEL 4
REMARK VINA RESULT:      -8.8      3.598     10.238
REMARK  Name = 
REMARK  8 active torsions:
REMARK  status: ('A' for Active; 'I' for Inactive)
REMARK    1  A    between atoms: C_1  and  N_2
REMARK    2  A    between atoms: N_5  and  C_6
REMARK    3  A    between atoms: C_9  and  C_10
REMARK    4  A    between atoms: C_12  and  C_13
REMARK    5  A    between atoms: C_13  and  S_14
REMARK    6  A    between atoms: S_14  and  C_17
REMARK    7  A    between atoms: C_24  and  N_25
REMARK    8  A    between atoms: C_30  and  C_31
REMARK                            x       y       z     vdW  Elec       q    Type
REMARK                         _______ _______ _______ _____ _____    ______ ____
ROOT
ATOM      1  C   UNL     1       0.180  10.570  19.900  0.00  0.00    +0.000 A 
ATOM      2  N   UNL     1       0.759  11.553  20.603  0.00  0.00    +0.000 NA
ATOM      3  C   UNL     1       0.011  12.640  20.842  0.00  0.00    +0.000 A 
ATOM      4  C   UNL     1      -1.298  12.731  20.398  0.00  0.00    +0.000 A 
ATOM      5  C   UNL     1      -1.806  11.711  19.613  0.00  0.00    +0.000 A 
ATOM      6  N   UNL     1      -1.062  10.618  19.396  0.00  0.00    +0.000 NA
ENDROOT
BRANCH   5   7
ATOM      7  N   UNL     1      -3.079  11.735  19.075  0.00  0.00    +0.000 N 
ATOM      8  C   UNL     1      -4.132  12.535  19.731  0.00  0.00    +0.000 C 
ATOM      9  C   UNL     1      -5.500  11.919  19.409  0.00  0.00    +0.000 C 
ATOM     10  O   UNL     1      -5.728  11.872  17.994  0.00  0.00    +0.000 OA
ATOM     11  C   UNL     1      -4.716  11.075  17.354  0.00  0.00    +0.000 C 
ATOM     12  C   UNL     1      -3.293  11.642  17.598  0.00  0.00    +0.000 C 
ATOM     13  C   UNL     1      -2.292  10.808  16.803  0.00  0.00    +0.000 C 
ENDBRANCH   5   7
BRANCH   1  17
ATOM     14  C   UNL     1       2.497   7.094  18.922  0.00  0.00    +0.000 A 
ATOM     15  C   UNL     1       2.036   7.293  20.223  0.00  0.00    +0.000 A 
ATOM     16  C   UNL     1       1.287   8.428  20.547  0.00  0.00    +0.000 A 
ATOM     17  C   UNL     1       0.998   9.400  19.582  0.00  0.00    +0.000 A 
ATOM     18  C   UNL     1       1.506   9.208  18.285  0.00  0.00    +0.000 A 
ATOM     19  C   UNL     1       2.248   8.070  17.956  0.00  0.00    +0.000 A 
BRANCH  14  24
ATOM     20  C   UNL     1       3.262   2.406  17.848  0.00  0.00    +0.000 C 
ATOM     21  N   UNL     1       3.668   3.772  18.065  0.00  0.00    +0.000 N 
ATOM     22  C   UNL     1       2.684   4.701  18.324  0.00  0.00    +0.000 C 
ATOM     23  O   UNL     1       1.496   4.408  18.337  0.00  0.00    +0.000 OA
ATOM     24  N   UNL     1       3.222   5.949  18.532  0.00  0.00    +0.000 N 
ATOM     25  H   UNL     1       4.531   3.918  18.568  0.00  0.00    +0.000 HD
ATOM     26  H   UNL     1       4.140   6.096  18.135  0.00  0.00    +0.000 HD
ENDBRANCH  14  24
ENDBRANCH   1  17
BRANCH   3  27
ATOM     27  C   UNL     1       0.694  13.706  21.633  0.00  0.00    +0.000 C 
BRANCH  27  28
ATOM     28  S   UNL     1       1.931  14.558  20.688  0.00  0.00    +0.000 S 
ATOM     29  O   UNL     1       2.075  15.888  21.240  0.00  0.00    +0.000 OA
ATOM     30  O   UNL     1       3.093  13.673  20.721  0.00  0.00    +0.000 OA
BRANCH  28  31
ATOM     31  C   UNL     1       1.458  14.672  18.934  0.00  0.00    +0.000 C 
ATOM     32  C   UNL     1       0.781  15.950  18.432  0.00  0.00    +0.000 C 
ATOM     33  C   UNL     1       1.702  17.146  18.182  0.00  0.00    +0.000 C 
ATOM     34  C   UNL     1       2.973  16.787  17.419  0.00  0.00    +0.000 C 
ATOM     35  C   UNL     1       3.662  15.557  17.990  0.00  0.00    +0.000 C 
ATOM     36  C   UNL     1       2.697  14.373  18.068  0.00  0.00    +0.000 C 
ENDBRANCH  28  31
ENDBRANCH  27  28
ENDBRANCH   3  27
TORSDOF 6
ENDMDL
MODEL 5
REMARK VINA RESULT:      -8.8      3.412     10.561
REMARK  Name = 
REMARK  8 active torsions:
REMARK  status: ('A' for Active; 'I' for Inactive)
REMARK    1  A    between atoms: C_1  and  N_2
REMARK    2  A    between atoms: N_5  and  C_6
REMARK    3  A    between atoms: C_9  and  C_10
REMARK    4  A    between atoms: C_12  and  C_13
REMARK    5  A    between atoms: C_13  and  S_14
REMARK    6  A    between atoms: S_14  and  C_17
REMARK    7  A    between atoms: C_24  and  N_25
REMARK    8  A    between atoms: C_30  and  C_31
REMARK                            x       y       z     vdW  Elec       q    Type
REMARK                         _______ _______ _______ _____ _____    ______ ____
ROOT
ATOM      1  C   UNL     1       0.683  10.601  18.853  0.00  0.00    +0.000 A 
ATOM      2  N   UNL     1       1.430  11.713  18.813  0.00  0.00    +0.000 NA
ATOM      3  C   UNL     1       0.771  12.873  18.678  0.00  0.00    +0.000 A 
ATOM      4  C   UNL     1      -0.612  12.917  18.602  0.00  0.00    +0.000 A 
ATOM      5  C   UNL     1      -1.314  11.725  18.575  0.00  0.00    +0.000 A 
ATOM      6  N   UNL     1      -0.652  10.570  18.732  0.00  0.00    +0.000 NA
ENDROOT
BRANCH   5   7
ATOM      7  N   UNL     1      -2.689  11.662  18.443  0.00  0.00    +0.000 N 
ATOM      8  C   UNL     1      -3.544  12.444  19.357  0.00  0.00    +0.000 C 
ATOM      9  C   UNL     1      -4.906  11.748  19.482  0.00  0.00    +0.000 C 
ATOM     10  O   UNL     1      -5.542  11.618  18.203  0.00  0.00    +0.000 OA
ATOM     11  C   UNL     1      -4.721  10.838  17.317  0.00  0.00    +0.000 C 
ATOM     12  C   UNL     1      -3.327  11.483  17.103  0.00  0.00    +0.000 C 
ATOM     13  C   UNL     1      -2.559  10.658  16.073  0.00  0.00    +0.000 C 
ENDBRANCH   5   7
BRANCH   1  17
ATOM     14  C   UNL     1       2.673   6.806  19.065  0.00  0.00    +0.000 A 
ATOM     15  C   UNL     1       1.962   7.293  20.161  0.00  0.00    +0.000 A 
ATOM     16  C   UNL     1       1.318   8.532  20.099  0.00  0.00    +0.000 A 
ATOM     17  C   UNL     1       1.387   9.323  18.946  0.00  0.00    +0.000 A 
ATOM     18  C   UNL     1       2.143   8.838  17.863  0.00  0.00    +0.000 A 
ATOM     19  C   UNL     1       2.781   7.595  17.920  0.00  0.00    +0.000 A 
BRANCH  14  24
ATOM     20  C   UNL     1       3.156   2.017  18.321  0.00  0.00    +0.000 C 
ATOM     21  N   UNL     1       3.590   3.309  18.790  0.00  0.00    +0.000 N 
ATOM     22  C   UNL     1       2.776   4.392  18.535  0.00  0.00    +0.000 C 
ATOM     23  O   UNL     1       1.735   4.291  17.901  0.00  0.00    +0.000 OA
ATOM     24  N   UNL     1       3.307   5.546  19.061  0.00  0.00    +0.000 N 
ATOM     25  H   UNL     1       4.064   3.336  19.681  0.00  0.00    +0.000 HD
ATOM     26  H   UNL     1       4.305   5.531  19.220  0.00  0.00    +0.000 HD
ENDBRANCH  14  24
ENDBRANCH   1  17
BRANCH   3  27
ATOM     27  C   UNL     1       1.642  14.085  18.644  0.00  0.00    +0.000 C 
BRANCH  27  28
ATOM     28  S   UNL     1       1.936  14.749  20.263  0.00  0.00    +0.000 S 
ATOM     29  O   UNL     1       1.115  14.014  21.201  0.00  0.00    +0.000 OA
ATOM     30  O   UNL     1       3.387  14.687  20.428  0.00  0.00    +0.000 OA
BRANCH  28  31
ATOM     31  C   UNL     1       1.515  16.518  20.336  0.00  0.00    +0.000 C 
ATOM     32  C   UNL     1       2.018  17.444  19.226  0.00  0.00    +0.000 C 
ATOM     33  C   UNL     1       1.247  17.393  17.906  0.00  0.00    +0.000 C 
ATOM     34  C   UNL     1      -0.268  17.420  18.083  0.00  0.00    +0.000 C 
ATOM     35  C   UNL     1      -0.742  16.433  19.140  0.00  0.00    +0.000 C 
ATOM     36  C   UNL     1      -0.015  16.657  20.466  0.00  0.00    +0.000 C 
ENDBRANCH  28  31
ENDBRANCH  27  28
ENDBRANCH   3  27
TORSDOF 6
ENDMDL
MODEL 6
REMARK VINA RESULT:      -8.7      3.573     10.638
REMARK  Name = 
REMARK  8 active torsions:
REMARK  status: ('A' for Active; 'I' for Inactive)
REMARK    1  A    between atoms: C_1  and  N_2
REMARK    2  A    between atoms: N_5  and  C_6
REMARK    3  A    between atoms: C_9  and  C_10
REMARK    4  A    between atoms: C_12  and  C_13
REMARK    5  A    between atoms: C_13  and  S_14
REMARK    6  A    between atoms: S_14  and  C_17
REMARK    7  A    between atoms: C_24  and  N_25
REMARK    8  A    between atoms: C_30  and  C_31
REMARK                            x       y       z     vdW  Elec       q    Type
REMARK                         _______ _______ _______ _____ _____    ______ ____
ROOT
ATOM      1  C   UNL     1       0.544  10.668  18.916  0.00  0.00    +0.000 A 
ATOM      2  N   UNL     1       1.330  11.745  18.782  0.00  0.00    +0.000 NA
ATOM      3  C   UNL     1       0.719  12.897  18.470  0.00  0.00    +0.000 A 
ATOM      4  C   UNL     1      -0.656  12.970  18.311  0.00  0.00    +0.000 A 
ATOM      5  C   UNL     1      -1.396  11.803  18.390  0.00  0.00    +0.000 A 
ATOM      6  N   UNL     1      -0.782  10.659  18.724  0.00  0.00    +0.000 NA
ENDROOT
BRANCH   5   7
ATOM      7  N   UNL     1      -2.763  11.761  18.191  0.00  0.00    +0.000 N 
ATOM      8  C   UNL     1      -3.315  10.920  17.111  0.00  0.00    +0.000 C 
ATOM      9  C   UNL     1      -4.657  11.511  16.656  0.00  0.00    +0.000 C 
ATOM     10  O   UNL     1      -5.587  11.587  17.745  0.00  0.00    +0.000 OA
ATOM     11  C   UNL     1      -5.061  12.423  18.790  0.00  0.00    +0.000 C 
ATOM     12  C   UNL     1      -3.713  11.885  19.338  0.00  0.00    +0.000 C 
ATOM     13  C   UNL     1      -3.277  12.762  20.509  0.00  0.00    +0.000 C 
ENDBRANCH   5   7
BRANCH   1  17
ATOM     14  C   UNL     1       2.388   6.875  19.704  0.00  0.00    +0.000 A 
ATOM     15  C   UNL     1       1.687   7.542  20.708  0.00  0.00    +0.000 A 
ATOM     16  C   UNL     1       1.092   8.782  20.458  0.00  0.00    +0.000 A 
ATOM     17  C   UNL     1       1.199   9.392  19.202  0.00  0.00    +0.000 A 
ATOM     18  C   UNL     1       1.945   8.727  18.211  0.00  0.00    +0.000 A 
ATOM     19  C   UNL     1       2.534   7.484  18.457  0.00  0.00    +0.000 A 
BRANCH  14  24
ATOM     20  C   UNL     1       2.943   2.061  19.213  0.00  0.00    +0.000 C 
ATOM     21  N   UNL     1       3.269   3.358  19.752  0.00  0.00    +0.000 N 
ATOM     22  C   UNL     1       2.573   4.446  19.271  0.00  0.00    +0.000 C 
ATOM     23  O   UNL     1       1.730   4.345  18.390  0.00  0.00    +0.000 OA
ATOM     24  N   UNL     1       2.973   5.606  19.891  0.00  0.00    +0.000 N 
ATOM     25  H   UNL     1       3.496   3.402  20.734  0.00  0.00    +0.000 HD
ATOM     26  H   UNL     1       3.896   5.579  20.304  0.00  0.00    +0.000 HD
ENDBRANCH  14  24
ENDBRANCH   1  17
BRANCH   3  27
ATOM     27  C   UNL     1       1.631  14.072  18.337  0.00  0.00    +0.000 C 
BRANCH  27  28
ATOM     28  S   UNL     1       1.963  14.847  19.898  0.00  0.00    +0.000 S 
ATOM     29  O   UNL     1       0.725  14.888  20.646  0.00  0.00    +0.000 OA
ATOM     30  O   UNL     1       3.076  14.083  20.458  0.00  0.00    +0.000 OA
BRANCH  28  31
ATOM     31  C   UNL     1       2.599  16.537  19.673  0.00  0.00    +0.000 C 
ATOM     32  C   UNL     1       3.505  16.832  18.475  0.00  0.00    +0.000 C 
ATOM     33  C   UNL     1       2.803  16.998  17.126  0.00  0.00    +0.000 C 
ATOM     34  C   UNL     1       1.564  17.886  17.188  0.00  0.00    +0.000 C 
ATOM     35  C   UNL     1       0.648  17.517  18.345  0.00  0.00    +0.000 C 
ATOM     36  C   UNL     1       1.409  17.517  19.671  0.00  0.00    +0.000 C 
ENDBRANCH  28  31
ENDBRANCH  27  28
ENDBRANCH   3  27
TORSDOF 6
ENDMDL
MODEL 7
REMARK VINA RESULT:      -8.7      1.935      4.691
REMARK  Name = 
REMARK  8 active torsions:
REMARK  status: ('A' for Active; 'I' for Inactive)
REMARK    1  A    between atoms: C_1  and  N_2
REMARK    2  A    between atoms: N_5  and  C_6
REMARK    3  A    between atoms: C_9  and  C_10
REMARK    4  A    between atoms: C_12  and  C_13
REMARK    5  A    between atoms: C_13  and  S_14
REMARK    6  A    between atoms: S_14  and  C_17
REMARK    7  A    between atoms: C_24  and  N_25
REMARK    8  A    between atoms: C_30  and  C_31
REMARK                            x       y       z     vdW  Elec       q    Type
REMARK                         _______ _______ _______ _____ _____    ______ ____
ROOT
ATOM      1  C   UNL     1       2.374   7.887  18.665  0.00  0.00    +0.000 A 
ATOM      2  N   UNL     1       3.373   7.975  17.777  0.00  0.00    +0.000 NA
ATOM      3  C   UNL     1       4.029   6.838  17.499  0.00  0.00    +0.000 A 
ATOM      4  C   UNL     1       3.677   5.635  18.089  0.00  0.00    +0.000 A 
ATOM      5  C   UNL     1       2.685   5.633  19.053  0.00  0.00    +0.000 A 
ATOM      6  N   UNL     1       2.019   6.767  19.311  0.00  0.00    +0.000 NA
ENDROOT
BRANCH   5   7
ATOM      7  N   UNL     1       2.301   4.496  19.739  0.00  0.00    +0.000 N 
ATOM      8  C   UNL     1       1.954   4.593  21.171  0.00  0.00    +0.000 C 
ATOM      9  C   UNL     1       2.217   3.237  21.840  0.00  0.00    +0.000 C 
ATOM     10  O   UNL     1       1.455   2.194  21.218  0.00  0.00    +0.000 OA
ATOM     11  C   UNL     1       1.806   2.083  19.828  0.00  0.00    +0.000 C 
ATOM     12  C   UNL     1       1.543   3.403  19.057  0.00  0.00    +0.000 C 
ATOM     13  C   UNL     1       1.838   3.173  17.578  0.00  0.00    +0.000 C 
ENDBRANCH   5   7
BRANCH   1  17
ATOM     14  C   UNL     1       0.439  11.561  19.748  0.00  0.00    +0.000 A 
ATOM     15  C   UNL     1       0.276  10.418  20.531  0.00  0.00    +0.000 A 
ATOM     16  C   UNL     1       0.899   9.218  20.178  0.00  0.00    +0.000 A 
ATOM     17  C   UNL     1       1.684   9.126  19.022  0.00  0.00    +0.000 A 
ATOM     18  C   UNL     1       1.804  10.275  18.219  0.00  0.00    +0.000 A 
ATOM     19  C   UNL     1       1.189  11.479  18.574  0.00  0.00    +0.000 A 
BRANCH  14  24
ATOM     20  C   UNL     1      -0.135  15.742  22.179  0.00  0.00    +0.000 C 
ATOM     21  N   UNL     1      -0.496  14.750  21.196  0.00  0.00    +0.000 N 
ATOM     22  C   UNL     1       0.351  13.675  21.028  0.00  0.00    +0.000 C 
ATOM     23  O   UNL     1       1.398  13.565  21.652  0.00  0.00    +0.000 OA
ATOM     24  N   UNL     1      -0.133  12.806  20.080  0.00  0.00    +0.000 N 
ATOM     25  H   UNL     1      -1.477  14.534  21.104  0.00  0.00    +0.000 HD
ATOM     26  H   UNL     1      -0.785  13.206  19.417  0.00  0.00    +0.000 HD
ENDBRANCH  14  24
ENDBRANCH   1  17
BRANCH   3  27
ATOM     27  C   UNL     1       5.130   6.981  16.500  0.00  0.00    +0.000 C 
BRANCH  27  28
ATOM     28  S   UNL     1       6.681   6.381  17.118  0.00  0.00    +0.000 S 
ATOM     29  O   UNL     1       7.720   7.277  16.656  0.00  0.00    +0.000 OA
ATOM     30  O   UNL     1       6.478   6.254  18.560  0.00  0.00    +0.000 OA
BRANCH  28  31
ATOM     31  C   UNL     1       7.019   4.694  16.525  0.00  0.00    +0.000 C 
ATOM     32  C   UNL     1       5.855   3.707  16.404  0.00  0.00    +0.000 C 
ATOM     33  C   UNL     1       4.954   3.875  15.179  0.00  0.00    +0.000 C 
ATOM     34  C   UNL     1       5.725   4.073  13.878  0.00  0.00    +0.000 C 
ATOM     35  C   UNL     1       6.825   5.116  14.011  0.00  0.00    +0.000 C 
ATOM     36  C   UNL     1       7.759   4.783  15.176  0.00  0.00    +0.000 C 
ENDBRANCH  28  31
ENDBRANCH  27  28
ENDBRANCH   3  27
TORSDOF 6
ENDMDL
MODEL 8
REMARK VINA RESULT:      -8.7      3.433     10.690
REMARK  Name = 
REMARK  8 active torsions:
REMARK  status: ('A' for Active; 'I' for Inactive)
REMARK    1  A    between atoms: C_1  and  N_2
REMARK    2  A    between atoms: N_5  and  C_6
REMARK    3  A    between atoms: C_9  and  C_10
REMARK    4  A    between atoms: C_12  and  C_13
REMARK    5  A    between atoms: C_13  and  S_14
REMARK    6  A    between atoms: S_14  and  C_17
REMARK    7  A    between atoms: C_24  and  N_25
REMARK    8  A    between atoms: C_30  and  C_31
REMARK                            x       y       z     vdW  Elec       q    Type
REMARK                         _______ _______ _______ _____ _____    ______ ____
ROOT
ATOM      1  C   UNL     1       0.476  10.692  19.039  0.00  0.00    +0.000 A 
ATOM      2  N   UNL     1       1.236  11.784  18.887  0.00  0.00    +0.000 NA
ATOM      3  C   UNL     1       0.588  12.945  18.710  0.00  0.00    +0.000 A 
ATOM      4  C   UNL     1      -0.796  13.010  18.703  0.00  0.00    +0.000 A 
ATOM      5  C   UNL     1      -1.516  11.832  18.791  0.00  0.00    +0.000 A 
ATOM      6  N   UNL     1      -0.864  10.678  18.989  0.00  0.00    +0.000 NA
ENDROOT
BRANCH   5   7
ATOM      7  N   UNL     1      -2.897  11.785  18.736  0.00  0.00    +0.000 N 
ATOM      8  C   UNL     1      -3.690  12.643  19.638  0.00  0.00    +0.000 C 
ATOM      9  C   UNL     1      -5.054  11.983  19.881  0.00  0.00    +0.000 C 
ATOM     10  O   UNL     1      -5.759  11.779  18.648  0.00  0.00    +0.000 OA
ATOM     11  C   UNL     1      -4.998  10.927  17.775  0.00  0.00    +0.000 C 
ATOM     12  C   UNL     1      -3.608  11.530  17.446  0.00  0.00    +0.000 C 
ATOM     13  C   UNL     1      -2.909  10.623  16.436  0.00  0.00    +0.000 C 
ENDBRANCH   5   7
BRANCH   1  17
ATOM     14  C   UNL     1       2.572   6.977  19.501  0.00  0.00    +0.000 A 
ATOM     15  C   UNL     1       2.588   7.651  18.280  0.00  0.00    +0.000 A 
ATOM     16  C   UNL     1       1.900   8.857  18.123  0.00  0.00    +0.000 A 
ATOM     17  C   UNL     1       1.164   9.409  19.178  0.00  0.00    +0.000 A 
ATOM     18  C   UNL     1       1.122   8.697  20.391  0.00  0.00    +0.000 A 
ATOM     19  C   UNL     1       1.816   7.495  20.553  0.00  0.00    +0.000 A 
BRANCH  14  24
ATOM     20  C   UNL     1       3.470   2.192  19.370  0.00  0.00    +0.000 C 
ATOM     21  N   UNL     1       3.746   3.556  19.747  0.00  0.00    +0.000 N 
ATOM     22  C   UNL     1       2.908   4.538  19.264  0.00  0.00    +0.000 C 
ATOM     23  O   UNL     1       1.979   4.289  18.509  0.00  0.00    +0.000 OA
ATOM     24  N   UNL     1       3.281   5.778  19.724  0.00  0.00    +0.000 N 
ATOM     25  H   UNL     1       4.084   3.711  20.685  0.00  0.00    +0.000 HD
ATOM     26  H   UNL     1       4.245   5.860  20.019  0.00  0.00    +0.000 HD
ENDBRANCH  14  24
ENDBRANCH   1  17
BRANCH   3  27
ATOM     27  C   UNL     1       1.475  14.136  18.551  0.00  0.00    +0.000 C 
BRANCH  27  28
ATOM     28  S   UNL     1       1.923  14.855  20.110  0.00  0.00    +0.000 S 
ATOM     29  O   UNL     1       1.218  14.137  21.150  0.00  0.00    +0.000 OA
ATOM     30  O   UNL     1       3.385  14.819  20.124  0.00  0.00    +0.000 OA
BRANCH  28  31
ATOM     31  C   UNL     1       1.481  16.619  20.175  0.00  0.00    +0.000 C 
ATOM     32  C   UNL     1       1.379  17.404  18.865  0.00  0.00    +0.000 C 
ATOM     33  C   UNL     1       0.102  17.192  18.050  0.00  0.00    +0.000 C 
ATOM     34  C   UNL     1      -1.171  17.236  18.889  0.00  0.00    +0.000 C 
ATOM     35  C   UNL     1      -1.065  16.385  20.145  0.00  0.00    +0.000 C 
ATOM     36  C   UNL     1       0.167  16.769  20.967  0.00  0.00    +0.000 C 
ENDBRANCH  28  31
ENDBRANCH  27  28
ENDBRANCH   3  27
TORSDOF 6
ENDMDL
MODEL 9
REMARK VINA RESULT:      -8.7      3.753     10.166
REMARK  Name = 
REMARK  8 active torsions:
REMARK  status: ('A' for Active; 'I' for Inactive)
REMARK    1  A    between atoms: C_1  and  N_2
REMARK    2  A    between atoms: N_5  and  C_6
REMARK    3  A    between atoms: C_9  and  C_10
REMARK    4  A    between atoms: C_12  and  C_13
REMARK    5  A    between atoms: C_13  and  S_14
REMARK    6  A    between atoms: S_14  and  C_17
REMARK    7  A    between atoms: C_24  and  N_25
REMARK    8  A    between atoms: C_30  and  C_31
REMARK                            x       y       z     vdW  Elec       q    Type
REMARK                         _______ _______ _______ _____ _____    ______ ____
ROOT
ATOM      1  C   UNL     1       0.873  10.102  18.760  0.00  0.00    +0.000 A 
ATOM      2  N   UNL     1       1.405  11.207  19.298  0.00  0.00    +0.000 NA
ATOM      3  C   UNL     1       0.672  12.327  19.215  0.00  0.00    +0.000 A 
ATOM      4  C   UNL     1      -0.579  12.333  18.617  0.00  0.00    +0.000 A 
ATOM      5  C   UNL     1      -1.033  11.172  18.017  0.00  0.00    +0.000 A 
ATOM      6  N   UNL     1      -0.305  10.051  18.122  0.00  0.00    +0.000 NA
ENDROOT
BRANCH   5   7
ATOM      7  N   UNL     1      -2.239  11.091  17.347  0.00  0.00    +0.000 N 
ATOM      8  C   UNL     1      -2.347  10.245  16.142  0.00  0.00    +0.000 C 
ATOM      9  C   UNL     1      -3.459  10.800  15.241  0.00  0.00    +0.000 C 
ATOM     10  O   UNL     1      -4.716  10.836  15.931  0.00  0.00    +0.000 OA
ATOM     11  C   UNL     1      -4.620  11.677  17.095  0.00  0.00    +0.000 C 
ATOM     12  C   UNL     1      -3.537  11.174  18.084  0.00  0.00    +0.000 C 
ATOM     13  C   UNL     1      -3.571  12.051  19.333  0.00  0.00    +0.000 C 
ENDBRANCH   5   7
BRANCH   1  17
ATOM     14  C   UNL     1       3.314   6.577  18.918  0.00  0.00    +0.000 A 
ATOM     15  C   UNL     1       3.293   7.372  17.772  0.00  0.00    +0.000 A 
ATOM     16  C   UNL     1       2.493   8.517  17.713  0.00  0.00    +0.000 A 
ATOM     17  C   UNL     1       1.681   8.883  18.793  0.00  0.00    +0.000 A 
ATOM     18  C   UNL     1       1.681   8.050  19.926  0.00  0.00    +0.000 A 
ATOM     19  C   UNL     1       2.486   6.909  19.990  0.00  0.00    +0.000 A 
BRANCH  14  24
ATOM     20  C   UNL     1       4.414   1.896  19.689  0.00  0.00    +0.000 C 
ATOM     21  N   UNL     1       4.729   3.280  19.440  0.00  0.00    +0.000 N 
ATOM     22  C   UNL     1       3.680   4.153  19.245  0.00  0.00    +0.000 C 
ATOM     23  O   UNL     1       2.515   3.781  19.239  0.00  0.00    +0.000 OA
ATOM     24  N   UNL     1       4.132   5.435  19.044  0.00  0.00    +0.000 N 
ATOM     25  H   UNL     1       5.514   3.668  19.943  0.00  0.00    +0.000 HD
ATOM     26  H   UNL     1       5.086   5.513  18.718  0.00  0.00    +0.000 HD
ENDBRANCH  14  24
ENDBRANCH   1  17
BRANCH   3  27
ATOM     27  C   UNL     1       1.301  13.533  19.832  0.00  0.00    +0.000 C 
BRANCH  27  28
ATOM     28  S   UNL     1       0.710  13.831  21.479  0.00  0.00    +0.000 S 
ATOM     29  O   UNL     1       0.178  12.587  21.992  0.00  0.00    +0.000 OA
ATOM     30  O   UNL     1       1.849  14.429  22.174  0.00  0.00    +0.000 OA
BRANCH  28  31
ATOM     31  C   UNL     1      -0.589  15.105  21.492  0.00  0.00    +0.000 C 
ATOM     32  C   UNL     1      -2.045  14.678  21.290  0.00  0.00    +0.000 C 
ATOM     33  C   UNL     1      -2.741  14.063  22.506  0.00  0.00    +0.000 C 
ATOM     34  C   UNL     1      -2.506  14.837  23.799  0.00  0.00    +0.000 C 
ATOM     35  C   UNL     1      -1.038  15.179  24.008  0.00  0.00    +0.000 C 
ATOM     36  C   UNL     1      -0.469  15.919  22.796  0.00  0.00    +0.000 C 
ENDBRANCH  28  31
ENDBRANCH  27  28
ENDBRANCH   3  27
TORSDOF 6
ENDMDL
