MODEL 1
REMARK VINA RESULT:      -7.4      0.000      0.000
REMARK  Name = 
REMARK  7 active torsions:
REMARK  status: ('A' for Active; 'I' for Inactive)
REMARK    1  A    between atoms: C_1  and  C_2
REMARK    2  A    between atoms: C_2  and  O_4
REMARK    3  A    between atoms: O_4  and  C_5
REMARK    4  A    between atoms: C_8  and  C_9
REMARK    5  A    between atoms: C_17  and  C_18
REMARK    6  A    between atoms: C_22  and  C_23
REMARK    7  A    between atoms: C_25  and  C_26
REMARK                            x       y       z     vdW  Elec       q    Type
REMARK                         _______ _______ _______ _____ _____    ______ ____
ROOT
ATOM      1  C   UNL     1      -0.286  12.226  21.532  0.00  0.00    +0.000 C 
ATOM      2  C   UNL     1      -0.594  10.907  22.244  0.00  0.00    +0.000 C 
ATOM      3  C   UNL     1       0.368   9.792  21.839  0.00  0.00    +0.000 C 
ATOM      4  C   UNL     1       0.455   9.554  20.305  0.00  0.00    +0.000 C 
ATOM      5  C   UNL     1      -0.916   9.076  19.771  0.00  0.00    +0.000 C 
ATOM      6  C   UNL     1       0.795  10.884  19.621  0.00  0.00    +0.000 C 
ATOM      7  C   UNL     1       1.727  10.991  18.655  0.00  0.00    +0.000 C 
ATOM      8  C   UNL     1       2.501   9.845  18.078  0.00  0.00    +0.000 C 
ATOM      9  C   UNL     1       1.981   8.469  18.512  0.00  0.00    +0.000 C 
ATOM     10  C   UNL     1       3.039   7.387  18.286  0.00  0.00    +0.000 C 
ATOM     11  C   UNL     1       3.679   7.207  16.908  0.00  0.00    +0.000 C 
ATOM     12  C   UNL     1       4.314   5.856  17.109  0.00  0.00    +0.000 C 
ATOM     13  C   UNL     1       3.728   5.197  18.125  0.00  0.00    +0.000 C 
ATOM     14  C   UNL     1       2.552   5.973  18.680  0.00  0.00    +0.000 C 
ATOM     15  C   UNL     1       1.273   5.509  17.939  0.00  0.00    +0.000 C 
ATOM     16  C   UNL     1       2.314   6.001  20.197  0.00  0.00    +0.000 C 
ATOM     17  C   UNL     1       1.270   7.065  20.575  0.00  0.00    +0.000 C 
ATOM     18  C   UNL     1       1.583   8.484  20.020  0.00  0.00    +0.000 C 
ATOM     19  C   UNL     1      -0.010  12.101  20.026  0.00  0.00    +0.000 C 
ENDROOT
BRANCH  13  20
ATOM     20  C   UNL     1       4.118   3.973  18.730  0.00  0.00    +0.000 A 
ATOM     21  N   UNL     1       5.211   3.874  19.497  0.00  0.00    +0.000 NA
ATOM     22  N   UNL     1       5.224   2.595  19.896  0.00  0.00    +0.000 N 
ATOM     23  C   UNL     1       4.179   1.870  19.416  0.00  0.00    +0.000 A 
ATOM     24  C   UNL     1       3.437   2.731  18.633  0.00  0.00    +0.000 A 
ATOM     25  H   UNL     1       5.980   2.289  20.501  0.00  0.00    +0.000 HD
BRANCH  24  26
ATOM     26  C   UNL     1       2.233   2.396  17.905  0.00  0.00    +0.000 C 
ATOM     27  O   UNL     1       1.178   2.080  18.445  0.00  0.00    +0.000 OA
ENDBRANCH  24  26
ENDBRANCH  13  20
BRANCH   1  28
ATOM     28  O   UNL     1      -1.294  13.235  21.817  0.00  0.00    +0.000 OA
BRANCH  28  30
ATOM     29  C   UNL     1      -2.590  13.676  23.728  0.00  0.00    +0.000 C 
ATOM     30  C   UNL     1      -1.284  13.870  23.023  0.00  0.00    +0.000 C 
ATOM     31  O   UNL     1      -0.358  14.527  23.483  0.00  0.00    +0.000 OA
ENDBRANCH  28  30
ENDBRANCH   1  28
TORSDOF 4
ENDMDL
MODEL 2
REMARK VINA RESULT:      -7.3      3.674      9.156
REMARK  Name = 
REMARK  7 active torsions:
REMARK  status: ('A' for Active; 'I' for Inactive)
REMARK    1  A    between atoms: C_1  and  C_2
REMARK    2  A    between atoms: C_2  and  O_4
REMARK    3  A    between atoms: O_4  and  C_5
REMARK    4  A    between atoms: C_8  and  C_9
REMARK    5  A    between atoms: C_17  and  C_18
REMARK    6  A    between atoms: C_22  and  C_23
REMARK    7  A    between atoms: C_25  and  C_26
REMARK                            x       y       z     vdW  Elec       q    Type
REMARK                         _______ _______ _______ _____ _____    ______ ____
ROOT
ATOM      1  C   UNL     1       4.189   4.959  18.566  0.00  0.00    +0.000 C 
ATOM      2  C   UNL     1       4.227   5.975  17.423  0.00  0.00    +0.000 C 
ATOM      3  C   UNL     1       3.765   7.363  17.865  0.00  0.00    +0.000 C 
ATOM      4  C   UNL     1       2.364   7.381  18.539  0.00  0.00    +0.000 C 
ATOM      5  C   UNL     1       1.288   6.937  17.521  0.00  0.00    +0.000 C 
ATOM      6  C   UNL     1       2.366   6.378  19.699  0.00  0.00    +0.000 C 
ATOM      7  C   UNL     1       1.855   6.665  20.912  0.00  0.00    +0.000 C 
ATOM      8  C   UNL     1       1.173   7.947  21.275  0.00  0.00    +0.000 C 
ATOM      9  C   UNL     1       0.879   8.853  20.072  0.00  0.00    +0.000 C 
ATOM     10  C   UNL     1       0.617  10.292  20.520  0.00  0.00    +0.000 C 
ATOM     11  C   UNL     1      -0.451  10.592  21.573  0.00  0.00    +0.000 C 
ATOM     12  C   UNL     1      -0.574  12.080  21.379  0.00  0.00    +0.000 C 
ATOM     13  C   UNL     1      -0.115  12.446  20.168  0.00  0.00    +0.000 C 
ATOM     14  C   UNL     1       0.285  11.240  19.343  0.00  0.00    +0.000 C 
ATOM     15  C   UNL     1      -0.939  10.805  18.499  0.00  0.00    +0.000 C 
ATOM     16  C   UNL     1       1.545  11.308  18.469  0.00  0.00    +0.000 C 
ATOM     17  C   UNL     1       1.939   9.913  17.954  0.00  0.00    +0.000 C 
ATOM     18  C   UNL     1       2.076   8.841  19.073  0.00  0.00    +0.000 C 
ATOM     19  C   UNL     1       2.915   4.994  19.423  0.00  0.00    +0.000 C 
ENDROOT
BRANCH  13  20
ATOM     20  C   UNL     1       0.085  13.753  19.653  0.00  0.00    +0.000 A 
ATOM     21  N   UNL     1      -0.762  14.312  18.779  0.00  0.00    +0.000 NA
ATOM     22  N   UNL     1      -0.256  15.533  18.558  0.00  0.00    +0.000 N 
ATOM     23  C   UNL     1       0.883  15.780  19.259  0.00  0.00    +0.000 A 
ATOM     24  C   UNL     1       1.151  14.633  19.978  0.00  0.00    +0.000 A 
ATOM     25  H   UNL     1      -0.747  16.146  17.915  0.00  0.00    +0.000 HD
BRANCH  24  26
ATOM     26  C   UNL     1       2.276  14.427  20.863  0.00  0.00    +0.000 C 
ATOM     27  O   UNL     1       2.177  14.357  22.083  0.00  0.00    +0.000 OA
ENDBRANCH  24  26
ENDBRANCH  13  20
BRANCH   1  28
ATOM     28  O   UNL     1       4.492   3.617  18.099  0.00  0.00    +0.000 OA
BRANCH  28  30
ATOM     29  C   UNL     1       3.337   1.593  18.411  0.00  0.00    +0.000 C 
ATOM     30  C   UNL     1       4.343   2.561  18.949  0.00  0.00    +0.000 C 
ATOM     31  O   UNL     1       4.925   2.409  20.016  0.00  0.00    +0.000 OA
ENDBRANCH  28  30
ENDBRANCH   1  28
TORSDOF 4
ENDMDL
MODEL 3
REMARK VINA RESULT:      -7.2      3.823      9.265
REMARK  Name = 
REMARK  7 active torsions:
REMARK  status: ('A' for Active; 'I' for Inactive)
REMARK    1  A    between atoms: C_1  and  C_2
REMARK    2  A    between atoms: C_2  and  O_4
REMARK    3  A    between atoms: O_4  and  C_5
REMARK    4  A    between atoms: C_8  and  C_9
REMARK    5  A    between atoms: C_17  and  C_18
REMARK    6  A    between atoms: C_22  and  C_23
REMARK    7  A    between atoms: C_25  and  C_26
REMARK                            x       y       z     vdW  Elec       q    Type
REMARK                         _______ _______ _______ _____ _____    ______ ____
ROOT
ATOM      1  C   UNL     1       4.836   5.344  17.736  0.00  0.00    +0.000 C 
ATOM      2  C   UNL     1       4.560   6.485  16.754  0.00  0.00    +0.000 C 
ATOM      3  C   UNL     1       3.921   7.693  17.436  0.00  0.00    +0.000 C 
ATOM      4  C   UNL     1       2.628   7.362  18.234  0.00  0.00    +0.000 C 
ATOM      5  C   UNL     1       1.532   6.855  17.267  0.00  0.00    +0.000 C 
ATOM      6  C   UNL     1       2.941   6.239  19.230  0.00  0.00    +0.000 C 
ATOM      7  C   UNL     1       2.536   6.268  20.513  0.00  0.00    +0.000 C 
ATOM      8  C   UNL     1       1.689   7.343  21.122  0.00  0.00    +0.000 C 
ATOM      9  C   UNL     1       1.102   8.321  20.097  0.00  0.00    +0.000 C 
ATOM     10  C   UNL     1       0.649   9.617  20.773  0.00  0.00    +0.000 C 
ATOM     11  C   UNL     1      -0.322   9.574  21.954  0.00  0.00    +0.000 C 
ATOM     12  C   UNL     1      -0.723  11.025  21.992  0.00  0.00    +0.000 C 
ATOM     13  C   UNL     1      -0.483  11.621  20.810  0.00  0.00    +0.000 C 
ATOM     14  C   UNL     1       0.021  10.626  19.784  0.00  0.00    +0.000 C 
ATOM     15  C   UNL     1      -1.200  10.079  19.004  0.00  0.00    +0.000 C 
ATOM     16  C   UNL     1       1.137  11.041  18.815  0.00  0.00    +0.000 C 
ATOM     17  C   UNL     1       1.703   9.821  18.067  0.00  0.00    +0.000 C 
ATOM     18  C   UNL     1       2.156   8.662  18.999  0.00  0.00    +0.000 C 
ATOM     19  C   UNL     1       3.685   5.029  18.704  0.00  0.00    +0.000 C 
ENDROOT
BRANCH  13  20
ATOM     20  C   UNL     1      -0.575  12.997  20.475  0.00  0.00    +0.000 A 
ATOM     21  N   UNL     1      -1.659  13.515  19.884  0.00  0.00    +0.000 NA
ATOM     22  N   UNL     1      -1.380  14.820  19.759  0.00  0.00    +0.000 N 
ATOM     23  C   UNL     1      -0.158  15.159  20.250  0.00  0.00    +0.000 A 
ATOM     24  C   UNL     1       0.410  13.991  20.716  0.00  0.00    +0.000 A 
ATOM     25  H   UNL     1      -2.077  15.420  19.329  0.00  0.00    +0.000 HD
BRANCH  24  26
ATOM     26  C   UNL     1       1.719  13.862  21.316  0.00  0.00    +0.000 C 
ATOM     27  O   UNL     1       2.138  14.606  22.197  0.00  0.00    +0.000 OA
ENDBRANCH  24  26
ENDBRANCH  13  20
BRANCH   1  28
ATOM     28  O   UNL     1       5.310   4.152  17.051  0.00  0.00    +0.000 OA
BRANCH  28  30
ATOM     29  C   UNL     1       6.107   3.878  14.856  0.00  0.00    +0.000 C 
ATOM     30  C   UNL     1       6.429   4.225  16.276  0.00  0.00    +0.000 C 
ATOM     31  O   UNL     1       7.554   4.514  16.662  0.00  0.00    +0.000 OA
ENDBRANCH  28  30
ENDBRANCH   1  28
TORSDOF 4
ENDMDL
MODEL 4
REMARK VINA RESULT:      -7.1      0.887      1.024
REMARK  Name = 
REMARK  7 active torsions:
REMARK  status: ('A' for Active; 'I' for Inactive)
REMARK    1  A    between atoms: C_1  and  C_2
REMARK    2  A    between atoms: C_2  and  O_4
REMARK    3  A    between atoms: O_4  and  C_5
REMARK    4  A    between atoms: C_8  and  C_9
REMARK    5  A    between atoms: C_17  and  C_18
REMARK    6  A    between atoms: C_22  and  C_23
REMARK    7  A    between atoms: C_25  and  C_26
REMARK                            x       y       z     vdW  Elec       q    Type
REMARK                         _______ _______ _______ _____ _____    ______ ____
ROOT
ATOM      1  C   UNL     1      -0.451  11.916  22.192  0.00  0.00    +0.000 C 
ATOM      2  C   UNL     1      -0.694  10.539  22.815  0.00  0.00    +0.000 C 
ATOM      3  C   UNL     1       0.291   9.490  22.302  0.00  0.00    +0.000 C 
ATOM      4  C   UNL     1       0.337   9.365  20.753  0.00  0.00    +0.000 C 
ATOM      5  C   UNL     1      -1.034   8.880  20.225  0.00  0.00    +0.000 C 
ATOM      6  C   UNL     1       0.613  10.752  20.159  0.00  0.00    +0.000 C 
ATOM      7  C   UNL     1       1.510  10.959  19.176  0.00  0.00    +0.000 C 
ATOM      8  C   UNL     1       2.302   9.885  18.496  0.00  0.00    +0.000 C 
ATOM      9  C   UNL     1       1.840   8.464  18.843  0.00  0.00    +0.000 C 
ATOM     10  C   UNL     1       2.925   7.438  18.509  0.00  0.00    +0.000 C 
ATOM     11  C   UNL     1       3.527   7.379  17.104  0.00  0.00    +0.000 C 
ATOM     12  C   UNL     1       4.211   6.040  17.188  0.00  0.00    +0.000 C 
ATOM     13  C   UNL     1       3.678   5.290  18.169  0.00  0.00    +0.000 C 
ATOM     14  C   UNL     1       2.496   5.984  18.813  0.00  0.00    +0.000 C 
ATOM     15  C   UNL     1       1.210   5.531  18.077  0.00  0.00    +0.000 C 
ATOM     16  C   UNL     1       2.304   5.894  20.334  0.00  0.00    +0.000 C 
ATOM     17  C   UNL     1       1.239   6.893  20.818  0.00  0.00    +0.000 C 
ATOM     18  C   UNL     1       1.489   8.357  20.359  0.00  0.00    +0.000 C 
ATOM     19  C   UNL     1      -0.217  11.909  20.674  0.00  0.00    +0.000 C 
ENDROOT
BRANCH  13  20
ATOM     20  C   UNL     1       4.125   4.040  18.672  0.00  0.00    +0.000 A 
ATOM     21  N   UNL     1       5.272   3.915  19.353  0.00  0.00    +0.000 NA
ATOM     22  N   UNL     1       5.329   2.616  19.675  0.00  0.00    +0.000 N 
ATOM     23  C   UNL     1       4.261   1.902  19.228  0.00  0.00    +0.000 A 
ATOM     24  C   UNL     1       3.454   2.794  18.552  0.00  0.00    +0.000 A 
ATOM     25  H   UNL     1       6.130   2.288  20.205  0.00  0.00    +0.000 HD
BRANCH  24  26
ATOM     26  C   UNL     1       2.206   2.481  17.892  0.00  0.00    +0.000 C 
ATOM     27  O   UNL     1       1.212   2.068  18.480  0.00  0.00    +0.000 OA
ENDBRANCH  24  26
ENDBRANCH  13  20
BRANCH   1  28
ATOM     28  O   UNL     1      -1.480  12.867  22.578  0.00  0.00    +0.000 OA
BRANCH  28  30
ATOM     29  C   UNL     1      -3.525  12.703  21.430  0.00  0.00    +0.000 C 
ATOM     30  C   UNL     1      -2.771  12.446  22.697  0.00  0.00    +0.000 C 
ATOM     31  O   UNL     1      -3.275  11.940  23.692  0.00  0.00    +0.000 OA
ENDBRANCH  28  30
ENDBRANCH   1  28
TORSDOF 4
ENDMDL
MODEL 5
REMARK VINA RESULT:      -7.0      3.597      9.145
REMARK  Name = 
REMARK  7 active torsions:
REMARK  status: ('A' for Active; 'I' for Inactive)
REMARK    1  A    between atoms: C_1  and  C_2
REMARK    2  A    between atoms: C_2  and  O_4
REMARK    3  A    between atoms: O_4  and  C_5
REMARK    4  A    between atoms: C_8  and  C_9
REMARK    5  A    between atoms: C_17  and  C_18
REMARK    6  A    between atoms: C_22  and  C_23
REMARK    7  A    between atoms: C_25  and  C_26
REMARK                            x       y       z     vdW  Elec       q    Type
REMARK                         _______ _______ _______ _____ _____    ______ ____
ROOT
ATOM      1  C   UNL     1       4.708   5.218  17.575  0.00  0.00    +0.000 C 
ATOM      2  C   UNL     1       4.506   6.507  16.775  0.00  0.00    +0.000 C 
ATOM      3  C   UNL     1       3.909   7.628  17.623  0.00  0.00    +0.000 C 
ATOM      4  C   UNL     1       2.586   7.244  18.343  0.00  0.00    +0.000 C 
ATOM      5  C   UNL     1       1.488   6.944  17.296  0.00  0.00    +0.000 C 
ATOM      6  C   UNL     1       2.826   5.970  19.161  0.00  0.00    +0.000 C 
ATOM      7  C   UNL     1       2.395   5.824  20.429  0.00  0.00    +0.000 C 
ATOM      8  C   UNL     1       1.587   6.835  21.182  0.00  0.00    +0.000 C 
ATOM      9  C   UNL     1       1.068   7.985  20.309  0.00  0.00    +0.000 C 
ATOM     10  C   UNL     1       0.661   9.184  21.168  0.00  0.00    +0.000 C 
ATOM     11  C   UNL     1      -0.336   9.011  22.316  0.00  0.00    +0.000 C 
ATOM     12  C   UNL     1      -0.670  10.458  22.568  0.00  0.00    +0.000 C 
ATOM     13  C   UNL     1      -0.377  11.213  21.494  0.00  0.00    +0.000 C 
ATOM     14  C   UNL     1       0.101  10.361  20.336  0.00  0.00    +0.000 C 
ATOM     15  C   UNL     1      -1.128   9.998  19.464  0.00  0.00    +0.000 C 
ATOM     16  C   UNL     1       1.255  10.862  19.456  0.00  0.00    +0.000 C 
ATOM     17  C   UNL     1       1.779   9.743  18.540  0.00  0.00    +0.000 C 
ATOM     18  C   UNL     1       2.159   8.435  19.291  0.00  0.00    +0.000 C 
ATOM     19  C   UNL     1       3.523   4.818  18.468  0.00  0.00    +0.000 C 
ENDROOT
BRANCH  13  20
ATOM     20  C   UNL     1      -0.399  12.627  21.371  0.00  0.00    +0.000 A 
ATOM     21  N   UNL     1       0.665  13.384  21.669  0.00  0.00    +0.000 NA
ATOM     22  N   UNL     1       0.268  14.636  21.403  0.00  0.00    +0.000 N 
ATOM     23  C   UNL     1      -1.010  14.711  20.944  0.00  0.00    +0.000 A 
ATOM     24  C   UNL     1      -1.489  13.417  20.922  0.00  0.00    +0.000 A 
ATOM     25  H   UNL     1       0.929  15.391  21.559  0.00  0.00    +0.000 HD
BRANCH  24  26
ATOM     26  C   UNL     1      -2.815  13.008  20.513  0.00  0.00    +0.000 C 
ATOM     27  O   UNL     1      -3.675  12.615  21.294  0.00  0.00    +0.000 OA
ENDBRANCH  24  26
ENDBRANCH  13  20
BRANCH   1  28
ATOM     28  O   UNL     1       5.140   4.122  16.724  0.00  0.00    +0.000 OA
BRANCH  28  30
ATOM     29  C   UNL     1       6.110   3.943  14.590  0.00  0.00    +0.000 C 
ATOM     30  C   UNL     1       6.318   4.225  16.045  0.00  0.00    +0.000 C 
ATOM     31  O   UNL     1       7.409   4.493  16.532  0.00  0.00    +0.000 OA
ENDBRANCH  28  30
ENDBRANCH   1  28
TORSDOF 4
ENDMDL
MODEL 6
REMARK VINA RESULT:      -6.9      5.525     10.275
REMARK  Name = 
REMARK  7 active torsions:
REMARK  status: ('A' for Active; 'I' for Inactive)
REMARK    1  A    between atoms: C_1  and  C_2
REMARK    2  A    between atoms: C_2  and  O_4
REMARK    3  A    between atoms: O_4  and  C_5
REMARK    4  A    between atoms: C_8  and  C_9
REMARK    5  A    between atoms: C_17  and  C_18
REMARK    6  A    between atoms: C_22  and  C_23
REMARK    7  A    between atoms: C_25  and  C_26
REMARK                            x       y       z     vdW  Elec       q    Type
REMARK                         _______ _______ _______ _____ _____    ______ ____
ROOT
ATOM      1  C   UNL     1       1.267   8.839  18.878  0.00  0.00    +0.000 C 
ATOM      2  C   UNL     1       1.339   9.404  20.298  0.00  0.00    +0.000 C 
ATOM      3  C   UNL     1      -0.006   9.949  20.773  0.00  0.00    +0.000 C 
ATOM      4  C   UNL     1      -0.639  11.002  19.820  0.00  0.00    +0.000 C 
ATOM      5  C   UNL     1       0.267  12.254  19.749  0.00  0.00    +0.000 C 
ATOM      6  C   UNL     1      -0.727  10.398  18.413  0.00  0.00    +0.000 C 
ATOM      7  C   UNL     1      -1.827  10.501  17.643  0.00  0.00    +0.000 C 
ATOM      8  C   UNL     1      -3.067  11.254  18.013  0.00  0.00    +0.000 C 
ATOM      9  C   UNL     1      -2.910  12.122  19.269  0.00  0.00    +0.000 C 
ATOM     10  C   UNL     1      -4.275  12.492  19.852  0.00  0.00    +0.000 C 
ATOM     11  C   UNL     1      -5.334  13.164  18.976  0.00  0.00    +0.000 C 
ATOM     12  C   UNL     1      -6.275  13.639  20.053  0.00  0.00    +0.000 C 
ATOM     13  C   UNL     1      -5.647  13.713  21.240  0.00  0.00    +0.000 C 
ATOM     14  C   UNL     1      -4.172  13.394  21.105  0.00  0.00    +0.000 C 
ATOM     15  C   UNL     1      -3.409  14.722  20.874  0.00  0.00    +0.000 C 
ATOM     16  C   UNL     1      -3.478  12.557  22.189  0.00  0.00    +0.000 C 
ATOM     17  C   UNL     1      -2.084  12.098  21.728  0.00  0.00    +0.000 C 
ATOM     18  C   UNL     1      -2.080  11.370  20.354  0.00  0.00    +0.000 C 
ATOM     19  C   UNL     1       0.511   9.716  17.869  0.00  0.00    +0.000 C 
ENDROOT
BRANCH  13  20
ATOM     20  C   UNL     1      -6.200  13.969  22.522  0.00  0.00    +0.000 A 
ATOM     21  N   UNL     1      -5.931  15.090  23.204  0.00  0.00    +0.000 NA
ATOM     22  N   UNL     1      -6.647  14.975  24.331  0.00  0.00    +0.000 N 
ATOM     23  C   UNL     1      -7.367  13.823  24.398  0.00  0.00    +0.000 A 
ATOM     24  C   UNL     1      -7.091  13.127  23.238  0.00  0.00    +0.000 A 
ATOM     25  H   UNL     1      -6.595  15.727  25.011  0.00  0.00    +0.000 HD
BRANCH  24  26
ATOM     26  C   UNL     1      -7.625  11.833  22.876  0.00  0.00    +0.000 C 
ATOM     27  O   UNL     1      -7.879  10.951  23.690  0.00  0.00    +0.000 OA
ENDBRANCH  24  26
ENDBRANCH  13  20
BRANCH   1  28
ATOM     28  O   UNL     1       2.581   8.458  18.387  0.00  0.00    +0.000 OA
BRANCH  28  30
ATOM     29  C   UNL     1       4.080   7.000  17.312  0.00  0.00    +0.000 C 
ATOM     30  C   UNL     1       2.857   7.142  18.162  0.00  0.00    +0.000 C 
ATOM     31  O   UNL     1       2.204   6.190  18.572  0.00  0.00    +0.000 OA
ENDBRANCH  28  30
ENDBRANCH   1  28
TORSDOF 4
ENDMDL
MODEL 7
REMARK VINA RESULT:      -6.4      4.044      9.391
REMARK  Name = 
REMARK  7 active torsions:
REMARK  status: ('A' for Active; 'I' for Inactive)
REMARK    1  A    between atoms: C_1  and  C_2
REMARK    2  A    between atoms: C_2  and  O_4
REMARK    3  A    between atoms: O_4  and  C_5
REMARK    4  A    between atoms: C_8  and  C_9
REMARK    5  A    between atoms: C_17  and  C_18
REMARK    6  A    between atoms: C_22  and  C_23
REMARK    7  A    between atoms: C_25  and  C_26
REMARK                            x       y       z     vdW  Elec       q    Type
REMARK                         _______ _______ _______ _____ _____    ______ ____
ROOT
ATOM      1  C   UNL     1       3.517   5.724  18.826  0.00  0.00    +0.000 C 
ATOM      2  C   UNL     1       3.709   6.716  17.677  0.00  0.00    +0.000 C 
ATOM      3  C   UNL     1       3.412   8.154  18.097  0.00  0.00    +0.000 C 
ATOM      4  C   UNL     1       2.007   8.352  18.733  0.00  0.00    +0.000 C 
ATOM      5  C   UNL     1       0.910   8.034  17.690  0.00  0.00    +0.000 C 
ATOM      6  C   UNL     1       1.855   7.369  19.900  0.00  0.00    +0.000 C 
ATOM      7  C   UNL     1       1.352   7.729  21.097  0.00  0.00    +0.000 C 
ATOM      8  C   UNL     1       0.825   9.090  21.433  0.00  0.00    +0.000 C 
ATOM      9  C   UNL     1       0.677  10.012  20.215  0.00  0.00    +0.000 C 
ATOM     10  C   UNL     1       0.583  11.477  20.646  0.00  0.00    +0.000 C 
ATOM     11  C   UNL     1      -0.466  11.917  21.668  0.00  0.00    +0.000 C 
ATOM     12  C   UNL     1      -0.398  13.407  21.461  0.00  0.00    +0.000 C 
ATOM     13  C   UNL     1       0.133  13.701  20.260  0.00  0.00    +0.000 C 
ATOM     14  C   UNL     1       0.402  12.446  19.455  0.00  0.00    +0.000 C 
ATOM     15  C   UNL     1      -0.844  12.157  18.581  0.00  0.00    +0.000 C 
ATOM     16  C   UNL     1       1.683  12.349  18.614  0.00  0.00    +0.000 C 
ATOM     17  C   UNL     1       1.913  10.911  18.120  0.00  0.00    +0.000 C 
ATOM     18  C   UNL     1       1.888   9.842  19.249  0.00  0.00    +0.000 C 
ATOM     19  C   UNL     1       2.235   5.925  19.649  0.00  0.00    +0.000 C 
ENDROOT
BRANCH  13  20
ATOM     20  C   UNL     1       0.506  14.968  19.741  0.00  0.00    +0.000 A 
ATOM     21  N   UNL     1      -0.182  15.569  18.762  0.00  0.00    +0.000 NA
ATOM     22  N   UNL     1       0.453  16.733  18.572  0.00  0.00    +0.000 N 
ATOM     23  C   UNL     1       1.522  16.904  19.395  0.00  0.00    +0.000 A 
ATOM     24  C   UNL     1       1.603  15.763  20.168  0.00  0.00    +0.000 A 
ATOM     25  H   UNL     1       0.095  17.364  17.862  0.00  0.00    +0.000 HD
BRANCH  24  26
ATOM     26  C   UNL     1       2.598  15.491  21.181  0.00  0.00    +0.000 C 
ATOM     27  O   UNL     1       2.337  15.375  22.375  0.00  0.00    +0.000 OA
ENDBRANCH  24  26
ENDBRANCH  13  20
BRANCH   1  28
ATOM     28  O   UNL     1       3.663   4.349  18.377  0.00  0.00    +0.000 OA
BRANCH  28  30
ATOM     29  C   UNL     1       4.001   2.196  19.257  0.00  0.00    +0.000 C 
ATOM     30  C   UNL     1       4.586   3.543  18.973  0.00  0.00    +0.000 C 
ATOM     31  O   UNL     1       5.735   3.856  19.262  0.00  0.00    +0.000 OA
ENDBRANCH  28  30
ENDBRANCH   1  28
TORSDOF 4
ENDMDL
MODEL 8
REMARK VINA RESULT:      -6.4      7.293      9.308
REMARK  Name = 
REMARK  7 active torsions:
REMARK  status: ('A' for Active; 'I' for Inactive)
REMARK    1  A    between atoms: C_1  and  C_2
REMARK    2  A    between atoms: C_2  and  O_4
REMARK    3  A    between atoms: O_4  and  C_5
REMARK    4  A    between atoms: C_8  and  C_9
REMARK    5  A    between atoms: C_17  and  C_18
REMARK    6  A    between atoms: C_22  and  C_23
REMARK    7  A    between atoms: C_25  and  C_26
REMARK                            x       y       z     vdW  Elec       q    Type
REMARK                         _______ _______ _______ _____ _____    ______ ____
ROOT
ATOM      1  C   UNL     1       0.528  13.579  20.020  0.00  0.00    +0.000 C 
ATOM      2  C   UNL     1       0.991  13.729  18.570  0.00  0.00    +0.000 C 
ATOM      3  C   UNL     1       2.513  13.695  18.441  0.00  0.00    +0.000 C 
ATOM      4  C   UNL     1       3.250  14.730  19.338  0.00  0.00    +0.000 C 
ATOM      5  C   UNL     1       2.870  16.165  18.902  0.00  0.00    +0.000 C 
ATOM      6  C   UNL     1       2.791  14.535  20.788  0.00  0.00    +0.000 C 
ATOM      7  C   UNL     1       3.647  14.512  21.827  0.00  0.00    +0.000 C 
ATOM      8  C   UNL     1       5.125  14.730  21.728  0.00  0.00    +0.000 C 
ATOM      9  C   UNL     1       5.584  15.226  20.350  0.00  0.00    +0.000 C 
ATOM     10  C   UNL     1       7.084  14.998  20.158  0.00  0.00    +0.000 C 
ATOM     11  C   UNL     1       8.086  15.536  21.182  0.00  0.00    +0.000 C 
ATOM     12  C   UNL     1       9.353  15.396  20.379  0.00  0.00    +0.000 C 
ATOM     13  C   UNL     1       9.082  15.326  19.063  0.00  0.00    +0.000 C 
ATOM     14  C   UNL     1       7.603  15.511  18.794  0.00  0.00    +0.000 C 
ATOM     15  C   UNL     1       7.344  17.017  18.538  0.00  0.00    +0.000 C 
ATOM     16  C   UNL     1       6.919  14.657  17.717  0.00  0.00    +0.000 C 
ATOM     17  C   UNL     1       5.388  14.780  17.803  0.00  0.00    +0.000 C 
ATOM     18  C   UNL     1       4.807  14.491  19.216  0.00  0.00    +0.000 C 
ATOM     19  C   UNL     1       1.301  14.430  21.039  0.00  0.00    +0.000 C 
ENDROOT
BRANCH  13  20
ATOM     20  C   UNL     1       9.967  15.044  17.989  0.00  0.00    +0.000 A 
ATOM     21  N   UNL     1      10.364  15.989  17.126  0.00  0.00    +0.000 NA
ATOM     22  N   UNL     1      11.197  15.351  16.293  0.00  0.00    +0.000 N 
ATOM     23  C   UNL     1      11.352  14.033  16.590  0.00  0.00    +0.000 A 
ATOM     24  C   UNL     1      10.551  13.786  17.687  0.00  0.00    +0.000 A 
ATOM     25  H   UNL     1      11.626  15.884  15.543  0.00  0.00    +0.000 HD
BRANCH  24  26
ATOM     26  C   UNL     1      10.385  12.512  18.350  0.00  0.00    +0.000 C 
ATOM     27  O   UNL     1      10.388  11.435  17.762  0.00  0.00    +0.000 OA
ENDBRANCH  24  26
ENDBRANCH  13  20
BRANCH   1  28
ATOM     28  O   UNL     1      -0.909  13.756  20.144  0.00  0.00    +0.000 OA
BRANCH  28  30
ATOM     29  C   UNL     1      -1.721  12.269  21.774  0.00  0.00    +0.000 C 
ATOM     30  C   UNL     1      -1.705  12.666  20.331  0.00  0.00    +0.000 C 
ATOM     31  O   UNL     1      -2.320  12.065  19.458  0.00  0.00    +0.000 OA
ENDBRANCH  28  30
ENDBRANCH   1  28
TORSDOF 4
ENDMDL
MODEL 9
REMARK VINA RESULT:      -6.3      4.702     10.238
REMARK  Name = 
REMARK  7 active torsions:
REMARK  status: ('A' for Active; 'I' for Inactive)
REMARK    1  A    between atoms: C_1  and  C_2
REMARK    2  A    between atoms: C_2  and  O_4
REMARK    3  A    between atoms: O_4  and  C_5
REMARK    4  A    between atoms: C_8  and  C_9
REMARK    5  A    between atoms: C_17  and  C_18
REMARK    6  A    between atoms: C_22  and  C_23
REMARK    7  A    between atoms: C_25  and  C_26
REMARK                            x       y       z     vdW  Elec       q    Type
REMARK                         _______ _______ _______ _____ _____    ______ ____
ROOT
ATOM      1  C   UNL     1       2.211   8.279  18.768  0.00  0.00    +0.000 C 
ATOM      2  C   UNL     1       1.880   9.439  17.826  0.00  0.00    +0.000 C 
ATOM      3  C   UNL     1       1.382  10.672  18.579  0.00  0.00    +0.000 C 
ATOM      4  C   UNL     1       0.176  10.397  19.521  0.00  0.00    +0.000 C 
ATOM      5  C   UNL     1      -1.048   9.950  18.687  0.00  0.00    +0.000 C 
ATOM      6  C   UNL     1       0.548   9.254  20.472  0.00  0.00    +0.000 C 
ATOM      7  C   UNL     1       0.295   9.293  21.794  0.00  0.00    +0.000 C 
ATOM      8  C   UNL     1      -0.422  10.403  22.499  0.00  0.00    +0.000 C 
ATOM      9  C   UNL     1      -1.076  11.416  21.549  0.00  0.00    +0.000 C 
ATOM     10  C   UNL     1      -1.385  12.727  22.275  0.00  0.00    +0.000 C 
ATOM     11  C   UNL     1      -2.215  12.722  23.560  0.00  0.00    +0.000 C 
ATOM     12  C   UNL     1      -2.538  14.191  23.646  0.00  0.00    +0.000 C 
ATOM     13  C   UNL     1      -2.407  14.782  22.445  0.00  0.00    +0.000 C 
ATOM     14  C   UNL     1      -2.074  13.772  21.367  0.00  0.00    +0.000 C 
ATOM     15  C   UNL     1      -3.402  13.289  20.732  0.00  0.00    +0.000 C 
ATOM     16  C   UNL     1      -1.058  14.139  20.276  0.00  0.00    +0.000 C 
ATOM     17  C   UNL     1      -0.643  12.899  19.466  0.00  0.00    +0.000 C 
ATOM     18  C   UNL     1      -0.141  11.713  20.337  0.00  0.00    +0.000 C 
ATOM     19  C   UNL     1       1.166   8.013  19.862  0.00  0.00    +0.000 C 
ENDROOT
BRANCH  13  20
ATOM     20  C   UNL     1      -2.471  16.164  22.125  0.00  0.00    +0.000 A 
ATOM     21  N   UNL     1      -3.576  16.728  21.622  0.00  0.00    +0.000 NA
ATOM     22  N   UNL     1      -3.257  18.022  21.483  0.00  0.00    +0.000 N 
ATOM     23  C   UNL     1      -1.988  18.310  21.879  0.00  0.00    +0.000 A 
ATOM     24  C   UNL     1      -1.432  17.117  22.293  0.00  0.00    +0.000 A 
ATOM     25  H   UNL     1      -3.960  18.652  21.111  0.00  0.00    +0.000 HD
BRANCH  24  26
ATOM     26  C   UNL     1      -0.086  16.933  22.789  0.00  0.00    +0.000 C 
ATOM     27  O   UNL     1       0.856  16.583  22.085  0.00  0.00    +0.000 OA
ENDBRANCH  24  26
ENDBRANCH  13  20
BRANCH   1  28
ATOM     28  O   UNL     1       2.545   7.071  18.031  0.00  0.00    +0.000 OA
BRANCH  28  30
ATOM     29  C   UNL     1       2.072   4.777  18.232  0.00  0.00    +0.000 C 
ATOM     30  C   UNL     1       2.881   5.940  18.715  0.00  0.00    +0.000 C 
ATOM     31  O   UNL     1       3.710   5.861  19.612  0.00  0.00    +0.000 OA
ENDBRANCH  28  30
ENDBRANCH   1  28
TORSDOF 4
ENDMDL
