MODEL 1
REMARK VINA RESULT:      -8.0      0.000      0.000
REMARK  Name = 
REMARK  2 active torsions:
REMARK  status: ('A' for Active; 'I' for Inactive)
REMARK    1  A    between atoms: C_2  and  C_3
REMARK    2  A    between atoms: C_19  and  C_20
REMARK                            x       y       z     vdW  Elec       q    Type
REMARK                         _______ _______ _______ _____ _____    ______ ____
ROOT
ATOM      1  O   UNL     1       4.367   3.328  18.927  0.00  0.00    +0.000 OA
ATOM      2  C   UNL     1       4.408   4.463  18.453  0.00  0.00    +0.000 C 
ATOM      3  N   UNL     1       3.682   5.525  18.990  0.00  0.00    +0.000 N 
ATOM      4  C   UNL     1       3.585   6.893  18.437  0.00  0.00    +0.000 C 
ATOM      5  C   UNL     1       2.177   7.503  18.558  0.00  0.00    +0.000 C 
ATOM      6  N   UNL     1       1.741   7.359  19.942  0.00  0.00    +0.000 N 
ATOM      7  C   UNL     1       1.094   8.403  20.554  0.00  0.00    +0.000 A 
ATOM      8  C   UNL     1       1.150   8.548  21.934  0.00  0.00    +0.000 A 
ATOM      9  C   UNL     1       0.638   9.693  22.536  0.00  0.00    +0.000 A 
ATOM     10  C   UNL     1       0.067  10.666  21.741  0.00  0.00    +0.000 A 
ATOM     11  N   UNL     1      -0.017  10.509  20.404  0.00  0.00    +0.000 NA
ATOM     12  N   UNL     1       0.514   9.380  19.816  0.00  0.00    +0.000 NA
ATOM     13  C   UNL     1       1.673   5.978  20.423  0.00  0.00    +0.000 C 
ATOM     14  C   UNL     1       3.075   5.348  20.323  0.00  0.00    +0.000 C 
ENDROOT
BRANCH   2  15
ATOM     15  C   UNL     1       5.254   4.660  17.241  0.00  0.00    +0.000 A 
ATOM     16  C   UNL     1       6.503   5.321  17.418  0.00  0.00    +0.000 A 
ATOM     17  C   UNL     1       7.423   5.537  16.371  0.00  0.00    +0.000 A 
ATOM     18  C   UNL     1       7.050   5.022  15.108  0.00  0.00    +0.000 A 
ATOM     19  N   UNL     1       7.789   5.056  13.990  0.00  0.00    +0.000 NA
ATOM     20  S   UNL     1       6.896   4.291  12.812  0.00  0.00    +0.000 S 
ATOM     21  N   UNL     1       5.520   3.913  13.663  0.00  0.00    +0.000 NA
ATOM     22  C   UNL     1       5.714   4.361  14.912  0.00  0.00    +0.000 A 
ATOM     23  C   UNL     1       4.796   4.240  15.977  0.00  0.00    +0.000 A 
ENDBRANCH   2  15
BRANCH  10  24
ATOM     24  C   UNL     1      -0.410  11.935  22.261  0.00  0.00    +0.000 A 
ATOM     25  C   UNL     1      -1.479  12.317  23.045  0.00  0.00    +0.000 A 
ATOM     26  C   UNL     1      -1.419  13.729  23.152  0.00  0.00    +0.000 A 
ATOM     27  C   UNL     1      -0.318  14.121  22.431  0.00  0.00    +0.000 A 
ATOM     28  O   UNL     1       0.306  13.043  21.896  0.00  0.00    +0.000 OA
ENDBRANCH  10  24
TORSDOF 2
ENDMDL
MODEL 2
REMARK VINA RESULT:      -7.9      3.367      4.215
REMARK  Name = 
REMARK  2 active torsions:
REMARK  status: ('A' for Active; 'I' for Inactive)
REMARK    1  A    between atoms: C_2  and  C_3
REMARK    2  A    between atoms: C_19  and  C_20
REMARK                            x       y       z     vdW  Elec       q    Type
REMARK                         _______ _______ _______ _____ _____    ______ ____
ROOT
ATOM      1  O   UNL     1       3.522   7.966  16.767  0.00  0.00    +0.000 OA
ATOM      2  C   UNL     1       3.004   7.525  17.792  0.00  0.00    +0.000 C 
ATOM      3  N   UNL     1       2.151   8.290  18.587  0.00  0.00    +0.000 N 
ATOM      4  C   UNL     1       1.561   7.890  19.883  0.00  0.00    +0.000 C 
ATOM      5  C   UNL     1       1.511   9.033  20.911  0.00  0.00    +0.000 C 
ATOM      6  N   UNL     1       0.887  10.186  20.273  0.00  0.00    +0.000 N 
ATOM      7  C   UNL     1      -0.026  10.930  20.977  0.00  0.00    +0.000 A 
ATOM      8  C   UNL     1      -1.013  11.643  20.309  0.00  0.00    +0.000 A 
ATOM      9  C   UNL     1      -2.034  12.259  21.025  0.00  0.00    +0.000 A 
ATOM     10  C   UNL     1      -2.038  12.159  22.402  0.00  0.00    +0.000 A 
ATOM     11  N   UNL     1      -1.061  11.494  23.051  0.00  0.00    +0.000 NA
ATOM     12  N   UNL     1      -0.065  10.869  22.331  0.00  0.00    +0.000 NA
ATOM     13  C   UNL     1       1.585  10.682  19.085  0.00  0.00    +0.000 C 
ATOM     14  C   UNL     1       1.637   9.558  18.035  0.00  0.00    +0.000 C 
ENDROOT
BRANCH   2  15
ATOM     15  C   UNL     1       3.350   6.128  18.179  0.00  0.00    +0.000 A 
ATOM     16  C   UNL     1       4.609   5.920  18.813  0.00  0.00    +0.000 A 
ATOM     17  C   UNL     1       5.050   4.661  19.272  0.00  0.00    +0.000 A 
ATOM     18  C   UNL     1       4.142   3.590  19.098  0.00  0.00    +0.000 A 
ATOM     19  N   UNL     1       4.320   2.327  19.510  0.00  0.00    +0.000 NA
ATOM     20  S   UNL     1       2.946   1.494  19.081  0.00  0.00    +0.000 S 
ATOM     21  N   UNL     1       2.079   2.693  18.325  0.00  0.00    +0.000 NA
ATOM     22  C   UNL     1       2.831   3.802  18.393  0.00  0.00    +0.000 A 
ATOM     23  C   UNL     1       2.472   5.067  17.882  0.00  0.00    +0.000 A 
ENDBRANCH   2  15
BRANCH  10  24
ATOM     24  C   UNL     1      -3.107  12.685  23.231  0.00  0.00    +0.000 A 
ATOM     25  C   UNL     1      -3.675  13.931  23.400  0.00  0.00    +0.000 A 
ATOM     26  C   UNL     1      -4.654  13.796  24.415  0.00  0.00    +0.000 A 
ATOM     27  C   UNL     1      -4.628  12.477  24.800  0.00  0.00    +0.000 A 
ATOM     28  O   UNL     1      -3.702  11.794  24.083  0.00  0.00    +0.000 OA
ENDBRANCH  10  24
TORSDOF 2
ENDMDL
MODEL 3
REMARK VINA RESULT:      -7.8      2.766      3.903
REMARK  Name = 
REMARK  2 active torsions:
REMARK  status: ('A' for Active; 'I' for Inactive)
REMARK    1  A    between atoms: C_2  and  C_3
REMARK    2  A    between atoms: C_19  and  C_20
REMARK                            x       y       z     vdW  Elec       q    Type
REMARK                         _______ _______ _______ _____ _____    ______ ____
ROOT
ATOM      1  O   UNL     1       1.841   5.492  20.988  0.00  0.00    +0.000 OA
ATOM      2  C   UNL     1       2.224   6.168  20.033  0.00  0.00    +0.000 C 
ATOM      3  N   UNL     1       1.884   7.512  19.885  0.00  0.00    +0.000 N 
ATOM      4  C   UNL     1       2.206   8.379  18.732  0.00  0.00    +0.000 C 
ATOM      5  C   UNL     1       1.066   9.340  18.351  0.00  0.00    +0.000 C 
ATOM      6  N   UNL     1       0.646  10.041  19.558  0.00  0.00    +0.000 N 
ATOM      7  C   UNL     1       0.377  11.385  19.494  0.00  0.00    +0.000 A 
ATOM      8  C   UNL     1       0.515  12.181  20.624  0.00  0.00    +0.000 A 
ATOM      9  C   UNL     1       0.406  13.564  20.520  0.00  0.00    +0.000 A 
ATOM     10  C   UNL     1       0.148  14.122  19.285  0.00  0.00    +0.000 A 
ATOM     11  N   UNL     1      -0.018  13.346  18.194  0.00  0.00    +0.000 NA
ATOM     12  N   UNL     1       0.113  11.978  18.304  0.00  0.00    +0.000 NA
ATOM     13  C   UNL     1       0.160   9.174  20.633  0.00  0.00    +0.000 C 
ATOM     14  C   UNL     1       1.290   8.210  21.041  0.00  0.00    +0.000 C 
ENDROOT
BRANCH   2  15
ATOM     15  C   UNL     1       3.054   5.479  19.005  0.00  0.00    +0.000 A 
ATOM     16  C   UNL     1       2.395   4.547  18.152  0.00  0.00    +0.000 A 
ATOM     17  C   UNL     1       3.043   3.855  17.109  0.00  0.00    +0.000 A 
ATOM     18  C   UNL     1       4.411   4.164  16.922  0.00  0.00    +0.000 A 
ATOM     19  N   UNL     1       5.208   3.678  15.960  0.00  0.00    +0.000 NA
ATOM     20  S   UNL     1       6.697   4.386  16.180  0.00  0.00    +0.000 S 
ATOM     21  N   UNL     1       6.403   5.315  17.526  0.00  0.00    +0.000 NA
ATOM     22  C   UNL     1       5.116   5.117  17.847  0.00  0.00    +0.000 A 
ATOM     23  C   UNL     1       4.439   5.723  18.926  0.00  0.00    +0.000 A 
ENDBRANCH   2  15
BRANCH  10  24
ATOM     24  C   UNL     1       0.108  15.555  19.056  0.00  0.00    +0.000 A 
ATOM     25  C   UNL     1      -0.871  16.522  19.148  0.00  0.00    +0.000 A 
ATOM     26  C   UNL     1      -0.279  17.740  18.730  0.00  0.00    +0.000 A 
ATOM     27  C   UNL     1       1.024  17.443  18.412  0.00  0.00    +0.000 A 
ATOM     28  O   UNL     1       1.272  16.126  18.615  0.00  0.00    +0.000 OA
ENDBRANCH  10  24
TORSDOF 2
ENDMDL
MODEL 4
REMARK VINA RESULT:      -7.7      3.347      4.327
REMARK  Name = 
REMARK  2 active torsions:
REMARK  status: ('A' for Active; 'I' for Inactive)
REMARK    1  A    between atoms: C_2  and  C_3
REMARK    2  A    between atoms: C_19  and  C_20
REMARK                            x       y       z     vdW  Elec       q    Type
REMARK                         _______ _______ _______ _____ _____    ______ ____
ROOT
ATOM      1  O   UNL     1       3.554   7.552  17.050  0.00  0.00    +0.000 OA
ATOM      2  C   UNL     1       2.885   7.123  17.990  0.00  0.00    +0.000 C 
ATOM      3  N   UNL     1       2.082   7.950  18.775  0.00  0.00    +0.000 N 
ATOM      4  C   UNL     1       1.325   7.553  19.982  0.00  0.00    +0.000 C 
ATOM      5  C   UNL     1       1.346   8.615  21.094  0.00  0.00    +0.000 C 
ATOM      6  N   UNL     1       0.955   9.891  20.507  0.00  0.00    +0.000 N 
ATOM      7  C   UNL     1       0.099  10.713  21.195  0.00  0.00    +0.000 A 
ATOM      8  C   UNL     1      -0.709  11.611  20.511  0.00  0.00    +0.000 A 
ATOM      9  C   UNL     1      -1.693  12.323  21.192  0.00  0.00    +0.000 A 
ATOM     10  C   UNL     1      -1.837  12.127  22.551  0.00  0.00    +0.000 A 
ATOM     11  N   UNL     1      -1.030  11.279  23.219  0.00  0.00    +0.000 NA
ATOM     12  N   UNL     1      -0.073  10.563  22.531  0.00  0.00    +0.000 NA
ATOM     13  C   UNL     1       1.823  10.359  19.424  0.00  0.00    +0.000 C 
ATOM     14  C   UNL     1       1.810   9.316  18.291  0.00  0.00    +0.000 C 
ENDROOT
BRANCH   2  15
ATOM     15  C   UNL     1       2.989   5.666  18.286  0.00  0.00    +0.000 A 
ATOM     16  C   UNL     1       1.979   4.817  17.749  0.00  0.00    +0.000 A 
ATOM     17  C   UNL     1       1.973   3.417  17.911  0.00  0.00    +0.000 A 
ATOM     18  C   UNL     1       3.068   2.875  18.625  0.00  0.00    +0.000 A 
ATOM     19  N   UNL     1       3.303   1.574  18.847  0.00  0.00    +0.000 NA
ATOM     20  S   UNL     1       4.727   1.492  19.702  0.00  0.00    +0.000 S 
ATOM     21  N   UNL     1       5.091   3.106  19.855  0.00  0.00    +0.000 NA
ATOM     22  C   UNL     1       4.113   3.774  19.226  0.00  0.00    +0.000 A 
ATOM     23  C   UNL     1       4.029   5.177  19.101  0.00  0.00    +0.000 A 
ENDBRANCH   2  15
BRANCH  10  24
ATOM     24  C   UNL     1      -2.891  12.749  23.332  0.00  0.00    +0.000 A 
ATOM     25  C   UNL     1      -3.229  14.052  23.636  0.00  0.00    +0.000 A 
ATOM     26  C   UNL     1      -4.347  13.988  24.504  0.00  0.00    +0.000 A 
ATOM     27  C   UNL     1      -4.626  12.654  24.673  0.00  0.00    +0.000 A 
ATOM     28  O   UNL     1      -3.757  11.895  23.961  0.00  0.00    +0.000 OA
ENDBRANCH  10  24
TORSDOF 2
ENDMDL
MODEL 5
REMARK VINA RESULT:      -7.5      3.758     10.220
REMARK  Name = 
REMARK  2 active torsions:
REMARK  status: ('A' for Active; 'I' for Inactive)
REMARK    1  A    between atoms: C_2  and  C_3
REMARK    2  A    between atoms: C_19  and  C_20
REMARK                            x       y       z     vdW  Elec       q    Type
REMARK                         _______ _______ _______ _____ _____    ______ ____
ROOT
ATOM      1  O   UNL     1       1.006   8.019  21.736  0.00  0.00    +0.000 OA
ATOM      2  C   UNL     1       1.157   8.511  20.618  0.00  0.00    +0.000 C 
ATOM      3  N   UNL     1       1.901   7.883  19.620  0.00  0.00    +0.000 N 
ATOM      4  C   UNL     1       2.226   8.433  18.286  0.00  0.00    +0.000 C 
ATOM      5  C   UNL     1       3.655   8.105  17.820  0.00  0.00    +0.000 C 
ATOM      6  N   UNL     1       3.858   6.669  17.967  0.00  0.00    +0.000 N 
ATOM      7  C   UNL     1       4.511   5.979  16.976  0.00  0.00    +0.000 A 
ATOM      8  C   UNL     1       4.262   4.627  16.784  0.00  0.00    +0.000 A 
ATOM      9  C   UNL     1       4.795   3.969  15.680  0.00  0.00    +0.000 A 
ATOM     10  C   UNL     1       5.580   4.680  14.795  0.00  0.00    +0.000 A 
ATOM     11  N   UNL     1       5.848   5.985  15.001  0.00  0.00    +0.000 NA
ATOM     12  N   UNL     1       5.297   6.632  16.086  0.00  0.00    +0.000 NA
ATOM     13  C   UNL     1       3.706   6.164  19.333  0.00  0.00    +0.000 C 
ATOM     14  C   UNL     1       2.277   6.470  19.818  0.00  0.00    +0.000 C 
ENDROOT
BRANCH   2  15
ATOM     15  C   UNL     1       0.532   9.841  20.373  0.00  0.00    +0.000 A 
ATOM     16  C   UNL     1      -0.571   9.887  19.472  0.00  0.00    +0.000 A 
ATOM     17  C   UNL     1      -1.287  11.066  19.178  0.00  0.00    +0.000 A 
ATOM     18  C   UNL     1      -0.867  12.228  19.866  0.00  0.00    +0.000 A 
ATOM     19  N   UNL     1      -1.433  13.441  19.792  0.00  0.00    +0.000 NA
ATOM     20  S   UNL     1      -0.570  14.428  20.815  0.00  0.00    +0.000 S 
ATOM     21  N   UNL     1       0.581  13.367  21.372  0.00  0.00    +0.000 NA
ATOM     22  C   UNL     1       0.323  12.188  20.786  0.00  0.00    +0.000 A 
ATOM     23  C   UNL     1       1.053  10.998  20.984  0.00  0.00    +0.000 A 
ENDBRANCH   2  15
BRANCH  10  24
ATOM     24  C   UNL     1       6.104   4.110  13.567  0.00  0.00    +0.000 A 
ATOM     25  C   UNL     1       7.225   4.339  12.797  0.00  0.00    +0.000 A 
ATOM     26  C   UNL     1       7.129   3.479  11.675  0.00  0.00    +0.000 A 
ATOM     27  C   UNL     1       5.958   2.777  11.830  0.00  0.00    +0.000 A 
ATOM     28  O   UNL     1       5.335   3.143  12.976  0.00  0.00    +0.000 OA
ENDBRANCH  10  24
TORSDOF 2
ENDMDL
MODEL 6
REMARK VINA RESULT:      -7.5      1.056      1.228
REMARK  Name = 
REMARK  2 active torsions:
REMARK  status: ('A' for Active; 'I' for Inactive)
REMARK    1  A    between atoms: C_2  and  C_3
REMARK    2  A    between atoms: C_19  and  C_20
REMARK                            x       y       z     vdW  Elec       q    Type
REMARK                         _______ _______ _______ _____ _____    ______ ____
ROOT
ATOM      1  O   UNL     1       3.048   3.502  19.638  0.00  0.00    +0.000 OA
ATOM      2  C   UNL     1       3.393   4.629  19.281  0.00  0.00    +0.000 C 
ATOM      3  N   UNL     1       2.760   5.784  19.738  0.00  0.00    +0.000 N 
ATOM      4  C   UNL     1       3.029   7.169  19.296  0.00  0.00    +0.000 C 
ATOM      5  C   UNL     1       1.759   8.027  19.164  0.00  0.00    +0.000 C 
ATOM      6  N   UNL     1       1.002   7.907  20.404  0.00  0.00    +0.000 N 
ATOM      7  C   UNL     1       0.425   9.026  20.950  0.00  0.00    +0.000 A 
ATOM      8  C   UNL     1       0.192   9.097  22.317  0.00  0.00    +0.000 A 
ATOM      9  C   UNL     1      -0.236  10.290  22.890  0.00  0.00    +0.000 A 
ATOM     10  C   UNL     1      -0.435  11.387  22.077  0.00  0.00    +0.000 A 
ATOM     11  N   UNL     1      -0.240  11.307  20.745  0.00  0.00    +0.000 NA
ATOM     12  N   UNL     1       0.206  10.126  20.190  0.00  0.00    +0.000 NA
ATOM     13  C   UNL     1       0.588   6.543  20.740  0.00  0.00    +0.000 C 
ATOM     14  C   UNL     1       1.845   5.666  20.890  0.00  0.00    +0.000 C 
ENDROOT
BRANCH   2  15
ATOM     15  C   UNL     1       4.511   4.716  18.300  0.00  0.00    +0.000 A 
ATOM     16  C   UNL     1       5.832   4.818  18.824  0.00  0.00    +0.000 A 
ATOM     17  C   UNL     1       6.987   4.865  18.017  0.00  0.00    +0.000 A 
ATOM     18  C   UNL     1       6.768   4.769  16.622  0.00  0.00    +0.000 A 
ATOM     19  N   UNL     1       7.713   4.731  15.673  0.00  0.00    +0.000 NA
ATOM     20  S   UNL     1       6.917   4.587  14.220  0.00  0.00    +0.000 S 
ATOM     21  N   UNL     1       5.336   4.599  14.731  0.00  0.00    +0.000 NA
ATOM     22  C   UNL     1       5.372   4.703  16.068  0.00  0.00    +0.000 A 
ATOM     23  C   UNL     1       4.246   4.739  16.917  0.00  0.00    +0.000 A 
ENDBRANCH   2  15
BRANCH  10  24
ATOM     24  C   UNL     1      -0.790  12.699  22.588  0.00  0.00    +0.000 A 
ATOM     25  C   UNL     1      -1.931  13.245  23.139  0.00  0.00    +0.000 A 
ATOM     26  C   UNL     1      -1.647  14.611  23.386  0.00  0.00    +0.000 A 
ATOM     27  C   UNL     1      -0.352  14.814  22.975  0.00  0.00    +0.000 A 
ATOM     28  O   UNL     1       0.180  13.661  22.500  0.00  0.00    +0.000 OA
ENDBRANCH  10  24
TORSDOF 2
ENDMDL
MODEL 7
REMARK VINA RESULT:      -7.4      3.310      4.980
REMARK  Name = 
REMARK  2 active torsions:
REMARK  status: ('A' for Active; 'I' for Inactive)
REMARK    1  A    between atoms: C_2  and  C_3
REMARK    2  A    between atoms: C_19  and  C_20
REMARK                            x       y       z     vdW  Elec       q    Type
REMARK                         _______ _______ _______ _____ _____    ______ ____
ROOT
ATOM      1  O   UNL     1       2.874   7.882  17.554  0.00  0.00    +0.000 OA
ATOM      2  C   UNL     1       2.366   7.682  18.656  0.00  0.00    +0.000 C 
ATOM      3  N   UNL     1       1.615   8.652  19.320  0.00  0.00    +0.000 N 
ATOM      4  C   UNL     1       1.052   8.549  20.683  0.00  0.00    +0.000 C 
ATOM      5  C   UNL     1       1.142   9.859  21.485  0.00  0.00    +0.000 C 
ATOM      6  N   UNL     1       0.589  10.929  20.662  0.00  0.00    +0.000 N 
ATOM      7  C   UNL     1      -0.226  11.868  21.243  0.00  0.00    +0.000 A 
ATOM      8  C   UNL     1      -1.178  12.533  20.482  0.00  0.00    +0.000 A 
ATOM      9  C   UNL     1      -2.112  13.359  21.100  0.00  0.00    +0.000 A 
ATOM     10  C   UNL     1      -2.064  13.510  22.471  0.00  0.00    +0.000 A 
ATOM     11  N   UNL     1      -1.119  12.889  23.205  0.00  0.00    +0.000 NA
ATOM     12  N   UNL     1      -0.211  12.057  22.584  0.00  0.00    +0.000 NA
ATOM     13  C   UNL     1       1.274  11.137  19.385  0.00  0.00    +0.000 C 
ATOM     14  C   UNL     1       1.186   9.840  18.558  0.00  0.00    +0.000 C 
ENDROOT
BRANCH   2  15
ATOM     15  C   UNL     1       2.611   6.353  19.285  0.00  0.00    +0.000 A 
ATOM     16  C   UNL     1       1.608   5.853  20.165  0.00  0.00    +0.000 A 
ATOM     17  C   UNL     1       1.685   4.594  20.795  0.00  0.00    +0.000 A 
ATOM     18  C   UNL     1       2.821   3.815  20.477  0.00  0.00    +0.000 A 
ATOM     19  N   UNL     1       3.074   2.570  20.907  0.00  0.00    +0.000 NA
ATOM     20  S   UNL     1       4.516   2.116  20.214  0.00  0.00    +0.000 S 
ATOM     21  N   UNL     1       4.899   3.492  19.365  0.00  0.00    +0.000 NA
ATOM     22  C   UNL     1       3.899   4.359  19.581  0.00  0.00    +0.000 A 
ATOM     23  C   UNL     1       3.810   5.658  19.038  0.00  0.00    +0.000 A 
ENDBRANCH   2  15
BRANCH  10  24
ATOM     24  C   UNL     1      -3.048  14.272  23.219  0.00  0.00    +0.000 A 
ATOM     25  C   UNL     1      -4.373  14.600  23.018  0.00  0.00    +0.000 A 
ATOM     26  C   UNL     1      -4.755  15.427  24.103  0.00  0.00    +0.000 A 
ATOM     27  C   UNL     1      -3.644  15.551  24.900  0.00  0.00    +0.000 A 
ATOM     28  O   UNL     1      -2.607  14.848  24.380  0.00  0.00    +0.000 OA
ENDBRANCH  10  24
TORSDOF 2
ENDMDL
MODEL 8
REMARK VINA RESULT:      -7.3      3.635      4.663
REMARK  Name = 
REMARK  2 active torsions:
REMARK  status: ('A' for Active; 'I' for Inactive)
REMARK    1  A    between atoms: C_2  and  C_3
REMARK    2  A    between atoms: C_19  and  C_20
REMARK                            x       y       z     vdW  Elec       q    Type
REMARK                         _______ _______ _______ _____ _____    ______ ____
ROOT
ATOM      1  O   UNL     1       3.184   8.221  16.941  0.00  0.00    +0.000 OA
ATOM      2  C   UNL     1       2.575   7.875  17.953  0.00  0.00    +0.000 C 
ATOM      3  N   UNL     1       1.817   8.768  18.711  0.00  0.00    +0.000 N 
ATOM      4  C   UNL     1       1.136   8.478  19.991  0.00  0.00    +0.000 C 
ATOM      5  C   UNL     1       1.220   9.633  21.005  0.00  0.00    +0.000 C 
ATOM      6  N   UNL     1       0.789  10.853  20.333  0.00  0.00    +0.000 N 
ATOM      7  C   UNL     1      -0.027  11.732  20.999  0.00  0.00    +0.000 A 
ATOM      8  C   UNL     1      -0.880  12.569  20.290  0.00  0.00    +0.000 A 
ATOM      9  C   UNL     1      -1.823  13.338  20.965  0.00  0.00    +0.000 A 
ATOM     10  C   UNL     1      -1.884  13.261  22.342  0.00  0.00    +0.000 A 
ATOM     11  N   UNL     1      -1.034  12.473  23.031  0.00  0.00    +0.000 NA
ATOM     12  N   UNL     1      -0.118  11.699  22.350  0.00  0.00    +0.000 NA
ATOM     13  C   UNL     1       1.588  11.225  19.164  0.00  0.00    +0.000 C 
ATOM     14  C   UNL     1       1.510  10.088  18.128  0.00  0.00    +0.000 C 
ENDROOT
BRANCH   2  15
ATOM     15  C   UNL     1       2.703   6.449  18.368  0.00  0.00    +0.000 A 
ATOM     16  C   UNL     1       3.780   6.118  19.240  0.00  0.00    +0.000 A 
ATOM     17  C   UNL     1       3.998   4.821  19.747  0.00  0.00    +0.000 A 
ATOM     18  C   UNL     1       3.051   3.842  19.364  0.00  0.00    +0.000 A 
ATOM     19  N   UNL     1       3.023   2.566  19.771  0.00  0.00    +0.000 NA
ATOM     20  S   UNL     1       1.696   1.871  19.049  0.00  0.00    +0.000 S 
ATOM     21  N   UNL     1       1.117   3.152  18.163  0.00  0.00    +0.000 NA
ATOM     22  C   UNL     1       1.938   4.183  18.411  0.00  0.00    +0.000 A 
ATOM     23  C   UNL     1       1.811   5.480  17.871  0.00  0.00    +0.000 A 
ENDBRANCH   2  15
BRANCH  10  24
ATOM     24  C   UNL     1      -2.891  13.949  23.129  0.00  0.00    +0.000 A 
ATOM     25  C   UNL     1      -4.259  14.101  23.030  0.00  0.00    +0.000 A 
ATOM     26  C   UNL     1      -4.651  14.949  24.096  0.00  0.00    +0.000 A 
ATOM     27  C   UNL     1      -3.502  15.258  24.781  0.00  0.00    +0.000 A 
ATOM     28  O   UNL     1      -2.432  14.651  24.212  0.00  0.00    +0.000 OA
ENDBRANCH  10  24
TORSDOF 2
ENDMDL
MODEL 9
REMARK VINA RESULT:      -7.2      3.266      4.993
REMARK  Name = 
REMARK  2 active torsions:
REMARK  status: ('A' for Active; 'I' for Inactive)
REMARK    1  A    between atoms: C_2  and  C_3
REMARK    2  A    between atoms: C_19  and  C_20
REMARK                            x       y       z     vdW  Elec       q    Type
REMARK                         _______ _______ _______ _____ _____    ______ ____
ROOT
ATOM      1  O   UNL     1       3.181   8.462  17.687  0.00  0.00    +0.000 OA
ATOM      2  C   UNL     1       2.426   8.006  18.545  0.00  0.00    +0.000 C 
ATOM      3  N   UNL     1       1.458   8.785  19.179  0.00  0.00    +0.000 N 
ATOM      4  C   UNL     1       0.577   8.362  20.288  0.00  0.00    +0.000 C 
ATOM      5  C   UNL     1       0.358   9.457  21.348  0.00  0.00    +0.000 C 
ATOM      6  N   UNL     1      -0.049  10.676  20.659  0.00  0.00    +0.000 N 
ATOM      7  C   UNL     1      -1.056  11.441  21.191  0.00  0.00    +0.000 A 
ATOM      8  C   UNL     1      -1.832  12.246  20.367  0.00  0.00    +0.000 A 
ATOM      9  C   UNL     1      -2.954  12.891  20.878  0.00  0.00    +0.000 A 
ATOM     10  C   UNL     1      -3.269  12.726  22.212  0.00  0.00    +0.000 A 
ATOM     11  N   UNL     1      -2.495  11.971  23.018  0.00  0.00    +0.000 NA
ATOM     12  N   UNL     1      -1.398  11.319  22.496  0.00  0.00    +0.000 NA
ATOM     13  C   UNL     1       0.919  11.182  19.685  0.00  0.00    +0.000 C 
ATOM     14  C   UNL     1       1.146  10.108  18.605  0.00  0.00    +0.000 C 
ENDROOT
BRANCH   2  15
ATOM     15  C   UNL     1       2.606   6.574  18.914  0.00  0.00    +0.000 A 
ATOM     16  C   UNL     1       2.248   6.191  20.239  0.00  0.00    +0.000 A 
ATOM     17  C   UNL     1       2.324   4.866  20.713  0.00  0.00    +0.000 A 
ATOM     18  C   UNL     1       2.753   3.899  19.774  0.00  0.00    +0.000 A 
ATOM     19  N   UNL     1       2.843   2.578  19.981  0.00  0.00    +0.000 NA
ATOM     20  S   UNL     1       3.367   1.912  18.550  0.00  0.00    +0.000 S 
ATOM     21  N   UNL     1       3.535   3.275  17.615  0.00  0.00    +0.000 NA
ATOM     22  C   UNL     1       3.170   4.309  18.388  0.00  0.00    +0.000 A 
ATOM     23  C   UNL     1       3.150   5.662  17.989  0.00  0.00    +0.000 A 
ENDBRANCH   2  15
BRANCH  10  24
ATOM     24  C   UNL     1      -4.466  13.279  22.817  0.00  0.00    +0.000 A 
ATOM     25  C   UNL     1      -5.033  14.536  22.866  0.00  0.00    +0.000 A 
ATOM     26  C   UNL     1      -6.191  14.427  23.675  0.00  0.00    +0.000 A 
ATOM     27  C   UNL     1      -6.262  13.113  24.068  0.00  0.00    +0.000 A 
ATOM     28  O   UNL     1      -5.230  12.406  23.546  0.00  0.00    +0.000 OA
ENDBRANCH  10  24
TORSDOF 2
ENDMDL
