MODEL 1
REMARK VINA RESULT:      -7.7      0.000      0.000
REMARK  Name = 
REMARK  6 active torsions:
REMARK  status: ('A' for Active; 'I' for Inactive)
REMARK    1  A    between atoms: N_1  and  S_2
REMARK    2  A    between atoms: S_2  and  C_5
REMARK    3  A    between atoms: C_8  and  C_9
REMARK    4  A    between atoms: C_9  and  N_10
REMARK    5  A    between atoms: C_9  and  C_16
REMARK    6  A    between atoms: C_16  and  C_18
REMARK                            x       y       z     vdW  Elec       q    Type
REMARK                         _______ _______ _______ _____ _____    ______ ____
ROOT
ATOM      1  C   UNL     1       2.912   6.101  17.981  0.00  0.00    +0.000 C 
ENDROOT
BRANCH   1   2
ATOM      2  N   UNL     1       4.124   5.724  18.726  0.00  0.00    +0.000 N 
ATOM      3  C   UNL     1       5.241   5.304  18.077  0.00  0.00    +0.000 A 
ATOM      4  N   UNL     1       5.275   4.658  16.932  0.00  0.00    +0.000 NA
ATOM      5  C   UNL     1       6.588   4.362  16.586  0.00  0.00    +0.000 A 
ATOM      6  C   UNL     1       7.551   4.807  17.464  0.00  0.00    +0.000 A 
ATOM      7  S   UNL     1       6.791   5.575  18.791  0.00  0.00    +0.000 S 
ATOM      8  H   UNL     1       4.289   6.317  19.534  0.00  0.00    +0.000 HD
ENDBRANCH   1   2
BRANCH   1  12
ATOM      9  C   UNL     1       1.063   9.591  19.816  0.00  0.00    +0.000 A 
ATOM     10  C   UNL     1       1.443   8.502  20.594  0.00  0.00    +0.000 A 
ATOM     11  C   UNL     1       2.094   7.417  19.992  0.00  0.00    +0.000 A 
ATOM     12  C   UNL     1       2.337   7.386  18.602  0.00  0.00    +0.000 A 
ATOM     13  C   UNL     1       1.948   8.508  17.849  0.00  0.00    +0.000 A 
ATOM     14  C   UNL     1       1.337   9.613  18.450  0.00  0.00    +0.000 A 
BRANCH   9  15
ATOM     15  S   UNL     1       0.266  10.978  20.567  0.00  0.00    +0.000 S 
ATOM     16  O   UNL     1      -0.772  11.457  19.701  0.00  0.00    +0.000 OA
ATOM     17  O   UNL     1       1.272  11.856  21.139  0.00  0.00    +0.000 OA
BRANCH  15  18
ATOM     18  N   UNL     1      -0.473  10.257  21.895  0.00  0.00    +0.000 NA
ATOM     19  H   UNL     1      -1.087   9.509  21.565  0.00  0.00    +0.000 HD
ATOM     20  H   UNL     1      -0.961  10.952  22.453  0.00  0.00    +0.000 HD
ENDBRANCH  15  18
ENDBRANCH   9  15
ENDBRANCH   1  12
BRANCH   1  21
ATOM     21  C   UNL     1       1.934   4.889  17.933  0.00  0.00    +0.000 C 
ATOM     22  O   UNL     1       1.158   4.625  17.008  0.00  0.00    +0.000 OA
BRANCH  21  23
ATOM     23  C   UNL     1       1.930   3.946  19.088  0.00  0.00    +0.000 A 
ATOM     24  C   UNL     1       1.094   4.179  20.184  0.00  0.00    +0.000 A 
ATOM     25  C   UNL     1       1.157   3.351  21.304  0.00  0.00    +0.000 A 
ATOM     26  C   UNL     1       2.043   2.281  21.320  0.00  0.00    +0.000 A 
ATOM     27  F   UNL     1       2.131   1.518  22.416  0.00  0.00    +0.000 F 
ATOM     28  C   UNL     1       2.846   2.001  20.218  0.00  0.00    +0.000 A 
ATOM     29  C   UNL     1       2.782   2.826  19.091  0.00  0.00    +0.000 A 
ENDBRANCH  21  23
ENDBRANCH   1  21
TORSDOF 6
ENDMDL
MODEL 2
REMARK VINA RESULT:      -7.6      1.511      1.644
REMARK  Name = 
REMARK  6 active torsions:
REMARK  status: ('A' for Active; 'I' for Inactive)
REMARK    1  A    between atoms: N_1  and  S_2
REMARK    2  A    between atoms: S_2  and  C_5
REMARK    3  A    between atoms: C_8  and  C_9
REMARK    4  A    between atoms: C_9  and  N_10
REMARK    5  A    between atoms: C_9  and  C_16
REMARK    6  A    between atoms: C_16  and  C_18
REMARK                            x       y       z     vdW  Elec       q    Type
REMARK                         _______ _______ _______ _____ _____    ______ ____
ROOT
ATOM      1  C   UNL     1       3.697   5.244  17.514  0.00  0.00    +0.000 C 
ENDROOT
BRANCH   1   2
ATOM      2  N   UNL     1       5.053   4.989  18.025  0.00  0.00    +0.000 N 
ATOM      3  C   UNL     1       6.030   5.927  17.911  0.00  0.00    +0.000 A 
ATOM      4  N   UNL     1       6.139   6.818  16.950  0.00  0.00    +0.000 NA
ATOM      5  C   UNL     1       7.278   7.592  17.140  0.00  0.00    +0.000 A 
ATOM      6  C   UNL     1       8.019   7.297  18.262  0.00  0.00    +0.000 A 
ATOM      7  S   UNL     1       7.301   5.977  19.081  0.00  0.00    +0.000 S 
ATOM      8  H   UNL     1       5.055   4.466  18.896  0.00  0.00    +0.000 HD
ENDBRANCH   1   2
BRANCH   1  12
ATOM      9  C   UNL     1       1.723   8.327  19.874  0.00  0.00    +0.000 A 
ATOM     10  C   UNL     1       2.135   7.138  20.469  0.00  0.00    +0.000 A 
ATOM     11  C   UNL     1       2.825   6.187  19.705  0.00  0.00    +0.000 A 
ATOM     12  C   UNL     1       3.076   6.391  18.331  0.00  0.00    +0.000 A 
ATOM     13  C   UNL     1       2.653   7.608  17.766  0.00  0.00    +0.000 A 
ATOM     14  C   UNL     1       2.002   8.580  18.533  0.00  0.00    +0.000 A 
BRANCH   9  15
ATOM     15  S   UNL     1       0.876   9.546  20.833  0.00  0.00    +0.000 S 
ATOM     16  O   UNL     1      -0.479   9.127  21.046  0.00  0.00    +0.000 OA
ATOM     17  O   UNL     1       1.215  10.867  20.334  0.00  0.00    +0.000 OA
BRANCH  15  18
ATOM     18  N   UNL     1       1.681   9.428  22.305  0.00  0.00    +0.000 NA
ATOM     19  H   UNL     1       2.139   8.515  22.359  0.00  0.00    +0.000 HD
ATOM     20  H   UNL     1       1.040   9.595  23.077  0.00  0.00    +0.000 HD
ENDBRANCH  15  18
ENDBRANCH   9  15
ENDBRANCH   1  12
BRANCH   1  21
ATOM     21  C   UNL     1       2.885   3.914  17.511  0.00  0.00    +0.000 C 
ATOM     22  O   UNL     1       2.626   3.231  16.514  0.00  0.00    +0.000 OA
BRANCH  21  23
ATOM     23  C   UNL     1       2.381   3.397  18.815  0.00  0.00    +0.000 A 
ATOM     24  C   UNL     1       1.018   3.465  19.120  0.00  0.00    +0.000 A 
ATOM     25  C   UNL     1       0.560   3.068  20.375  0.00  0.00    +0.000 A 
ATOM     26  C   UNL     1       1.461   2.588  21.318  0.00  0.00    +0.000 A 
ATOM     27  F   UNL     1       1.019   2.252  22.536  0.00  0.00    +0.000 F 
ATOM     28  C   UNL     1       2.813   2.462  21.015  0.00  0.00    +0.000 A 
ATOM     29  C   UNL     1       3.277   2.855  19.755  0.00  0.00    +0.000 A 
ENDBRANCH  21  23
ENDBRANCH   1  21
TORSDOF 6
ENDMDL
MODEL 3
REMARK VINA RESULT:      -7.6      1.422      1.554
REMARK  Name = 
REMARK  6 active torsions:
REMARK  status: ('A' for Active; 'I' for Inactive)
REMARK    1  A    between atoms: N_1  and  S_2
REMARK    2  A    between atoms: S_2  and  C_5
REMARK    3  A    between atoms: C_8  and  C_9
REMARK    4  A    between atoms: C_9  and  N_10
REMARK    5  A    between atoms: C_9  and  C_16
REMARK    6  A    between atoms: C_16  and  C_18
REMARK                            x       y       z     vdW  Elec       q    Type
REMARK                         _______ _______ _______ _____ _____    ______ ____
ROOT
ATOM      1  C   UNL     1       3.688   5.250  17.509  0.00  0.00    +0.000 C 
ENDROOT
BRANCH   1   2
ATOM      2  N   UNL     1       4.959   4.953  18.189  0.00  0.00    +0.000 N 
ATOM      3  C   UNL     1       6.024   5.790  18.076  0.00  0.00    +0.000 A 
ATOM      4  N   UNL     1       6.307   6.547  17.038  0.00  0.00    +0.000 NA
ATOM      5  C   UNL     1       7.488   7.246  17.262  0.00  0.00    +0.000 A 
ATOM      6  C   UNL     1       8.085   7.032  18.484  0.00  0.00    +0.000 A 
ATOM      7  S   UNL     1       7.173   5.881  19.364  0.00  0.00    +0.000 S 
ATOM      8  H   UNL     1       4.827   4.541  19.108  0.00  0.00    +0.000 HD
ENDBRANCH   1   2
BRANCH   1  12
ATOM      9  C   UNL     1       1.731   8.674  19.359  0.00  0.00    +0.000 A 
ATOM     10  C   UNL     1       2.021   7.537  20.107  0.00  0.00    +0.000 A 
ATOM     11  C   UNL     1       2.708   6.473  19.507  0.00  0.00    +0.000 A 
ATOM     12  C   UNL     1       3.077   6.512  18.146  0.00  0.00    +0.000 A 
ATOM     13  C   UNL     1       2.777   7.681  17.423  0.00  0.00    +0.000 A 
ATOM     14  C   UNL     1       2.130   8.764  18.026  0.00  0.00    +0.000 A 
BRANCH   9  15
ATOM     15  S   UNL     1       0.890  10.034  20.109  0.00  0.00    +0.000 S 
ATOM     16  O   UNL     1       1.406  11.263  19.582  0.00  0.00    +0.000 OA
ATOM     17  O   UNL     1       0.763   9.790  21.536  0.00  0.00    +0.000 OA
BRANCH  15  18
ATOM     18  N   UNL     1      -0.667   9.836  19.504  0.00  0.00    +0.000 NA
ATOM     19  H   UNL     1      -1.278   9.524  20.262  0.00  0.00    +0.000 HD
ATOM     20  H   UNL     1      -0.663   9.200  18.711  0.00  0.00    +0.000 HD
ENDBRANCH  15  18
ENDBRANCH   9  15
ENDBRANCH   1  12
BRANCH   1  21
ATOM     21  C   UNL     1       2.778   3.986  17.533  0.00  0.00    +0.000 C 
ATOM     22  O   UNL     1       2.394   3.357  16.541  0.00  0.00    +0.000 OA
BRANCH  21  23
ATOM     23  C   UNL     1       2.335   3.467  18.858  0.00  0.00    +0.000 A 
ATOM     24  C   UNL     1       0.984   3.513  19.217  0.00  0.00    +0.000 A 
ATOM     25  C   UNL     1       0.582   3.114  20.490  0.00  0.00    +0.000 A 
ATOM     26  C   UNL     1       1.528   2.654  21.398  0.00  0.00    +0.000 A 
ATOM     27  F   UNL     1       1.140   2.317  22.635  0.00  0.00    +0.000 F 
ATOM     28  C   UNL     1       2.869   2.550  21.043  0.00  0.00    +0.000 A 
ATOM     29  C   UNL     1       3.276   2.944  19.765  0.00  0.00    +0.000 A 
ENDBRANCH  21  23
ENDBRANCH   1  21
TORSDOF 6
ENDMDL
MODEL 4
REMARK VINA RESULT:      -7.6      0.740      1.386
REMARK  Name = 
REMARK  6 active torsions:
REMARK  status: ('A' for Active; 'I' for Inactive)
REMARK    1  A    between atoms: N_1  and  S_2
REMARK    2  A    between atoms: S_2  and  C_5
REMARK    3  A    between atoms: C_8  and  C_9
REMARK    4  A    between atoms: C_9  and  N_10
REMARK    5  A    between atoms: C_9  and  C_16
REMARK    6  A    between atoms: C_16  and  C_18
REMARK                            x       y       z     vdW  Elec       q    Type
REMARK                         _______ _______ _______ _____ _____    ______ ____
ROOT
ATOM      1  C   UNL     1       2.902   6.136  17.886  0.00  0.00    +0.000 C 
ENDROOT
BRANCH   1   2
ATOM      2  N   UNL     1       4.183   5.836  18.544  0.00  0.00    +0.000 N 
ATOM      3  C   UNL     1       5.239   5.358  17.834  0.00  0.00    +0.000 A 
ATOM      4  N   UNL     1       5.171   4.605  16.758  0.00  0.00    +0.000 NA
ATOM      5  C   UNL     1       6.449   4.281  16.318  0.00  0.00    +0.000 A 
ATOM      6  C   UNL     1       7.485   4.810  17.054  0.00  0.00    +0.000 A 
ATOM      7  S   UNL     1       6.847   5.700  18.368  0.00  0.00    +0.000 S 
ATOM      8  H   UNL     1       4.417   6.503  19.273  0.00  0.00    +0.000 HD
ENDBRANCH   1   2
BRANCH   1  12
ATOM      9  C   UNL     1       1.058   9.639  19.702  0.00  0.00    +0.000 A 
ATOM     10  C   UNL     1       1.444   8.557  20.487  0.00  0.00    +0.000 A 
ATOM     11  C   UNL     1       2.093   7.468  19.891  0.00  0.00    +0.000 A 
ATOM     12  C   UNL     1       2.328   7.426  18.500  0.00  0.00    +0.000 A 
ATOM     13  C   UNL     1       1.934   8.542  17.739  0.00  0.00    +0.000 A 
ATOM     14  C   UNL     1       1.325   9.651  18.334  0.00  0.00    +0.000 A 
BRANCH   9  15
ATOM     15  S   UNL     1       0.264  11.031  20.446  0.00  0.00    +0.000 S 
ATOM     16  O   UNL     1       0.598  11.081  21.840  0.00  0.00    +0.000 OA
ATOM     17  O   UNL     1      -1.106  11.112  19.969  0.00  0.00    +0.000 OA
BRANCH  15  18
ATOM     18  N   UNL     1       1.054  12.308  19.689  0.00  0.00    +0.000 NA
ATOM     19  H   UNL     1       1.414  11.986  18.788  0.00  0.00    +0.000 HD
ATOM     20  H   UNL     1       1.779  12.688  20.292  0.00  0.00    +0.000 HD
ENDBRANCH  15  18
ENDBRANCH   9  15
ENDBRANCH   1  12
BRANCH   1  21
ATOM     21  C   UNL     1       1.971   4.889  17.966  0.00  0.00    +0.000 C 
ATOM     22  O   UNL     1       1.172   4.529  17.095  0.00  0.00    +0.000 OA
BRANCH  21  23
ATOM     23  C   UNL     1       2.047   4.036  19.187  0.00  0.00    +0.000 A 
ATOM     24  C   UNL     1       2.995   3.011  19.271  0.00  0.00    +0.000 A 
ATOM     25  C   UNL     1       3.006   2.155  20.371  0.00  0.00    +0.000 A 
ATOM     26  C   UNL     1       2.081   2.334  21.393  0.00  0.00    +0.000 A 
ATOM     27  F   UNL     1       2.068   1.480  22.423  0.00  0.00    +0.000 F 
ATOM     28  C   UNL     1       1.165   3.381  21.353  0.00  0.00    +0.000 A 
ATOM     29  C   UNL     1       1.154   4.245  20.253  0.00  0.00    +0.000 A 
ENDBRANCH  21  23
ENDBRANCH   1  21
TORSDOF 6
ENDMDL
MODEL 5
REMARK VINA RESULT:      -7.5      0.596      1.116
REMARK  Name = 
REMARK  6 active torsions:
REMARK  status: ('A' for Active; 'I' for Inactive)
REMARK    1  A    between atoms: N_1  and  S_2
REMARK    2  A    between atoms: S_2  and  C_5
REMARK    3  A    between atoms: C_8  and  C_9
REMARK    4  A    between atoms: C_9  and  N_10
REMARK    5  A    between atoms: C_9  and  C_16
REMARK    6  A    between atoms: C_16  and  C_18
REMARK                            x       y       z     vdW  Elec       q    Type
REMARK                         _______ _______ _______ _____ _____    ______ ____
ROOT
ATOM      1  C   UNL     1       2.852   6.073  17.975  0.00  0.00    +0.000 C 
ENDROOT
BRANCH   1   2
ATOM      2  N   UNL     1       4.042   5.745  18.776  0.00  0.00    +0.000 N 
ATOM      3  C   UNL     1       5.191   5.328  18.181  0.00  0.00    +0.000 A 
ATOM      4  N   UNL     1       5.280   4.647  17.059  0.00  0.00    +0.000 NA
ATOM      5  C   UNL     1       6.610   4.367  16.772  0.00  0.00    +0.000 A 
ATOM      6  C   UNL     1       7.531   4.859  17.669  0.00  0.00    +0.000 A 
ATOM      7  S   UNL     1       6.708   5.654  18.942  0.00  0.00    +0.000 S 
ATOM      8  H   UNL     1       4.166   6.366  19.569  0.00  0.00    +0.000 HD
ENDBRANCH   1   2
BRANCH   1  12
ATOM      9  C   UNL     1       1.297   9.842  19.507  0.00  0.00    +0.000 A 
ATOM     10  C   UNL     1       1.552   9.684  18.148  0.00  0.00    +0.000 A 
ATOM     11  C   UNL     1       1.991   8.442  17.669  0.00  0.00    +0.000 A 
ATOM     12  C   UNL     1       2.221   7.357  18.542  0.00  0.00    +0.000 A 
ATOM     13  C   UNL     1       1.944   7.551  19.907  0.00  0.00    +0.000 A 
ATOM     14  C   UNL     1       1.464   8.774  20.387  0.00  0.00    +0.000 A 
BRANCH   9  15
ATOM     15  S   UNL     1       0.717  11.394  20.121  0.00  0.00    +0.000 S 
ATOM     16  O   UNL     1       0.903  12.402  19.119  0.00  0.00    +0.000 OA
ATOM     17  O   UNL     1       1.167  11.564  21.492  0.00  0.00    +0.000 OA
BRANCH  15  18
ATOM     18  N   UNL     1      -0.935  11.103  20.249  0.00  0.00    +0.000 NA
ATOM     19  H   UNL     1      -1.435  11.987  20.132  0.00  0.00    +0.000 HD
ATOM     20  H   UNL     1      -1.149  10.641  21.129  0.00  0.00    +0.000 HD
ENDBRANCH  15  18
ENDBRANCH   9  15
ENDBRANCH   1  12
BRANCH   1  21
ATOM     21  C   UNL     1       1.907   4.836  17.919  0.00  0.00    +0.000 C 
ATOM     22  O   UNL     1       1.161   4.541  16.978  0.00  0.00    +0.000 OA
BRANCH  21  23
ATOM     23  C   UNL     1       1.898   3.908  19.085  0.00  0.00    +0.000 A 
ATOM     24  C   UNL     1       1.107   4.189  20.204  0.00  0.00    +0.000 A 
ATOM     25  C   UNL     1       1.170   3.372  21.331  0.00  0.00    +0.000 A 
ATOM     26  C   UNL     1       2.010   2.265  21.334  0.00  0.00    +0.000 A 
ATOM     27  F   UNL     1       2.099   1.512  22.437  0.00  0.00    +0.000 F 
ATOM     28  C   UNL     1       2.765   1.938  20.212  0.00  0.00    +0.000 A 
ATOM     29  C   UNL     1       2.701   2.752  19.077  0.00  0.00    +0.000 A 
ENDBRANCH  21  23
ENDBRANCH   1  21
TORSDOF 6
ENDMDL
MODEL 6
REMARK VINA RESULT:      -7.5      1.405      1.698
REMARK  Name = 
REMARK  6 active torsions:
REMARK  status: ('A' for Active; 'I' for Inactive)
REMARK    1  A    between atoms: N_1  and  S_2
REMARK    2  A    between atoms: S_2  and  C_5
REMARK    3  A    between atoms: C_8  and  C_9
REMARK    4  A    between atoms: C_9  and  N_10
REMARK    5  A    between atoms: C_9  and  C_16
REMARK    6  A    between atoms: C_16  and  C_18
REMARK                            x       y       z     vdW  Elec       q    Type
REMARK                         _______ _______ _______ _____ _____    ______ ____
ROOT
ATOM      1  C   UNL     1       3.722   5.302  17.513  0.00  0.00    +0.000 C 
ENDROOT
BRANCH   1   2
ATOM      2  N   UNL     1       5.037   5.075  18.134  0.00  0.00    +0.000 N 
ATOM      3  C   UNL     1       6.051   5.965  17.970  0.00  0.00    +0.000 A 
ATOM      4  N   UNL     1       6.247   6.731  16.919  0.00  0.00    +0.000 NA
ATOM      5  C   UNL     1       7.398   7.491  17.087  0.00  0.00    +0.000 A 
ATOM      6  C   UNL     1       8.062   7.313  18.280  0.00  0.00    +0.000 A 
ATOM      7  S   UNL     1       7.252   6.122  19.203  0.00  0.00    +0.000 S 
ATOM      8  H   UNL     1       4.970   4.661  19.059  0.00  0.00    +0.000 HD
ENDBRANCH   1   2
BRANCH   1  12
ATOM      9  C   UNL     1       1.711   8.691  19.367  0.00  0.00    +0.000 A 
ATOM     10  C   UNL     1       2.022   7.559  20.115  0.00  0.00    +0.000 A 
ATOM     11  C   UNL     1       2.726   6.507  19.514  0.00  0.00    +0.000 A 
ATOM     12  C   UNL     1       3.092   6.553  18.151  0.00  0.00    +0.000 A 
ATOM     13  C   UNL     1       2.769   7.716  17.430  0.00  0.00    +0.000 A 
ATOM     14  C   UNL     1       2.104   8.788  18.034  0.00  0.00    +0.000 A 
BRANCH   9  15
ATOM     15  S   UNL     1       0.847  10.036  20.120  0.00  0.00    +0.000 S 
ATOM     16  O   UNL     1      -0.563   9.780  20.079  0.00  0.00    +0.000 OA
ATOM     17  O   UNL     1       1.427  11.290  19.668  0.00  0.00    +0.000 OA
BRANCH  15  18
ATOM     18  N   UNL     1       1.342   9.893  21.722  0.00  0.00    +0.000 NA
ATOM     19  H   UNL     1       0.664   9.318  22.226  0.00  0.00    +0.000 HD
ATOM     20  H   UNL     1       1.470  10.811  22.139  0.00  0.00    +0.000 HD
ENDBRANCH  15  18
ENDBRANCH   9  15
ENDBRANCH   1  12
BRANCH   1  21
ATOM     21  C   UNL     1       2.869   4.002  17.611  0.00  0.00    +0.000 C 
ATOM     22  O   UNL     1       2.541   3.283  16.662  0.00  0.00    +0.000 OA
BRANCH  21  23
ATOM     23  C   UNL     1       2.413   3.564  18.961  0.00  0.00    +0.000 A 
ATOM     24  C   UNL     1       3.333   3.060  19.886  0.00  0.00    +0.000 A 
ATOM     25  C   UNL     1       2.894   2.564  21.113  0.00  0.00    +0.000 A 
ATOM     26  C   UNL     1       1.540   2.589  21.421  0.00  0.00    +0.000 A 
ATOM     27  F   UNL     1       1.122   2.069  22.582  0.00  0.00    +0.000 F 
ATOM     28  C   UNL     1       0.615   3.135  20.537  0.00  0.00    +0.000 A 
ATOM     29  C   UNL     1       1.051   3.638  19.307  0.00  0.00    +0.000 A 
ENDBRANCH  21  23
ENDBRANCH   1  21
TORSDOF 6
ENDMDL
MODEL 7
REMARK VINA RESULT:      -7.5      2.683      6.362
REMARK  Name = 
REMARK  6 active torsions:
REMARK  status: ('A' for Active; 'I' for Inactive)
REMARK    1  A    between atoms: N_1  and  S_2
REMARK    2  A    between atoms: S_2  and  C_5
REMARK    3  A    between atoms: C_8  and  C_9
REMARK    4  A    between atoms: C_9  and  N_10
REMARK    5  A    between atoms: C_9  and  C_16
REMARK    6  A    between atoms: C_16  and  C_18
REMARK                            x       y       z     vdW  Elec       q    Type
REMARK                         _______ _______ _______ _____ _____    ______ ____
ROOT
ATOM      1  C   UNL     1       2.680   6.970  19.627  0.00  0.00    +0.000 C 
ENDROOT
BRANCH   1   2
ATOM      2  N   UNL     1       1.919   7.943  18.826  0.00  0.00    +0.000 N 
ATOM      3  C   UNL     1       1.466   9.099  19.377  0.00  0.00    +0.000 A 
ATOM      4  N   UNL     1       1.117   9.274  20.633  0.00  0.00    +0.000 NA
ATOM      5  C   UNL     1       0.674  10.577  20.831  0.00  0.00    +0.000 A 
ATOM      6  C   UNL     1       0.710  11.394  19.723  0.00  0.00    +0.000 A 
ATOM      7  S   UNL     1       1.267  10.496  18.378  0.00  0.00    +0.000 S 
ATOM      8  H   UNL     1       2.260   8.021  17.873  0.00  0.00    +0.000 HD
ENDBRANCH   1   2
BRANCH   1  12
ATOM      9  C   UNL     1       5.883   5.403  17.125  0.00  0.00    +0.000 A 
ATOM     10  C   UNL     1       4.832   6.119  16.560  0.00  0.00    +0.000 A 
ATOM     11  C   UNL     1       3.846   6.669  17.391  0.00  0.00    +0.000 A 
ATOM     12  C   UNL     1       3.873   6.476  18.789  0.00  0.00    +0.000 A 
ATOM     13  C   UNL     1       4.955   5.755  19.325  0.00  0.00    +0.000 A 
ATOM     14  C   UNL     1       5.965   5.241  18.506  0.00  0.00    +0.000 A 
BRANCH   9  15
ATOM     15  S   UNL     1       7.147   4.728  16.091  0.00  0.00    +0.000 S 
ATOM     16  O   UNL     1       8.190   4.184  16.909  0.00  0.00    +0.000 OA
ATOM     17  O   UNL     1       7.411   5.647  14.997  0.00  0.00    +0.000 OA
BRANCH  15  18
ATOM     18  N   UNL     1       6.337   3.438  15.377  0.00  0.00    +0.000 NA
ATOM     19  H   UNL     1       5.520   3.206  15.946  0.00  0.00    +0.000 HD
ATOM     20  H   UNL     1       6.966   2.650  15.246  0.00  0.00    +0.000 HD
ENDBRANCH  15  18
ENDBRANCH   9  15
ENDBRANCH   1  12
BRANCH   1  21
ATOM     21  C   UNL     1       1.720   5.856  20.141  0.00  0.00    +0.000 C 
ATOM     22  O   UNL     1       0.714   6.036  20.835  0.00  0.00    +0.000 OA
BRANCH  21  23
ATOM     23  C   UNL     1       2.017   4.445  19.760  0.00  0.00    +0.000 A 
ATOM     24  C   UNL     1       2.700   3.606  20.645  0.00  0.00    +0.000 A 
ATOM     25  C   UNL     1       3.059   2.317  20.254  0.00  0.00    +0.000 A 
ATOM     26  C   UNL     1       2.722   1.863  18.985  0.00  0.00    +0.000 A 
ATOM     27  F   UNL     1       3.112   0.641  18.601  0.00  0.00    +0.000 F 
ATOM     28  C   UNL     1       1.997   2.664  18.108  0.00  0.00    +0.000 A 
ATOM     29  C   UNL     1       1.630   3.956  18.499  0.00  0.00    +0.000 A 
ENDBRANCH  21  23
ENDBRANCH   1  21
TORSDOF 6
ENDMDL
MODEL 8
REMARK VINA RESULT:      -7.5      0.774      1.221
REMARK  Name = 
REMARK  6 active torsions:
REMARK  status: ('A' for Active; 'I' for Inactive)
REMARK    1  A    between atoms: N_1  and  S_2
REMARK    2  A    between atoms: S_2  and  C_5
REMARK    3  A    between atoms: C_8  and  C_9
REMARK    4  A    between atoms: C_9  and  N_10
REMARK    5  A    between atoms: C_9  and  C_16
REMARK    6  A    between atoms: C_16  and  C_18
REMARK                            x       y       z     vdW  Elec       q    Type
REMARK                         _______ _______ _______ _____ _____    ______ ____
ROOT
ATOM      1  C   UNL     1       3.134   5.884  17.832  0.00  0.00    +0.000 C 
ENDROOT
BRANCH   1   2
ATOM      2  N   UNL     1       4.485   5.712  18.390  0.00  0.00    +0.000 N 
ATOM      3  C   UNL     1       5.508   5.264  17.617  0.00  0.00    +0.000 A 
ATOM      4  N   UNL     1       5.405   4.445  16.593  0.00  0.00    +0.000 NA
ATOM      5  C   UNL     1       6.662   4.181  16.061  0.00  0.00    +0.000 A 
ATOM      6  C   UNL     1       7.715   4.823  16.672  0.00  0.00    +0.000 A 
ATOM      7  S   UNL     1       7.127   5.746  17.987  0.00  0.00    +0.000 S 
ATOM      8  H   UNL     1       4.730   6.437  19.058  0.00  0.00    +0.000 HD
ENDBRANCH   1   2
BRANCH   1  12
ATOM      9  C   UNL     1       1.269   9.106  20.094  0.00  0.00    +0.000 A 
ATOM     10  C   UNL     1       1.451   9.222  18.719  0.00  0.00    +0.000 A 
ATOM     11  C   UNL     1       1.995   8.147  18.002  0.00  0.00    +0.000 A 
ATOM     12  C   UNL     1       2.401   6.962  18.651  0.00  0.00    +0.000 A 
ATOM     13  C   UNL     1       2.193   6.877  20.040  0.00  0.00    +0.000 A 
ATOM     14  C   UNL     1       1.612   7.928  20.755  0.00  0.00    +0.000 A 
BRANCH   9  15
ATOM     15  S   UNL     1       0.560  10.442  21.006  0.00  0.00    +0.000 S 
ATOM     16  O   UNL     1      -0.819  10.588  20.642  0.00  0.00    +0.000 OA
ATOM     17  O   UNL     1       1.487  11.561  21.014  0.00  0.00    +0.000 OA
BRANCH  15  18
ATOM     18  N   UNL     1       0.610   9.837  22.575  0.00  0.00    +0.000 NA
ATOM     19  H   UNL     1       1.064   8.921  22.560  0.00  0.00    +0.000 HD
ATOM     20  H   UNL     1      -0.323   9.810  22.977  0.00  0.00    +0.000 HD
ENDBRANCH  15  18
ENDBRANCH   9  15
ENDBRANCH   1  12
BRANCH   1  21
ATOM     21  C   UNL     1       2.420   4.501  17.762  0.00  0.00    +0.000 C 
ATOM     22  O   UNL     1       2.065   3.926  16.727  0.00  0.00    +0.000 OA
BRANCH  21  23
ATOM     23  C   UNL     1       2.146   3.789  19.042  0.00  0.00    +0.000 A 
ATOM     24  C   UNL     1       0.830   3.594  19.472  0.00  0.00    +0.000 A 
ATOM     25  C   UNL     1       0.576   3.011  20.712  0.00  0.00    +0.000 A 
ATOM     26  C   UNL     1       1.637   2.609  21.515  0.00  0.00    +0.000 A 
ATOM     27  F   UNL     1       1.385   2.093  22.724  0.00  0.00    +0.000 F 
ATOM     28  C   UNL     1       2.952   2.746  21.082  0.00  0.00    +0.000 A 
ATOM     29  C   UNL     1       3.211   3.325  19.836  0.00  0.00    +0.000 A 
ENDBRANCH  21  23
ENDBRANCH   1  21
TORSDOF 6
ENDMDL
MODEL 9
REMARK VINA RESULT:      -7.4      0.684      1.484
REMARK  Name = 
REMARK  6 active torsions:
REMARK  status: ('A' for Active; 'I' for Inactive)
REMARK    1  A    between atoms: N_1  and  S_2
REMARK    2  A    between atoms: S_2  and  C_5
REMARK    3  A    between atoms: C_8  and  C_9
REMARK    4  A    between atoms: C_9  and  N_10
REMARK    5  A    between atoms: C_9  and  C_16
REMARK    6  A    between atoms: C_16  and  C_18
REMARK                            x       y       z     vdW  Elec       q    Type
REMARK                         _______ _______ _______ _____ _____    ______ ____
ROOT
ATOM      1  C   UNL     1       2.656   6.345  17.882  0.00  0.00    +0.000 C 
ENDROOT
BRANCH   1   2
ATOM      2  N   UNL     1       4.054   6.181  18.313  0.00  0.00    +0.000 N 
ATOM      3  C   UNL     1       5.020   5.822  17.428  0.00  0.00    +0.000 A 
ATOM      4  N   UNL     1       4.854   5.070  16.362  0.00  0.00    +0.000 NA
ATOM      5  C   UNL     1       6.068   4.885  15.711  0.00  0.00    +0.000 A 
ATOM      6  C   UNL     1       7.151   5.520  16.276  0.00  0.00    +0.000 A 
ATOM      7  S   UNL     1       6.650   6.332  17.696  0.00  0.00    +0.000 S 
ATOM      8  H   UNL     1       4.335   6.867  19.007  0.00  0.00    +0.000 HD
ENDBRANCH   1   2
BRANCH   1  12
ATOM      9  C   UNL     1       1.054   9.695  20.158  0.00  0.00    +0.000 A 
ATOM     10  C   UNL     1       1.117   9.750  18.769  0.00  0.00    +0.000 A 
ATOM     11  C   UNL     1       1.576   8.636  18.053  0.00  0.00    +0.000 A 
ATOM     12  C   UNL     1       2.017   7.470  18.715  0.00  0.00    +0.000 A 
ATOM     13  C   UNL     1       1.930   7.446  20.118  0.00  0.00    +0.000 A 
ATOM     14  C   UNL     1       1.432   8.538  20.836  0.00  0.00    +0.000 A 
BRANCH   9  15
ATOM     15  S   UNL     1       0.451  11.082  21.070  0.00  0.00    +0.000 S 
ATOM     16  O   UNL     1      -0.888  11.381  20.652  0.00  0.00    +0.000 OA
ATOM     17  O   UNL     1       1.490  12.095  21.144  0.00  0.00    +0.000 OA
BRANCH  15  18
ATOM     18  N   UNL     1       0.366  10.445  22.625  0.00  0.00    +0.000 NA
ATOM     19  H   UNL     1       0.863   9.552  22.643  0.00  0.00    +0.000 HD
ATOM     20  H   UNL     1      -0.601  10.366  22.926  0.00  0.00    +0.000 HD
ENDBRANCH  15  18
ENDBRANCH   9  15
ENDBRANCH   1  12
BRANCH   1  21
ATOM     21  C   UNL     1       1.927   4.969  17.950  0.00  0.00    +0.000 C 
ATOM     22  O   UNL     1       1.213   4.488  17.063  0.00  0.00    +0.000 OA
BRANCH  21  23
ATOM     23  C   UNL     1       2.106   4.142  19.177  0.00  0.00    +0.000 A 
ATOM     24  C   UNL     1       3.275   3.398  19.361  0.00  0.00    +0.000 A 
ATOM     25  C   UNL     1       3.404   2.553  20.462  0.00  0.00    +0.000 A 
ATOM     26  C   UNL     1       2.371   2.465  21.386  0.00  0.00    +0.000 A 
ATOM     27  F   UNL     1       2.482   1.616  22.416  0.00  0.00    +0.000 F 
ATOM     28  C   UNL     1       1.221   3.236  21.250  0.00  0.00    +0.000 A 
ATOM     29  C   UNL     1       1.090   4.090  20.150  0.00  0.00    +0.000 A 
ENDBRANCH  21  23
ENDBRANCH   1  21
TORSDOF 6
ENDMDL
