MODEL 1
REMARK VINA RESULT:      -7.5      0.000      0.000
REMARK  Name = 
REMARK  8 active torsions:
REMARK  status: ('A' for Active; 'I' for Inactive)
REMARK    1  A    between atoms: P_2  and  O_3
REMARK    2  A    between atoms: P_2  and  O_4
REMARK    3  A    between atoms: P_2  and  C_5
REMARK    4  A    between atoms: C_5  and  C_8
REMARK    5  A    between atoms: C_11  and  C_12
REMARK    6  A    between atoms: C_12  and  P_15
REMARK    7  A    between atoms: P_15  and  O_17
REMARK    8  A    between atoms: P_15  and  O_18
REMARK                            x       y       z     vdW  Elec       q    Type
REMARK                         _______ _______ _______ _____ _____    ______ ____
ROOT
ATOM      1  C   UNL     1       4.432   4.076  16.657  0.00  0.00    +0.000 A 
ATOM      2  C   UNL     1       3.965   2.766  16.850  0.00  0.00    +0.000 A 
ATOM      3  C   UNL     1       2.971   2.485  17.793  0.00  0.00    +0.000 A 
ATOM      4  C   UNL     1       2.420   3.510  18.570  0.00  0.00    +0.000 A 
ATOM      5  C   UNL     1       2.842   4.829  18.336  0.00  0.00    +0.000 A 
ATOM      6  C   UNL     1       3.835   5.110  17.390  0.00  0.00    +0.000 A 
ENDROOT
BRANCH   1   7
ATOM      7  C   UNL     1       5.554   4.348  15.670  0.00  0.00    +0.000 C 
ATOM      8  F   UNL     1       5.105   4.652  14.421  0.00  0.00    +0.000 F 
ATOM      9  F   UNL     1       6.402   3.285  15.532  0.00  0.00    +0.000 F 
BRANCH   7  11
ATOM     10  O   UNL     1       7.753   6.768  16.519  0.00  0.00    +0.000 OA
ATOM     11  P   UNL     1       6.746   5.659  16.130  0.00  0.00    +0.000 P 
BRANCH  11  12
ATOM     12  O   UNL     1       7.494   5.514  14.660  0.00  0.00    +0.000 OA
ATOM     13  H   UNL     1       7.049   4.783  14.185  0.00  0.00    +0.000 HD
ENDBRANCH  11  12
BRANCH  11  14
ATOM     14  O   UNL     1       7.694   4.559  16.923  0.00  0.00    +0.000 OA
ATOM     15  H   UNL     1       7.100   3.955  17.410  0.00  0.00    +0.000 HD
ENDBRANCH  11  14
ENDBRANCH   7  11
ENDBRANCH   1   7
BRANCH   4  16
ATOM     16  C   UNL     1       1.499   3.184  19.714  0.00  0.00    +0.000 C 
ATOM     17  F   UNL     1       0.483   4.089  19.836  0.00  0.00    +0.000 F 
ATOM     18  F   UNL     1       0.872   1.972  19.606  0.00  0.00    +0.000 F 
BRANCH  16  19
ATOM     19  P   UNL     1       2.069   3.103  21.427  0.00  0.00    +0.000 P 
ATOM     20  O   UNL     1       1.160   2.497  22.449  0.00  0.00    +0.000 OA
BRANCH  19  21
ATOM     21  O   UNL     1       3.515   2.374  21.379  0.00  0.00    +0.000 OA
ATOM     22  H   UNL     1       4.035   2.498  22.200  0.00  0.00    +0.000 HD
ENDBRANCH  19  21
BRANCH  19  23
ATOM     23  O   UNL     1       2.561   4.575  21.870  0.00  0.00    +0.000 OA
ATOM     24  H   UNL     1       1.792   5.146  22.051  0.00  0.00    +0.000 HD
ENDBRANCH  19  23
ENDBRANCH  16  19
ENDBRANCH   4  16
TORSDOF 8
ENDMDL
MODEL 2
REMARK VINA RESULT:      -7.4      1.292      6.554
REMARK  Name = 
REMARK  8 active torsions:
REMARK  status: ('A' for Active; 'I' for Inactive)
REMARK    1  A    between atoms: P_2  and  O_3
REMARK    2  A    between atoms: P_2  and  O_4
REMARK    3  A    between atoms: P_2  and  C_5
REMARK    4  A    between atoms: C_5  and  C_8
REMARK    5  A    between atoms: C_11  and  C_12
REMARK    6  A    between atoms: C_12  and  P_15
REMARK    7  A    between atoms: P_15  and  O_17
REMARK    8  A    between atoms: P_15  and  O_18
REMARK                            x       y       z     vdW  Elec       q    Type
REMARK                         _______ _______ _______ _____ _____    ______ ____
ROOT
ATOM      1  C   UNL     1       2.388   4.264  18.556  0.00  0.00    +0.000 A 
ATOM      2  C   UNL     1       2.738   5.623  18.607  0.00  0.00    +0.000 A 
ATOM      3  C   UNL     1       3.711   6.151  17.752  0.00  0.00    +0.000 A 
ATOM      4  C   UNL     1       4.361   5.328  16.824  0.00  0.00    +0.000 A 
ATOM      5  C   UNL     1       3.969   3.983  16.730  0.00  0.00    +0.000 A 
ATOM      6  C   UNL     1       2.993   3.456  17.585  0.00  0.00    +0.000 A 
ENDROOT
BRANCH   1   7
ATOM      7  C   UNL     1       1.372   3.702  19.535  0.00  0.00    +0.000 C 
ATOM      8  F   UNL     1       0.541   2.779  18.973  0.00  0.00    +0.000 F 
ATOM      9  F   UNL     1       0.571   4.669  20.077  0.00  0.00    +0.000 F 
BRANCH   7  11
ATOM     10  O   UNL     1       2.607   2.298  22.348  0.00  0.00    +0.000 OA
ATOM     11  P   UNL     1       2.041   2.941  21.059  0.00  0.00    +0.000 P 
BRANCH  11  12
ATOM     12  O   UNL     1       2.410   4.438  21.662  0.00  0.00    +0.000 OA
ATOM     13  H   UNL     1       2.878   4.297  22.510  0.00  0.00    +0.000 HD
ENDBRANCH  11  12
BRANCH  11  14
ATOM     14  O   UNL     1       3.500   2.681  20.323  0.00  0.00    +0.000 OA
ATOM     15  H   UNL     1       3.465   1.797  19.905  0.00  0.00    +0.000 HD
ENDBRANCH  11  14
ENDBRANCH   7  11
ENDBRANCH   1   7
BRANCH   4  16
ATOM     16  C   UNL     1       5.539   5.847  16.045  0.00  0.00    +0.000 C 
ATOM     17  F   UNL     1       5.183   6.301  14.806  0.00  0.00    +0.000 F 
ATOM     18  F   UNL     1       6.181   6.905  16.630  0.00  0.00    +0.000 F 
BRANCH  16  19
ATOM     19  P   UNL     1       6.953   4.807  15.616  0.00  0.00    +0.000 P 
ATOM     20  O   UNL     1       7.842   4.327  16.720  0.00  0.00    +0.000 OA
BRANCH  19  21
ATOM     21  O   UNL     1       6.357   3.589  14.731  0.00  0.00    +0.000 OA
ATOM     22  H   UNL     1       5.455   3.319  15.007  0.00  0.00    +0.000 HD
ENDBRANCH  19  21
BRANCH  19  23
ATOM     23  O   UNL     1       7.797   5.549  14.457  0.00  0.00    +0.000 OA
ATOM     24  H   UNL     1       8.220   6.353  14.811  0.00  0.00    +0.000 HD
ENDBRANCH  19  23
ENDBRANCH  16  19
ENDBRANCH   4  16
TORSDOF 8
ENDMDL
MODEL 3
REMARK VINA RESULT:      -7.3      0.932      6.653
REMARK  Name = 
REMARK  8 active torsions:
REMARK  status: ('A' for Active; 'I' for Inactive)
REMARK    1  A    between atoms: P_2  and  O_3
REMARK    2  A    between atoms: P_2  and  O_4
REMARK    3  A    between atoms: P_2  and  C_5
REMARK    4  A    between atoms: C_5  and  C_8
REMARK    5  A    between atoms: C_11  and  C_12
REMARK    6  A    between atoms: C_12  and  P_15
REMARK    7  A    between atoms: P_15  and  O_17
REMARK    8  A    between atoms: P_15  and  O_18
REMARK                            x       y       z     vdW  Elec       q    Type
REMARK                         _______ _______ _______ _____ _____    ______ ____
ROOT
ATOM      1  C   UNL     1       2.383   4.225  18.567  0.00  0.00    +0.000 A 
ATOM      2  C   UNL     1       2.718   5.588  18.500  0.00  0.00    +0.000 A 
ATOM      3  C   UNL     1       3.618   6.063  17.541  0.00  0.00    +0.000 A 
ATOM      4  C   UNL     1       4.209   5.184  16.626  0.00  0.00    +0.000 A 
ATOM      5  C   UNL     1       3.830   3.833  16.653  0.00  0.00    +0.000 A 
ATOM      6  C   UNL     1       2.926   3.358  17.612  0.00  0.00    +0.000 A 
ENDROOT
BRANCH   1   7
ATOM      7  C   UNL     1       1.449   3.723  19.655  0.00  0.00    +0.000 C 
ATOM      8  F   UNL     1       0.496   2.868  19.189  0.00  0.00    +0.000 F 
ATOM      9  F   UNL     1       0.786   4.737  20.289  0.00  0.00    +0.000 F 
BRANCH   7  11
ATOM     10  O   UNL     1       2.897   2.203  22.301  0.00  0.00    +0.000 OA
ATOM     11  P   UNL     1       2.234   2.900  21.089  0.00  0.00    +0.000 P 
BRANCH  11  12
ATOM     12  O   UNL     1       0.747   2.635  21.769  0.00  0.00    +0.000 OA
ATOM     13  H   UNL     1       0.606   3.345  22.429  0.00  0.00    +0.000 HD
ENDBRANCH  11  12
BRANCH  11  14
ATOM     14  O   UNL     1       2.506   4.361  21.816  0.00  0.00    +0.000 OA
ATOM     15  H   UNL     1       2.903   4.953  21.147  0.00  0.00    +0.000 HD
ENDBRANCH  11  14
ENDBRANCH   7  11
ENDBRANCH   1   7
BRANCH   4  16
ATOM     16  C   UNL     1       5.321   5.658  15.728  0.00  0.00    +0.000 C 
ATOM     17  F   UNL     1       5.295   5.049  14.506  0.00  0.00    +0.000 F 
ATOM     18  F   UNL     1       5.288   6.998  15.449  0.00  0.00    +0.000 F 
BRANCH  16  19
ATOM     19  P   UNL     1       7.065   5.459  16.155  0.00  0.00    +0.000 P 
ATOM     20  O   UNL     1       7.444   4.360  17.097  0.00  0.00    +0.000 OA
BRANCH  19  21
ATOM     21  O   UNL     1       7.858   5.363  14.745  0.00  0.00    +0.000 OA
ATOM     22  H   UNL     1       8.822   5.220  14.856  0.00  0.00    +0.000 HD
ENDBRANCH  19  21
BRANCH  19  23
ATOM     23  O   UNL     1       7.634   6.886  16.650  0.00  0.00    +0.000 OA
ATOM     24  H   UNL     1       8.055   7.356  15.907  0.00  0.00    +0.000 HD
ENDBRANCH  19  23
ENDBRANCH  16  19
ENDBRANCH   4  16
TORSDOF 8
ENDMDL
MODEL 4
REMARK VINA RESULT:      -7.3      1.339      6.576
REMARK  Name = 
REMARK  8 active torsions:
REMARK  status: ('A' for Active; 'I' for Inactive)
REMARK    1  A    between atoms: P_2  and  O_3
REMARK    2  A    between atoms: P_2  and  O_4
REMARK    3  A    between atoms: P_2  and  C_5
REMARK    4  A    between atoms: C_5  and  C_8
REMARK    5  A    between atoms: C_11  and  C_12
REMARK    6  A    between atoms: C_12  and  P_15
REMARK    7  A    between atoms: P_15  and  O_17
REMARK    8  A    between atoms: P_15  and  O_18
REMARK                            x       y       z     vdW  Elec       q    Type
REMARK                         _______ _______ _______ _____ _____    ______ ____
ROOT
ATOM      1  C   UNL     1       2.381   4.337  18.590  0.00  0.00    +0.000 A 
ATOM      2  C   UNL     1       2.780   5.682  18.651  0.00  0.00    +0.000 A 
ATOM      3  C   UNL     1       3.756   6.185  17.785  0.00  0.00    +0.000 A 
ATOM      4  C   UNL     1       4.362   5.352  16.837  0.00  0.00    +0.000 A 
ATOM      5  C   UNL     1       3.921   4.023  16.734  0.00  0.00    +0.000 A 
ATOM      6  C   UNL     1       2.941   3.520  17.600  0.00  0.00    +0.000 A 
ENDROOT
BRANCH   1   7
ATOM      7  C   UNL     1       1.362   3.799  19.580  0.00  0.00    +0.000 C 
ATOM      8  F   UNL     1       0.483   2.923  19.018  0.00  0.00    +0.000 F 
ATOM      9  F   UNL     1       0.614   4.788  20.155  0.00  0.00    +0.000 F 
BRANCH   7  11
ATOM     10  O   UNL     1       2.594   2.293  22.341  0.00  0.00    +0.000 OA
ATOM     11  P   UNL     1       2.029   2.983  21.076  0.00  0.00    +0.000 P 
BRANCH  11  12
ATOM     12  O   UNL     1       2.439   4.455  21.713  0.00  0.00    +0.000 OA
ATOM     13  H   UNL     1       1.605   4.950  21.845  0.00  0.00    +0.000 HD
ENDBRANCH  11  12
BRANCH  11  14
ATOM     14  O   UNL     1       3.474   2.708  20.316  0.00  0.00    +0.000 OA
ATOM     15  H   UNL     1       3.696   3.512  19.807  0.00  0.00    +0.000 HD
ENDBRANCH  11  14
ENDBRANCH   7  11
ENDBRANCH   1   7
BRANCH   4  16
ATOM     16  C   UNL     1       5.545   5.838  16.044  0.00  0.00    +0.000 C 
ATOM     17  F   UNL     1       5.172   6.489  14.902  0.00  0.00    +0.000 F 
ATOM     18  F   UNL     1       6.340   6.732  16.708  0.00  0.00    +0.000 F 
BRANCH  16  19
ATOM     19  P   UNL     1       6.799   4.717  15.385  0.00  0.00    +0.000 P 
ATOM     20  O   UNL     1       6.344   3.525  14.602  0.00  0.00    +0.000 OA
BRANCH  19  21
ATOM     21  O   UNL     1       7.830   5.646  14.549  0.00  0.00    +0.000 OA
ATOM     22  H   UNL     1       8.649   5.853  15.045  0.00  0.00    +0.000 HD
ENDBRANCH  19  21
BRANCH  19  23
ATOM     23  O   UNL     1       7.786   4.293  16.589  0.00  0.00    +0.000 OA
ATOM     24  H   UNL     1       8.039   3.356  16.502  0.00  0.00    +0.000 HD
ENDBRANCH  19  23
ENDBRANCH  16  19
ENDBRANCH   4  16
TORSDOF 8
ENDMDL
MODEL 5
REMARK VINA RESULT:      -7.3      1.875      2.485
REMARK  Name = 
REMARK  8 active torsions:
REMARK  status: ('A' for Active; 'I' for Inactive)
REMARK    1  A    between atoms: P_2  and  O_3
REMARK    2  A    between atoms: P_2  and  O_4
REMARK    3  A    between atoms: P_2  and  C_5
REMARK    4  A    between atoms: C_5  and  C_8
REMARK    5  A    between atoms: C_11  and  C_12
REMARK    6  A    between atoms: C_12  and  P_15
REMARK    7  A    between atoms: P_15  and  O_17
REMARK    8  A    between atoms: P_15  and  O_18
REMARK                            x       y       z     vdW  Elec       q    Type
REMARK                         _______ _______ _______ _____ _____    ______ ____
ROOT
ATOM      1  C   UNL     1       5.096   4.946  17.012  0.00  0.00    +0.000 A 
ATOM      2  C   UNL     1       3.846   4.363  16.747  0.00  0.00    +0.000 A 
ATOM      3  C   UNL     1       3.150   3.666  17.740  0.00  0.00    +0.000 A 
ATOM      4  C   UNL     1       3.691   3.532  19.024  0.00  0.00    +0.000 A 
ATOM      5  C   UNL     1       4.912   4.164  19.307  0.00  0.00    +0.000 A 
ATOM      6  C   UNL     1       5.607   4.865  18.313  0.00  0.00    +0.000 A 
ENDROOT
BRANCH   1   7
ATOM      7  C   UNL     1       5.860   5.646  15.901  0.00  0.00    +0.000 C 
ATOM      8  F   UNL     1       7.051   6.164  16.316  0.00  0.00    +0.000 F 
ATOM      9  F   UNL     1       5.157   6.679  15.348  0.00  0.00    +0.000 F 
BRANCH   7  11
ATOM     10  O   UNL     1       6.515   3.817  13.138  0.00  0.00    +0.000 OA
ATOM     11  P   UNL     1       6.215   4.655  14.404  0.00  0.00    +0.000 P 
BRANCH  11  12
ATOM     12  O   UNL     1       6.610   3.350  15.344  0.00  0.00    +0.000 OA
ATOM     13  H   UNL     1       6.888   2.635  14.736  0.00  0.00    +0.000 HD
ENDBRANCH  11  12
BRANCH  11  14
ATOM     14  O   UNL     1       7.744   5.282  14.317  0.00  0.00    +0.000 OA
ATOM     15  H   UNL     1       8.285   4.835  14.998  0.00  0.00    +0.000 HD
ENDBRANCH  11  14
ENDBRANCH   7  11
ENDBRANCH   1   7
BRANCH   4  16
ATOM     16  C   UNL     1       3.041   2.621  20.030  0.00  0.00    +0.000 C 
ATOM     17  F   UNL     1       2.468   1.527  19.445  0.00  0.00    +0.000 F 
ATOM     18  F   UNL     1       3.901   2.104  20.962  0.00  0.00    +0.000 F 
BRANCH  16  19
ATOM     19  P   UNL     1       1.690   3.162  21.101  0.00  0.00    +0.000 P 
ATOM     20  O   UNL     1       1.498   2.463  22.410  0.00  0.00    +0.000 OA
BRANCH  19  21
ATOM     21  O   UNL     1       1.878   4.762  21.278  0.00  0.00    +0.000 OA
ATOM     22  H   UNL     1       1.615   5.270  20.482  0.00  0.00    +0.000 HD
ENDBRANCH  19  21
BRANCH  19  23
ATOM     23  O   UNL     1       0.329   3.179  20.233  0.00  0.00    +0.000 OA
ATOM     24  H   UNL     1       0.333   2.449  19.587  0.00  0.00    +0.000 HD
ENDBRANCH  19  23
ENDBRANCH  16  19
ENDBRANCH   4  16
TORSDOF 8
ENDMDL
MODEL 6
REMARK VINA RESULT:      -7.2      0.891      6.695
REMARK  Name = 
REMARK  8 active torsions:
REMARK  status: ('A' for Active; 'I' for Inactive)
REMARK    1  A    between atoms: P_2  and  O_3
REMARK    2  A    between atoms: P_2  and  O_4
REMARK    3  A    between atoms: P_2  and  C_5
REMARK    4  A    between atoms: C_5  and  C_8
REMARK    5  A    between atoms: C_11  and  C_12
REMARK    6  A    between atoms: C_12  and  P_15
REMARK    7  A    between atoms: P_15  and  O_17
REMARK    8  A    between atoms: P_15  and  O_18
REMARK                            x       y       z     vdW  Elec       q    Type
REMARK                         _______ _______ _______ _____ _____    ______ ____
ROOT
ATOM      1  C   UNL     1       2.641   4.155  18.544  0.00  0.00    +0.000 A 
ATOM      2  C   UNL     1       3.318   3.233  17.729  0.00  0.00    +0.000 A 
ATOM      3  C   UNL     1       4.265   3.658  16.792  0.00  0.00    +0.000 A 
ATOM      4  C   UNL     1       4.557   5.019  16.645  0.00  0.00    +0.000 A 
ATOM      5  C   UNL     1       3.925   5.936  17.500  0.00  0.00    +0.000 A 
ATOM      6  C   UNL     1       2.979   5.510  18.441  0.00  0.00    +0.000 A 
ENDROOT
BRANCH   1   7
ATOM      7  C   UNL     1       1.573   3.675  19.513  0.00  0.00    +0.000 C 
ATOM      8  F   UNL     1       0.687   2.810  18.945  0.00  0.00    +0.000 F 
ATOM      9  F   UNL     1       0.837   4.701  20.036  0.00  0.00    +0.000 F 
BRANCH   7  11
ATOM     10  O   UNL     1       2.666   2.209  22.353  0.00  0.00    +0.000 OA
ATOM     11  P   UNL     1       2.165   2.881  21.052  0.00  0.00    +0.000 P 
BRANCH  11  12
ATOM     12  O   UNL     1       0.610   2.769  21.609  0.00  0.00    +0.000 OA
ATOM     13  H   UNL     1       0.631   2.188  22.397  0.00  0.00    +0.000 HD
ENDBRANCH  11  12
BRANCH  11  14
ATOM     14  O   UNL     1       2.490   4.358  21.723  0.00  0.00    +0.000 OA
ATOM     15  H   UNL     1       3.447   4.527  21.613  0.00  0.00    +0.000 HD
ENDBRANCH  11  14
ENDBRANCH   7  11
ENDBRANCH   1   7
BRANCH   4  16
ATOM     16  C   UNL     1       5.424   5.491  15.509  0.00  0.00    +0.000 C 
ATOM     17  F   UNL     1       5.367   4.654  14.431  0.00  0.00    +0.000 F 
ATOM     18  F   UNL     1       5.082   6.720  15.012  0.00  0.00    +0.000 F 
BRANCH  16  19
ATOM     19  P   UNL     1       7.212   5.693  15.671  0.00  0.00    +0.000 P 
ATOM     20  O   UNL     1       7.727   6.875  16.431  0.00  0.00    +0.000 OA
BRANCH  19  21
ATOM     21  O   UNL     1       7.765   4.290  16.265  0.00  0.00    +0.000 OA
ATOM     22  H   UNL     1       8.541   4.402  16.854  0.00  0.00    +0.000 HD
ENDBRANCH  19  21
BRANCH  19  23
ATOM     23  O   UNL     1       7.869   5.602  14.200  0.00  0.00    +0.000 OA
ATOM     24  H   UNL     1       8.611   4.970  14.202  0.00  0.00    +0.000 HD
ENDBRANCH  19  23
ENDBRANCH  16  19
ENDBRANCH   4  16
TORSDOF 8
ENDMDL
MODEL 7
REMARK VINA RESULT:      -7.2      1.049      6.446
REMARK  Name = 
REMARK  8 active torsions:
REMARK  status: ('A' for Active; 'I' for Inactive)
REMARK    1  A    between atoms: P_2  and  O_3
REMARK    2  A    between atoms: P_2  and  O_4
REMARK    3  A    between atoms: P_2  and  C_5
REMARK    4  A    between atoms: C_5  and  C_8
REMARK    5  A    between atoms: C_11  and  C_12
REMARK    6  A    between atoms: C_12  and  P_15
REMARK    7  A    between atoms: P_15  and  O_17
REMARK    8  A    between atoms: P_15  and  O_18
REMARK                            x       y       z     vdW  Elec       q    Type
REMARK                         _______ _______ _______ _____ _____    ______ ____
ROOT
ATOM      1  C   UNL     1       2.182   4.020  18.575  0.00  0.00    +0.000 A 
ATOM      2  C   UNL     1       2.465   5.395  18.596  0.00  0.00    +0.000 A 
ATOM      3  C   UNL     1       3.432   5.946  17.749  0.00  0.00    +0.000 A 
ATOM      4  C   UNL     1       4.143   5.132  16.859  0.00  0.00    +0.000 A 
ATOM      5  C   UNL     1       3.818   3.768  16.794  0.00  0.00    +0.000 A 
ATOM      6  C   UNL     1       2.848   3.217  17.641  0.00  0.00    +0.000 A 
ENDROOT
BRANCH   1   7
ATOM      7  C   UNL     1       1.170   3.435  19.546  0.00  0.00    +0.000 C 
ATOM      8  F   UNL     1       0.372   2.487  18.980  0.00  0.00    +0.000 F 
ATOM      9  F   UNL     1       0.338   4.383  20.073  0.00  0.00    +0.000 F 
BRANCH   7  11
ATOM     10  O   UNL     1       2.413   2.082  22.381  0.00  0.00    +0.000 OA
ATOM     11  P   UNL     1       1.844   2.702  21.082  0.00  0.00    +0.000 P 
BRANCH  11  12
ATOM     12  O   UNL     1       2.161   4.212  21.681  0.00  0.00    +0.000 OA
ATOM     13  H   UNL     1       2.395   4.101  22.625  0.00  0.00    +0.000 HD
ENDBRANCH  11  12
BRANCH  11  14
ATOM     14  O   UNL     1       3.318   2.480  20.364  0.00  0.00    +0.000 OA
ATOM     15  H   UNL     1       3.837   1.882  20.937  0.00  0.00    +0.000 HD
ENDBRANCH  11  14
ENDBRANCH   7  11
ENDBRANCH   1   7
BRANCH   4  16
ATOM     16  C   UNL     1       5.313   5.686  16.093  0.00  0.00    +0.000 C 
ATOM     17  F   UNL     1       5.565   4.982  14.950  0.00  0.00    +0.000 F 
ATOM     18  F   UNL     1       5.152   6.980  15.674  0.00  0.00    +0.000 F 
BRANCH  16  19
ATOM     19  P   UNL     1       6.976   5.777  16.793  0.00  0.00    +0.000 P 
ATOM     20  O   UNL     1       7.729   7.065  16.669  0.00  0.00    +0.000 OA
BRANCH  19  21
ATOM     21  O   UNL     1       6.838   5.289  18.331  0.00  0.00    +0.000 OA
ATOM     22  H   UNL     1       6.479   5.982  18.924  0.00  0.00    +0.000 HD
ENDBRANCH  19  21
BRANCH  19  23
ATOM     23  O   UNL     1       7.835   4.533  16.226  0.00  0.00    +0.000 OA
ATOM     24  H   UNL     1       8.752   4.811  16.048  0.00  0.00    +0.000 HD
ENDBRANCH  19  23
ENDBRANCH  16  19
ENDBRANCH   4  16
TORSDOF 8
ENDMDL
MODEL 8
REMARK VINA RESULT:      -7.2      0.316      1.035
REMARK  Name = 
REMARK  8 active torsions:
REMARK  status: ('A' for Active; 'I' for Inactive)
REMARK    1  A    between atoms: P_2  and  O_3
REMARK    2  A    between atoms: P_2  and  O_4
REMARK    3  A    between atoms: P_2  and  C_5
REMARK    4  A    between atoms: C_5  and  C_8
REMARK    5  A    between atoms: C_11  and  C_12
REMARK    6  A    between atoms: C_12  and  P_15
REMARK    7  A    between atoms: P_15  and  O_17
REMARK    8  A    between atoms: P_15  and  O_18
REMARK                            x       y       z     vdW  Elec       q    Type
REMARK                         _______ _______ _______ _____ _____    ______ ____
ROOT
ATOM      1  C   UNL     1       4.497   4.016  16.625  0.00  0.00    +0.000 A 
ATOM      2  C   UNL     1       4.135   2.670  16.800  0.00  0.00    +0.000 A 
ATOM      3  C   UNL     1       3.163   2.300  17.735  0.00  0.00    +0.000 A 
ATOM      4  C   UNL     1       2.529   3.270  18.522  0.00  0.00    +0.000 A 
ATOM      5  C   UNL     1       2.846   4.620  18.306  0.00  0.00    +0.000 A 
ATOM      6  C   UNL     1       3.818   4.991  17.367  0.00  0.00    +0.000 A 
ENDROOT
BRANCH   1   7
ATOM      7  C   UNL     1       5.598   4.387  15.647  0.00  0.00    +0.000 C 
ATOM      8  F   UNL     1       5.123   4.785  14.433  0.00  0.00    +0.000 F 
ATOM      9  F   UNL     1       6.461   3.355  15.408  0.00  0.00    +0.000 F 
BRANCH   7  11
ATOM     10  O   UNL     1       7.771   6.768  16.657  0.00  0.00    +0.000 OA
ATOM     11  P   UNL     1       6.775   5.677  16.194  0.00  0.00    +0.000 P 
BRANCH  11  12
ATOM     12  O   UNL     1       7.574   5.583  14.747  0.00  0.00    +0.000 OA
ATOM     13  H   UNL     1       7.376   6.409  14.259  0.00  0.00    +0.000 HD
ENDBRANCH  11  12
BRANCH  11  14
ATOM     14  O   UNL     1       7.694   4.547  16.979  0.00  0.00    +0.000 OA
ATOM     15  H   UNL     1       8.585   4.928  17.106  0.00  0.00    +0.000 HD
ENDBRANCH  11  14
ENDBRANCH   7  11
ENDBRANCH   1   7
BRANCH   4  16
ATOM     16  C   UNL     1       1.633   2.858  19.658  0.00  0.00    +0.000 C 
ATOM     17  F   UNL     1       0.393   3.427  19.574  0.00  0.00    +0.000 F 
ATOM     18  F   UNL     1       1.392   1.512  19.727  0.00  0.00    +0.000 F 
BRANCH  16  19
ATOM     19  P   UNL     1       2.033   3.205  21.385  0.00  0.00    +0.000 P 
ATOM     20  O   UNL     1       2.273   4.626  21.787  0.00  0.00    +0.000 OA
BRANCH  19  21
ATOM     21  O   UNL     1       0.862   2.506  22.261  0.00  0.00    +0.000 OA
ATOM     22  H   UNL     1       0.669   1.587  21.980  0.00  0.00    +0.000 HD
ENDBRANCH  19  21
BRANCH  19  23
ATOM     23  O   UNL     1       3.258   2.250  21.825  0.00  0.00    +0.000 OA
ATOM     24  H   UNL     1       3.289   1.460  21.256  0.00  0.00    +0.000 HD
ENDBRANCH  19  23
ENDBRANCH  16  19
ENDBRANCH   4  16
TORSDOF 8
ENDMDL
MODEL 9
REMARK VINA RESULT:      -7.2      0.835      6.517
REMARK  Name = 
REMARK  8 active torsions:
REMARK  status: ('A' for Active; 'I' for Inactive)
REMARK    1  A    between atoms: P_2  and  O_3
REMARK    2  A    between atoms: P_2  and  O_4
REMARK    3  A    between atoms: P_2  and  C_5
REMARK    4  A    between atoms: C_5  and  C_8
REMARK    5  A    between atoms: C_11  and  C_12
REMARK    6  A    between atoms: C_12  and  P_15
REMARK    7  A    between atoms: P_15  and  O_17
REMARK    8  A    between atoms: P_15  and  O_18
REMARK                            x       y       z     vdW  Elec       q    Type
REMARK                         _______ _______ _______ _____ _____    ______ ____
ROOT
ATOM      1  C   UNL     1       2.517   3.981  18.443  0.00  0.00    +0.000 A 
ATOM      2  C   UNL     1       3.092   3.062  17.552  0.00  0.00    +0.000 A 
ATOM      3  C   UNL     1       4.062   3.463  16.627  0.00  0.00    +0.000 A 
ATOM      4  C   UNL     1       4.478   4.798  16.569  0.00  0.00    +0.000 A 
ATOM      5  C   UNL     1       3.948   5.706  17.500  0.00  0.00    +0.000 A 
ATOM      6  C   UNL     1       2.979   5.303  18.428  0.00  0.00    +0.000 A 
ENDROOT
BRANCH   1   7
ATOM      7  C   UNL     1       1.423   3.534  19.398  0.00  0.00    +0.000 C 
ATOM      8  F   UNL     1       0.566   2.631  18.844  0.00  0.00    +0.000 F 
ATOM      9  F   UNL     1       0.657   4.574  19.846  0.00  0.00    +0.000 F 
BRANCH   7  11
ATOM     10  O   UNL     1       2.436   2.220  22.340  0.00  0.00    +0.000 OA
ATOM     11  P   UNL     1       1.972   2.822  20.992  0.00  0.00    +0.000 P 
BRANCH  11  12
ATOM     12  O   UNL     1       2.232   4.341  21.598  0.00  0.00    +0.000 OA
ATOM     13  H   UNL     1       1.503   4.906  21.270  0.00  0.00    +0.000 HD
ENDBRANCH  11  12
BRANCH  11  14
ATOM     14  O   UNL     1       3.501   2.601  20.400  0.00  0.00    +0.000 OA
ATOM     15  H   UNL     1       3.777   3.438  19.977  0.00  0.00    +0.000 HD
ENDBRANCH  11  14
ENDBRANCH   7  11
ENDBRANCH   1   7
BRANCH   4  16
ATOM     16  C   UNL     1       5.369   5.268  15.452  0.00  0.00    +0.000 C 
ATOM     17  F   UNL     1       5.232   4.509  14.325  0.00  0.00    +0.000 F 
ATOM     18  F   UNL     1       5.125   6.550  15.037  0.00  0.00    +0.000 F 
BRANCH  16  19
ATOM     19  P   UNL     1       7.169   5.312  15.598  0.00  0.00    +0.000 P 
ATOM     20  O   UNL     1       7.982   5.379  14.343  0.00  0.00    +0.000 OA
BRANCH  19  21
ATOM     21  O   UNL     1       7.503   6.529  16.614  0.00  0.00    +0.000 OA
ATOM     22  H   UNL     1       7.944   7.286  16.174  0.00  0.00    +0.000 HD
ENDBRANCH  19  21
BRANCH  19  23
ATOM     23  O   UNL     1       7.633   4.086  16.539  0.00  0.00    +0.000 OA
ATOM     24  H   UNL     1       8.586   4.151  16.730  0.00  0.00    +0.000 HD
ENDBRANCH  19  23
ENDBRANCH  16  19
ENDBRANCH   4  16
TORSDOF 8
ENDMDL
