MODEL 1
REMARK VINA RESULT:      -7.7      0.000      0.000
REMARK  Name = 
REMARK  1 active torsions:
REMARK  status: ('A' for Active; 'I' for Inactive)
REMARK    1  A    between atoms: C_13  and  C_14
REMARK                            x       y       z     vdW  Elec       q    Type
REMARK                         _______ _______ _______ _____ _____    ______ ____
ROOT
ATOM      1  O   UNL     1       1.818   8.555  20.238  0.00  0.00    +0.000 OA
ATOM      2  C   UNL     1       2.005   7.358  20.107  0.00  0.00    +0.000 C 
ATOM      3  N   UNL     1       1.780   6.362  21.041  0.00  0.00    +0.000 N 
ATOM      4  C   UNL     1       2.108   5.101  20.544  0.00  0.00    +0.000 A 
ATOM      5  C   UNL     1       2.012   3.897  21.210  0.00  0.00    +0.000 A 
ATOM      6  C   UNL     1       2.403   2.751  20.515  0.00  0.00    +0.000 A 
ATOM      7  C   UNL     1       2.858   2.846  19.188  0.00  0.00    +0.000 A 
ATOM      8 CL   UNL     1       3.341   1.416  18.359  0.00  0.00    +0.000 Cl
ATOM      9  C   UNL     1       2.932   4.077  18.530  0.00  0.00    +0.000 A 
ATOM     10  C   UNL     1       2.567   5.225  19.221  0.00  0.00    +0.000 A 
ATOM     11  C   UNL     1       2.541   6.688  18.863  0.00  0.00    +0.000 C 
ATOM     12  C   UNL     1       2.153   7.171  17.498  0.00  0.00    +0.000 C 
ATOM     13  C   UNL     1       3.567   7.395  17.995  0.00  0.00    +0.000 C 
ATOM     14  H   UNL     1       1.416   6.555  21.963  0.00  0.00    +0.000 HD
ENDROOT
BRANCH  13  15
ATOM     15  C   UNL     1       4.740   6.635  17.418  0.00  0.00    +0.000 A 
ATOM     16  C   UNL     1       4.792   6.245  16.067  0.00  0.00    +0.000 A 
ATOM     17  C   UNL     1       5.840   5.460  15.578  0.00  0.00    +0.000 A 
ATOM     18  C   UNL     1       6.869   5.086  16.430  0.00  0.00    +0.000 A 
ATOM     19  F   UNL     1       7.863   4.316  15.968  0.00  0.00    +0.000 F 
ATOM     20  C   UNL     1       6.880   5.499  17.754  0.00  0.00    +0.000 A 
ATOM     21  C   UNL     1       5.823   6.272  18.242  0.00  0.00    +0.000 A 
ENDBRANCH  13  15
TORSDOF 1
ENDMDL
MODEL 2
REMARK VINA RESULT:      -7.6      0.491      1.178
REMARK  Name = 
REMARK  1 active torsions:
REMARK  status: ('A' for Active; 'I' for Inactive)
REMARK    1  A    between atoms: C_13  and  C_14
REMARK                            x       y       z     vdW  Elec       q    Type
REMARK                         _______ _______ _______ _____ _____    ______ ____
ROOT
ATOM      1  O   UNL     1       1.990   8.700  20.400  0.00  0.00    +0.000 OA
ATOM      2  C   UNL     1       1.996   7.509  20.138  0.00  0.00    +0.000 C 
ATOM      3  N   UNL     1       1.581   6.467  20.947  0.00  0.00    +0.000 N 
ATOM      4  C   UNL     1       1.732   5.231  20.318  0.00  0.00    +0.000 A 
ATOM      5  C   UNL     1       1.423   3.992  20.840  0.00  0.00    +0.000 A 
ATOM      6  C   UNL     1       1.663   2.881  20.030  0.00  0.00    +0.000 A 
ATOM      7  C   UNL     1       2.182   3.046  18.734  0.00  0.00    +0.000 A 
ATOM      8 CL   UNL     1       2.474   1.656  17.760  0.00  0.00    +0.000 Cl
ATOM      9  C   UNL     1       2.474   4.314  18.223  0.00  0.00    +0.000 A 
ATOM     10  C   UNL     1       2.260   5.423  19.030  0.00  0.00    +0.000 A 
ATOM     11  C   UNL     1       2.475   6.902  18.840  0.00  0.00    +0.000 C 
ATOM     12  C   UNL     1       2.224   7.586  17.529  0.00  0.00    +0.000 C 
ATOM     13  C   UNL     1       3.633   7.529  18.084  0.00  0.00    +0.000 C 
ATOM     14  H   UNL     1       1.212   6.614  21.875  0.00  0.00    +0.000 HD
ENDROOT
BRANCH  13  15
ATOM     15  C   UNL     1       4.699   6.660  17.454  0.00  0.00    +0.000 A 
ATOM     16  C   UNL     1       5.732   6.072  18.208  0.00  0.00    +0.000 A 
ATOM     17  C   UNL     1       6.761   5.354  17.593  0.00  0.00    +0.000 A 
ATOM     18  C   UNL     1       6.750   5.186  16.216  0.00  0.00    +0.000 A 
ATOM     19  F   UNL     1       7.747   4.517  15.624  0.00  0.00    +0.000 F 
ATOM     20  C   UNL     1       5.719   5.705  15.447  0.00  0.00    +0.000 A 
ATOM     21  C   UNL     1       4.699   6.433  16.064  0.00  0.00    +0.000 A 
ENDBRANCH  13  15
TORSDOF 1
ENDMDL
MODEL 3
REMARK VINA RESULT:      -6.8      3.664      5.501
REMARK  Name = 
REMARK  1 active torsions:
REMARK  status: ('A' for Active; 'I' for Inactive)
REMARK    1  A    between atoms: C_13  and  C_14
REMARK                            x       y       z     vdW  Elec       q    Type
REMARK                         _______ _______ _______ _____ _____    ______ ____
ROOT
ATOM      1  O   UNL     1       3.471   2.196  19.283  0.00  0.00    +0.000 OA
ATOM      2  C   UNL     1       4.200   3.139  19.027  0.00  0.00    +0.000 C 
ATOM      3  N   UNL     1       5.552   3.255  19.292  0.00  0.00    +0.000 N 
ATOM      4  C   UNL     1       6.062   4.478  18.858  0.00  0.00    +0.000 A 
ATOM      5  C   UNL     1       7.364   4.920  18.970  0.00  0.00    +0.000 A 
ATOM      6  C   UNL     1       7.652   6.190  18.467  0.00  0.00    +0.000 A 
ATOM      7  C   UNL     1       6.643   6.960  17.862  0.00  0.00    +0.000 A 
ATOM      8 CL   UNL     1       7.027   8.526  17.257  0.00  0.00    +0.000 Cl
ATOM      9  C   UNL     1       5.334   6.483  17.748  0.00  0.00    +0.000 A 
ATOM     10  C   UNL     1       5.033   5.231  18.265  0.00  0.00    +0.000 A 
ATOM     11  C   UNL     1       3.767   4.419  18.350  0.00  0.00    +0.000 C 
ATOM     12  C   UNL     1       2.750   4.404  17.248  0.00  0.00    +0.000 C 
ATOM     13  C   UNL     1       2.380   4.984  18.597  0.00  0.00    +0.000 C 
ATOM     14  H   UNL     1       6.082   2.523  19.743  0.00  0.00    +0.000 HD
ENDROOT
BRANCH  13  15
ATOM     15  C   UNL     1       2.179   6.470  18.794  0.00  0.00    +0.000 A 
ATOM     16  C   UNL     1       2.005   7.043  20.068  0.00  0.00    +0.000 A 
ATOM     17  C   UNL     1       1.724   8.404  20.219  0.00  0.00    +0.000 A 
ATOM     18  C   UNL     1       1.650   9.215  19.097  0.00  0.00    +0.000 A 
ATOM     19  F   UNL     1       1.360  10.515  19.240  0.00  0.00    +0.000 F 
ATOM     20  C   UNL     1       1.872   8.697  17.830  0.00  0.00    +0.000 A 
ATOM     21  C   UNL     1       2.138   7.334  17.683  0.00  0.00    +0.000 A 
ENDBRANCH  13  15
TORSDOF 1
ENDMDL
MODEL 4
REMARK VINA RESULT:      -6.5      3.633      5.365
REMARK  Name = 
REMARK  1 active torsions:
REMARK  status: ('A' for Active; 'I' for Inactive)
REMARK    1  A    between atoms: C_13  and  C_14
REMARK                            x       y       z     vdW  Elec       q    Type
REMARK                         _______ _______ _______ _____ _____    ______ ____
ROOT
ATOM      1  O   UNL     1       3.531   2.124  19.303  0.00  0.00    +0.000 OA
ATOM      2  C   UNL     1       4.234   3.085  19.043  0.00  0.00    +0.000 C 
ATOM      3  N   UNL     1       5.577   3.250  19.332  0.00  0.00    +0.000 N 
ATOM      4  C   UNL     1       6.056   4.480  18.882  0.00  0.00    +0.000 A 
ATOM      5  C   UNL     1       7.341   4.967  19.011  0.00  0.00    +0.000 A 
ATOM      6  C   UNL     1       7.598   6.235  18.488  0.00  0.00    +0.000 A 
ATOM      7  C   UNL     1       6.577   6.959  17.847  0.00  0.00    +0.000 A 
ATOM      8 CL   UNL     1       6.923   8.524  17.217  0.00  0.00    +0.000 Cl
ATOM      9  C   UNL     1       5.287   6.437  17.716  0.00  0.00    +0.000 A 
ATOM     10  C   UNL     1       5.016   5.187  18.254  0.00  0.00    +0.000 A 
ATOM     11  C   UNL     1       3.775   4.336  18.330  0.00  0.00    +0.000 C 
ATOM     12  C   UNL     1       2.783   4.266  17.208  0.00  0.00    +0.000 C 
ATOM     13  C   UNL     1       2.366   4.861  18.538  0.00  0.00    +0.000 C 
ATOM     14  H   UNL     1       6.120   2.545  19.808  0.00  0.00    +0.000 HD
ENDROOT
BRANCH  13  15
ATOM     15  C   UNL     1       2.113   6.343  18.699  0.00  0.00    +0.000 A 
ATOM     16  C   UNL     1       2.056   7.220  17.600  0.00  0.00    +0.000 A 
ATOM     17  C   UNL     1       1.919   8.600  17.779  0.00  0.00    +0.000 A 
ATOM     18  C   UNL     1       1.802   9.114  19.061  0.00  0.00    +0.000 A 
ATOM     19  F   UNL     1       1.692  10.438  19.235  0.00  0.00    +0.000 F 
ATOM     20  C   UNL     1       1.798   8.275  20.166  0.00  0.00    +0.000 A 
ATOM     21  C   UNL     1       1.949   6.899  19.983  0.00  0.00    +0.000 A 
ENDBRANCH  13  15
TORSDOF 1
ENDMDL
MODEL 5
REMARK VINA RESULT:      -6.3      6.141      8.223
REMARK  Name = 
REMARK  1 active torsions:
REMARK  status: ('A' for Active; 'I' for Inactive)
REMARK    1  A    between atoms: C_13  and  C_14
REMARK                            x       y       z     vdW  Elec       q    Type
REMARK                         _______ _______ _______ _____ _____    ______ ____
ROOT
ATOM      1  O   UNL     1       2.431   7.757  18.873  0.00  0.00    +0.000 OA
ATOM      2  C   UNL     1       1.762   8.369  19.688  0.00  0.00    +0.000 C 
ATOM      3  N   UNL     1       1.579   8.068  21.026  0.00  0.00    +0.000 N 
ATOM      4  C   UNL     1       0.746   8.992  21.655  0.00  0.00    +0.000 A 
ATOM      5  C   UNL     1       0.352   8.986  22.978  0.00  0.00    +0.000 A 
ATOM      6  C   UNL     1      -0.496  10.013  23.395  0.00  0.00    +0.000 A 
ATOM      7  C   UNL     1      -0.906  11.008  22.489  0.00  0.00    +0.000 A 
ATOM      8 CL   UNL     1      -1.959  12.258  23.031  0.00  0.00    +0.000 Cl
ATOM      9  C   UNL     1      -0.481  10.999  21.157  0.00  0.00    +0.000 A 
ATOM     10  C   UNL     1       0.344   9.969  20.728  0.00  0.00    +0.000 A 
ATOM     11  C   UNL     1       0.964   9.620  19.400  0.00  0.00    +0.000 C 
ATOM     12  C   UNL     1       1.482  10.666  18.459  0.00  0.00    +0.000 C 
ATOM     13  C   UNL     1       0.301   9.810  18.048  0.00  0.00    +0.000 C 
ATOM     14  H   UNL     1       2.014   7.271  21.467  0.00  0.00    +0.000 HD
ENDROOT
BRANCH  13  15
ATOM     15  C   UNL     1      -1.097  10.380  17.950  0.00  0.00    +0.000 A 
ATOM     16  C   UNL     1      -1.375  11.736  18.204  0.00  0.00    +0.000 A 
ATOM     17  C   UNL     1      -2.686  12.220  18.203  0.00  0.00    +0.000 A 
ATOM     18  C   UNL     1      -3.733  11.358  17.913  0.00  0.00    +0.000 A 
ATOM     19  F   UNL     1      -4.992  11.815  17.933  0.00  0.00    +0.000 F 
ATOM     20  C   UNL     1      -3.492  10.027  17.603  0.00  0.00    +0.000 A 
ATOM     21  C   UNL     1      -2.181   9.545  17.619  0.00  0.00    +0.000 A 
ENDBRANCH  13  15
TORSDOF 1
ENDMDL
MODEL 6
REMARK VINA RESULT:      -6.2      3.770      5.951
REMARK  Name = 
REMARK  1 active torsions:
REMARK  status: ('A' for Active; 'I' for Inactive)
REMARK    1  A    between atoms: C_13  and  C_14
REMARK                            x       y       z     vdW  Elec       q    Type
REMARK                         _______ _______ _______ _____ _____    ______ ____
ROOT
ATOM      1  O   UNL     1       5.907   3.120  15.723  0.00  0.00    +0.000 OA
ATOM      2  C   UNL     1       5.280   4.026  16.244  0.00  0.00    +0.000 C 
ATOM      3  N   UNL     1       5.638   5.361  16.324  0.00  0.00    +0.000 N 
ATOM      4  C   UNL     1       4.675   6.115  16.993  0.00  0.00    +0.000 A 
ATOM      5  C   UNL     1       4.717   7.469  17.254  0.00  0.00    +0.000 A 
ATOM      6  C   UNL     1       3.638   8.019  17.948  0.00  0.00    +0.000 A 
ATOM      7  C   UNL     1       2.559   7.208  18.340  0.00  0.00    +0.000 A 
ATOM      8 CL   UNL     1       1.245   7.913  19.202  0.00  0.00    +0.000 Cl
ATOM      9  C   UNL     1       2.533   5.841  18.051  0.00  0.00    +0.000 A 
ATOM     10  C   UNL     1       3.612   5.281  17.382  0.00  0.00    +0.000 A 
ATOM     11  C   UNL     1       3.944   3.882  16.934  0.00  0.00    +0.000 C 
ATOM     12  C   UNL     1       2.901   2.941  16.407  0.00  0.00    +0.000 C 
ATOM     13  C   UNL     1       3.613   2.615  17.703  0.00  0.00    +0.000 C 
ATOM     14  H   UNL     1       6.497   5.717  15.932  0.00  0.00    +0.000 HD
ENDROOT
BRANCH  13  15
ATOM     15  C   UNL     1       2.906   2.689  19.038  0.00  0.00    +0.000 A 
ATOM     16  C   UNL     1       3.602   2.651  20.261  0.00  0.00    +0.000 A 
ATOM     17  C   UNL     1       2.923   2.622  21.482  0.00  0.00    +0.000 A 
ATOM     18  C   UNL     1       1.537   2.667  21.494  0.00  0.00    +0.000 A 
ATOM     19  F   UNL     1       0.884   2.618  22.662  0.00  0.00    +0.000 F 
ATOM     20  C   UNL     1       0.819   2.761  20.311  0.00  0.00    +0.000 A 
ATOM     21  C   UNL     1       1.502   2.775  19.092  0.00  0.00    +0.000 A 
ENDBRANCH  13  15
TORSDOF 1
ENDMDL
MODEL 7
REMARK VINA RESULT:      -6.2     10.105     11.845
REMARK  Name = 
REMARK  1 active torsions:
REMARK  status: ('A' for Active; 'I' for Inactive)
REMARK    1  A    between atoms: C_13  and  C_14
REMARK                            x       y       z     vdW  Elec       q    Type
REMARK                         _______ _______ _______ _____ _____    ______ ____
ROOT
ATOM      1  O   UNL     1      -7.862  12.717  24.228  0.00  0.00    +0.000 OA
ATOM      2  C   UNL     1      -7.385  12.443  23.139  0.00  0.00    +0.000 C 
ATOM      3  N   UNL     1      -7.855  11.521  22.222  0.00  0.00    +0.000 N 
ATOM      4  C   UNL     1      -7.056  11.472  21.080  0.00  0.00    +0.000 A 
ATOM      5  C   UNL     1      -7.233  10.662  19.978  0.00  0.00    +0.000 A 
ATOM      6  C   UNL     1      -6.301  10.777  18.945  0.00  0.00    +0.000 A 
ATOM      7  C   UNL     1      -5.244  11.699  19.042  0.00  0.00    +0.000 A 
ATOM      8 CL   UNL     1      -4.106  11.813  17.755  0.00  0.00    +0.000 Cl
ATOM      9  C   UNL     1      -5.094  12.519  20.164  0.00  0.00    +0.000 A 
ATOM     10  C   UNL     1      -6.003  12.395  21.206  0.00  0.00    +0.000 A 
ATOM     11  C   UNL     1      -6.144  13.068  22.546  0.00  0.00    +0.000 C 
ATOM     12  C   UNL     1      -5.840  14.523  22.747  0.00  0.00    +0.000 C 
ATOM     13  C   UNL     1      -4.991  13.480  23.444  0.00  0.00    +0.000 C 
ATOM     14  H   UNL     1      -8.684  10.967  22.384  0.00  0.00    +0.000 HD
ENDROOT
BRANCH  13  15
ATOM     15  C   UNL     1      -3.561  13.215  23.030  0.00  0.00    +0.000 A 
ATOM     16  C   UNL     1      -2.813  14.139  22.276  0.00  0.00    +0.000 A 
ATOM     17  C   UNL     1      -1.527  13.832  21.821  0.00  0.00    +0.000 A 
ATOM     18  C   UNL     1      -0.961  12.609  22.147  0.00  0.00    +0.000 A 
ATOM     19  F   UNL     1       0.262  12.305  21.694  0.00  0.00    +0.000 F 
ATOM     20  C   UNL     1      -1.646  11.696  22.934  0.00  0.00    +0.000 A 
ATOM     21  C   UNL     1      -2.936  12.001  23.375  0.00  0.00    +0.000 A 
ENDBRANCH  13  15
TORSDOF 1
ENDMDL
MODEL 8
REMARK VINA RESULT:      -6.2      3.430      4.827
REMARK  Name = 
REMARK  1 active torsions:
REMARK  status: ('A' for Active; 'I' for Inactive)
REMARK    1  A    between atoms: C_13  and  C_14
REMARK                            x       y       z     vdW  Elec       q    Type
REMARK                         _______ _______ _______ _____ _____    ______ ____
ROOT
ATOM      1  O   UNL     1       5.652   5.036  15.413  0.00  0.00    +0.000 OA
ATOM      2  C   UNL     1       4.870   4.604  16.242  0.00  0.00    +0.000 C 
ATOM      3  N   UNL     1       4.213   3.386  16.227  0.00  0.00    +0.000 N 
ATOM      4  C   UNL     1       3.393   3.227  17.344  0.00  0.00    +0.000 A 
ATOM      5  C   UNL     1       2.596   2.140  17.638  0.00  0.00    +0.000 A 
ATOM      6  C   UNL     1       1.849   2.197  18.816  0.00  0.00    +0.000 A 
ATOM      7  C   UNL     1       1.935   3.320  19.657  0.00  0.00    +0.000 A 
ATOM      8 CL   UNL     1       0.995   3.366  21.100  0.00  0.00    +0.000 Cl
ATOM      9  C   UNL     1       2.761   4.403  19.343  0.00  0.00    +0.000 A 
ATOM     10  C   UNL     1       3.490   4.365  18.163  0.00  0.00    +0.000 A 
ATOM     11  C   UNL     1       4.438   5.327  17.496  0.00  0.00    +0.000 C 
ATOM     12  C   UNL     1       5.406   6.166  18.276  0.00  0.00    +0.000 C 
ATOM     13  C   UNL     1       4.295   6.839  17.497  0.00  0.00    +0.000 C 
ATOM     14  H   UNL     1       4.336   2.712  15.486  0.00  0.00    +0.000 HD
ENDROOT
BRANCH  13  15
ATOM     15  C   UNL     1       3.126   7.500  18.192  0.00  0.00    +0.000 A 
ATOM     16  C   UNL     1       2.300   8.439  17.546  0.00  0.00    +0.000 A 
ATOM     17  C   UNL     1       1.286   9.110  18.236  0.00  0.00    +0.000 A 
ATOM     18  C   UNL     1       1.063   8.821  19.574  0.00  0.00    +0.000 A 
ATOM     19  F   UNL     1       0.106   9.478  20.242  0.00  0.00    +0.000 F 
ATOM     20  C   UNL     1       1.820   7.861  20.229  0.00  0.00    +0.000 A 
ATOM     21  C   UNL     1       2.842   7.203  19.539  0.00  0.00    +0.000 A 
ENDBRANCH  13  15
TORSDOF 1
ENDMDL
MODEL 9
REMARK VINA RESULT:      -6.1      9.938     11.346
REMARK  Name = 
REMARK  1 active torsions:
REMARK  status: ('A' for Active; 'I' for Inactive)
REMARK    1  A    between atoms: C_13  and  C_14
REMARK                            x       y       z     vdW  Elec       q    Type
REMARK                         _______ _______ _______ _____ _____    ______ ____
ROOT
ATOM      1  O   UNL     1       9.370   9.834  19.309  0.00  0.00    +0.000 OA
ATOM      2  C   UNL     1       9.462  10.851  19.975  0.00  0.00    +0.000 C 
ATOM      3  N   UNL     1       8.840  11.128  21.180  0.00  0.00    +0.000 N 
ATOM      4  C   UNL     1       9.177  12.394  21.657  0.00  0.00    +0.000 A 
ATOM      5  C   UNL     1       8.732  12.986  22.821  0.00  0.00    +0.000 A 
ATOM      6  C   UNL     1       9.198  14.272  23.101  0.00  0.00    +0.000 A 
ATOM      7  C   UNL     1      10.095  14.909  22.225  0.00  0.00    +0.000 A 
ATOM      8 CL   UNL     1      10.647  16.498  22.593  0.00  0.00    +0.000 Cl
ATOM      9  C   UNL     1      10.542  14.281  21.058  0.00  0.00    +0.000 A 
ATOM     10  C   UNL     1      10.066  13.012  20.760  0.00  0.00    +0.000 A 
ATOM     11  C   UNL     1      10.293  12.060  19.615  0.00  0.00    +0.000 C 
ATOM     12  C   UNL     1      11.631  11.908  18.954  0.00  0.00    +0.000 C 
ATOM     13  C   UNL     1      10.466  12.465  18.162  0.00  0.00    +0.000 C 
ATOM     14  H   UNL     1       8.226  10.471  21.638  0.00  0.00    +0.000 HD
ENDROOT
BRANCH  13  15
ATOM     15  C   UNL     1      10.405  13.920  17.757  0.00  0.00    +0.000 A 
ATOM     16  C   UNL     1      11.536  14.621  17.296  0.00  0.00    +0.000 A 
ATOM     17  C   UNL     1      11.479  15.990  17.020  0.00  0.00    +0.000 A 
ATOM     18  C   UNL     1      10.278  16.668  17.168  0.00  0.00    +0.000 A 
ATOM     19  F   UNL     1      10.227  17.983  16.925  0.00  0.00    +0.000 F 
ATOM     20  C   UNL     1       9.129  15.999  17.566  0.00  0.00    +0.000 A 
ATOM     21  C   UNL     1       9.194  14.634  17.855  0.00  0.00    +0.000 A 
ENDBRANCH  13  15
TORSDOF 1
ENDMDL
