MODEL 1
REMARK VINA RESULT:      -7.4      0.000      0.000
REMARK  Name = 
REMARK  3 active torsions:
REMARK  status: ('A' for Active; 'I' for Inactive)
REMARK    1  A    between atoms: C_7  and  N_8
REMARK    2  A    between atoms: N_8  and  C_9
REMARK    3  A    between atoms: C_9  and  C_10
REMARK                            x       y       z     vdW  Elec       q    Type
REMARK                         _______ _______ _______ _____ _____    ______ ____
ROOT
ATOM      1  N   UNL     1       3.741   7.220  17.058  0.00  0.00    +0.000 N 
ATOM      2  H   UNL     1       3.130   7.071  16.256  0.00  0.00    +0.000 HD
ENDROOT
BRANCH   1   9
ATOM      3 CL   UNL     1       8.168   5.599  19.175  0.00  0.00    +0.000 Cl
ATOM      4  C   UNL     1       6.985   5.582  17.923  0.00  0.00    +0.000 A 
ATOM      5  C   UNL     1       7.191   4.789  16.801  0.00  0.00    +0.000 A 
ATOM      6  C   UNL     1       6.244   4.810  15.786  0.00  0.00    +0.000 A 
ATOM      7 CL   UNL     1       6.482   3.851  14.376  0.00  0.00    +0.000 Cl
ATOM      8  C   UNL     1       5.103   5.609  15.894  0.00  0.00    +0.000 A 
ATOM      9  C   UNL     1       4.862   6.382  17.040  0.00  0.00    +0.000 A 
ATOM     10  C   UNL     1       5.839   6.377  18.042  0.00  0.00    +0.000 A 
ENDBRANCH   1   9
BRANCH   1  11
ATOM     11  C   UNL     1       2.966   7.363  18.287  0.00  0.00    +0.000 C 
BRANCH  11  12
ATOM     12  C   UNL     1       2.513   5.997  18.761  0.00  0.00    +0.000 A 
ATOM     13  C   UNL     1       1.909   5.098  17.848  0.00  0.00    +0.000 A 
ATOM     14  C   UNL     1       1.444   3.845  18.262  0.00  0.00    +0.000 A 
ATOM     15  C   UNL     1       1.589   3.516  19.590  0.00  0.00    +0.000 A 
ATOM     16  C   UNL     1       2.179   4.376  20.486  0.00  0.00    +0.000 A 
ATOM     17  C   UNL     1       2.654   5.617  20.107  0.00  0.00    +0.000 A 
ATOM     18  O   UNL     1       2.218   3.862  21.745  0.00  0.00    +0.000 OA
ATOM     19  C   UNL     1       1.551   2.597  21.544  0.00  0.00    +0.000 C 
ATOM     20  O   UNL     1       1.184   2.357  20.171  0.00  0.00    +0.000 OA
ENDBRANCH  11  12
ENDBRANCH   1  11
TORSDOF 3
ENDMDL
MODEL 2
REMARK VINA RESULT:      -7.3      4.280      6.670
REMARK  Name = 
REMARK  3 active torsions:
REMARK  status: ('A' for Active; 'I' for Inactive)
REMARK    1  A    between atoms: C_7  and  N_8
REMARK    2  A    between atoms: N_8  and  C_9
REMARK    3  A    between atoms: C_9  and  C_10
REMARK                            x       y       z     vdW  Elec       q    Type
REMARK                         _______ _______ _______ _____ _____    ______ ____
ROOT
ATOM      1  N   UNL     1       5.543   3.786  18.889  0.00  0.00    +0.000 N 
ATOM      2  H   UNL     1       5.427   2.980  18.276  0.00  0.00    +0.000 HD
ENDROOT
BRANCH   1   9
ATOM      3 CL   UNL     1       1.203   2.626  21.443  0.00  0.00    +0.000 Cl
ATOM      4  C   UNL     1       2.243   3.739  20.638  0.00  0.00    +0.000 A 
ATOM      5  C   UNL     1       1.836   5.058  20.477  0.00  0.00    +0.000 A 
ATOM      6  C   UNL     1       2.671   5.935  19.798  0.00  0.00    +0.000 A 
ATOM      7 CL   UNL     1       2.185   7.571  19.569  0.00  0.00    +0.000 Cl
ATOM      8  C   UNL     1       3.899   5.501  19.292  0.00  0.00    +0.000 A 
ATOM      9  C   UNL     1       4.340   4.183  19.484  0.00  0.00    +0.000 A 
ATOM     10  C   UNL     1       3.476   3.300  20.142  0.00  0.00    +0.000 A 
ENDBRANCH   1   9
BRANCH   1  11
ATOM     11  C   UNL     1       6.411   4.788  18.276  0.00  0.00    +0.000 C 
BRANCH  11  12
ATOM     12  C   UNL     1       6.398   4.615  16.771  0.00  0.00    +0.000 A 
ATOM     13  C   UNL     1       5.471   3.728  16.170  0.00  0.00    +0.000 A 
ATOM     14  C   UNL     1       5.460   3.517  14.787  0.00  0.00    +0.000 A 
ATOM     15  C   UNL     1       6.385   4.196  14.029  0.00  0.00    +0.000 A 
ATOM     16  C   UNL     1       7.287   5.064  14.598  0.00  0.00    +0.000 A 
ATOM     17  C   UNL     1       7.318   5.300  15.959  0.00  0.00    +0.000 A 
ATOM     18  O   UNL     1       8.115   5.626  13.675  0.00  0.00    +0.000 OA
ATOM     19  C   UNL     1       7.654   4.981  12.468  0.00  0.00    +0.000 C 
ATOM     20  O   UNL     1       6.532   4.102  12.681  0.00  0.00    +0.000 OA
ENDBRANCH  11  12
ENDBRANCH   1  11
TORSDOF 3
ENDMDL
MODEL 3
REMARK VINA RESULT:      -7.3      4.287      6.674
REMARK  Name = 
REMARK  3 active torsions:
REMARK  status: ('A' for Active; 'I' for Inactive)
REMARK    1  A    between atoms: C_7  and  N_8
REMARK    2  A    between atoms: N_8  and  C_9
REMARK    3  A    between atoms: C_9  and  C_10
REMARK                            x       y       z     vdW  Elec       q    Type
REMARK                         _______ _______ _______ _____ _____    ______ ____
ROOT
ATOM      1  N   UNL     1       5.474   3.794  18.889  0.00  0.00    +0.000 N 
ATOM      2  H   UNL     1       5.389   2.966  18.301  0.00  0.00    +0.000 HD
ENDROOT
BRANCH   1   9
ATOM      3 CL   UNL     1       2.068   7.571  19.807  0.00  0.00    +0.000 Cl
ATOM      4  C   UNL     1       2.590   5.933  19.919  0.00  0.00    +0.000 A 
ATOM      5  C   UNL     1       1.815   5.018  20.622  0.00  0.00    +0.000 A 
ATOM      6  C   UNL     1       2.265   3.709  20.731  0.00  0.00    +0.000 A 
ATOM      7 CL   UNL     1       1.335   2.557  21.610  0.00  0.00    +0.000 Cl
ATOM      8  C   UNL     1       3.470   3.318  20.140  0.00  0.00    +0.000 A 
ATOM      9  C   UNL     1       4.240   4.222  19.392  0.00  0.00    +0.000 A 
ATOM     10  C   UNL     1       3.792   5.546  19.316  0.00  0.00    +0.000 A 
ENDBRANCH   1   9
BRANCH   1  11
ATOM     11  C   UNL     1       6.389   4.766  18.297  0.00  0.00    +0.000 C 
BRANCH  11  12
ATOM     12  C   UNL     1       6.388   4.606  16.790  0.00  0.00    +0.000 A 
ATOM     13  C   UNL     1       5.464   3.727  16.173  0.00  0.00    +0.000 A 
ATOM     14  C   UNL     1       5.465   3.529  14.789  0.00  0.00    +0.000 A 
ATOM     15  C   UNL     1       6.398   4.212  14.045  0.00  0.00    +0.000 A 
ATOM     16  C   UNL     1       7.297   5.074  14.629  0.00  0.00    +0.000 A 
ATOM     17  C   UNL     1       7.317   5.297  15.992  0.00  0.00    +0.000 A 
ATOM     18  O   UNL     1       8.134   5.641  13.719  0.00  0.00    +0.000 OA
ATOM     19  C   UNL     1       7.682   5.009  12.501  0.00  0.00    +0.000 C 
ATOM     20  O   UNL     1       6.556   4.131  12.697  0.00  0.00    +0.000 OA
ENDBRANCH  11  12
ENDBRANCH   1  11
TORSDOF 3
ENDMDL
MODEL 4
REMARK VINA RESULT:      -7.3      0.130      2.065
REMARK  Name = 
REMARK  3 active torsions:
REMARK  status: ('A' for Active; 'I' for Inactive)
REMARK    1  A    between atoms: C_7  and  N_8
REMARK    2  A    between atoms: N_8  and  C_9
REMARK    3  A    between atoms: C_9  and  C_10
REMARK                            x       y       z     vdW  Elec       q    Type
REMARK                         _______ _______ _______ _____ _____    ______ ____
ROOT
ATOM      1  N   UNL     1       3.689   7.181  16.989  0.00  0.00    +0.000 N 
ATOM      2  H   UNL     1       2.979   6.921  16.305  0.00  0.00    +0.000 HD
ENDROOT
BRANCH   1   9
ATOM      3 CL   UNL     1       6.617   3.916  14.255  0.00  0.00    +0.000 Cl
ATOM      4  C   UNL     1       6.317   4.894  15.641  0.00  0.00    +0.000 A 
ATOM      5  C   UNL     1       7.235   4.897  16.684  0.00  0.00    +0.000 A 
ATOM      6  C   UNL     1       6.964   5.665  17.809  0.00  0.00    +0.000 A 
ATOM      7 CL   UNL     1       8.075   5.675  19.124  0.00  0.00    +0.000 Cl
ATOM      8  C   UNL     1       5.793   6.425  17.887  0.00  0.00    +0.000 A 
ATOM      9  C   UNL     1       4.879   6.463  16.822  0.00  0.00    +0.000 A 
ATOM     10  C   UNL     1       5.148   5.661  15.708  0.00  0.00    +0.000 A 
ENDBRANCH   1   9
BRANCH   1  11
ATOM     11  C   UNL     1       3.108   7.317  18.321  0.00  0.00    +0.000 C 
BRANCH  11  12
ATOM     12  C   UNL     1       2.598   5.969  18.790  0.00  0.00    +0.000 A 
ATOM     13  C   UNL     1       1.952   5.101  17.876  0.00  0.00    +0.000 A 
ATOM     14  C   UNL     1       1.436   3.868  18.286  0.00  0.00    +0.000 A 
ATOM     15  C   UNL     1       1.571   3.528  19.612  0.00  0.00    +0.000 A 
ATOM     16  C   UNL     1       2.201   4.357  20.510  0.00  0.00    +0.000 A 
ATOM     17  C   UNL     1       2.727   5.578  20.134  0.00  0.00    +0.000 A 
ATOM     18  O   UNL     1       2.222   3.837  21.767  0.00  0.00    +0.000 OA
ATOM     19  C   UNL     1       1.500   2.602  21.563  0.00  0.00    +0.000 C 
ATOM     20  O   UNL     1       1.119   2.384  20.190  0.00  0.00    +0.000 OA
ENDBRANCH  11  12
ENDBRANCH   1  11
TORSDOF 3
ENDMDL
MODEL 5
REMARK VINA RESULT:      -7.2      3.959      6.303
REMARK  Name = 
REMARK  3 active torsions:
REMARK  status: ('A' for Active; 'I' for Inactive)
REMARK    1  A    between atoms: C_7  and  N_8
REMARK    2  A    between atoms: N_8  and  C_9
REMARK    3  A    between atoms: C_9  and  C_10
REMARK                            x       y       z     vdW  Elec       q    Type
REMARK                         _______ _______ _______ _____ _____    ______ ____
ROOT
ATOM      1  N   UNL     1       3.657   4.347  17.084  0.00  0.00    +0.000 N 
ATOM      2  H   UNL     1       3.512   5.122  16.438  0.00  0.00    +0.000 HD
ENDROOT
BRANCH   1   9
ATOM      3 CL   UNL     1       1.683   2.620  21.537  0.00  0.00    +0.000 Cl
ATOM      4  C   UNL     1       2.120   3.890  20.458  0.00  0.00    +0.000 A 
ATOM      5  C   UNL     1       1.830   5.205  20.800  0.00  0.00    +0.000 A 
ATOM      6  C   UNL     1       2.160   6.215  19.905  0.00  0.00    +0.000 A 
ATOM      7 CL   UNL     1       1.798   7.853  20.295  0.00  0.00    +0.000 Cl
ATOM      8  C   UNL     1       2.776   5.914  18.687  0.00  0.00    +0.000 A 
ATOM      9  C   UNL     1       3.111   4.595  18.349  0.00  0.00    +0.000 A 
ATOM     10  C   UNL     1       2.746   3.583  19.244  0.00  0.00    +0.000 A 
ENDBRANCH   1   9
BRANCH   1  11
ATOM     11  C   UNL     1       5.014   3.820  16.973  0.00  0.00    +0.000 C 
BRANCH  11  12
ATOM     12  C   UNL     1       6.002   4.865  17.450  0.00  0.00    +0.000 A 
ATOM     13  C   UNL     1       6.866   4.576  18.534  0.00  0.00    +0.000 A 
ATOM     14  C   UNL     1       7.762   5.533  19.023  0.00  0.00    +0.000 A 
ATOM     15  C   UNL     1       7.771   6.768  18.419  0.00  0.00    +0.000 A 
ATOM     16  C   UNL     1       6.942   7.062  17.362  0.00  0.00    +0.000 A 
ATOM     17  C   UNL     1       6.052   6.136  16.852  0.00  0.00    +0.000 A 
ATOM     18  O   UNL     1       7.104   8.337  16.916  0.00  0.00    +0.000 OA
ATOM     19  C   UNL     1       8.104   8.822  17.839  0.00  0.00    +0.000 C 
ATOM     20  O   UNL     1       8.557   7.820  18.770  0.00  0.00    +0.000 OA
ENDBRANCH  11  12
ENDBRANCH   1  11
TORSDOF 3
ENDMDL
MODEL 6
REMARK VINA RESULT:      -7.2      0.855      2.626
REMARK  Name = 
REMARK  3 active torsions:
REMARK  status: ('A' for Active; 'I' for Inactive)
REMARK    1  A    between atoms: C_7  and  N_8
REMARK    2  A    between atoms: N_8  and  C_9
REMARK    3  A    between atoms: C_9  and  C_10
REMARK                            x       y       z     vdW  Elec       q    Type
REMARK                         _______ _______ _______ _____ _____    ______ ____
ROOT
ATOM      1  N   UNL     1       3.736   7.267  16.858  0.00  0.00    +0.000 N 
ATOM      2  H   UNL     1       2.992   6.940  16.242  0.00  0.00    +0.000 HD
ENDROOT
BRANCH   1   9
ATOM      3 CL   UNL     1       6.653   3.948  14.177  0.00  0.00    +0.000 Cl
ATOM      4  C   UNL     1       6.343   4.927  15.561  0.00  0.00    +0.000 A 
ATOM      5  C   UNL     1       7.236   4.906  16.625  0.00  0.00    +0.000 A 
ATOM      6  C   UNL     1       6.956   5.675  17.746  0.00  0.00    +0.000 A 
ATOM      7 CL   UNL     1       8.037   5.656  19.087  0.00  0.00    +0.000 Cl
ATOM      8  C   UNL     1       5.801   6.461  17.800  0.00  0.00    +0.000 A 
ATOM      9  C   UNL     1       4.913   6.523  16.716  0.00  0.00    +0.000 A 
ATOM     10  C   UNL     1       5.190   5.719  15.604  0.00  0.00    +0.000 A 
ENDBRANCH   1   9
BRANCH   1  11
ATOM     11  C   UNL     1       3.220   7.555  18.193  0.00  0.00    +0.000 C 
BRANCH  11  12
ATOM     12  C   UNL     1       2.531   6.323  18.745  0.00  0.00    +0.000 A 
ATOM     13  C   UNL     1       2.262   6.227  20.133  0.00  0.00    +0.000 A 
ATOM     14  C   UNL     1       1.664   5.087  20.679  0.00  0.00    +0.000 A 
ATOM     15  C   UNL     1       1.350   4.057  19.823  0.00  0.00    +0.000 A 
ATOM     16  C   UNL     1       1.600   4.138  18.473  0.00  0.00    +0.000 A 
ATOM     17  C   UNL     1       2.183   5.253  17.902  0.00  0.00    +0.000 A 
ATOM     18  O   UNL     1       1.221   3.013  17.809  0.00  0.00    +0.000 OA
ATOM     19  C   UNL     1       0.739   2.201  18.903  0.00  0.00    +0.000 C 
ATOM     20  O   UNL     1       0.784   2.873  20.177  0.00  0.00    +0.000 OA
ENDBRANCH  11  12
ENDBRANCH   1  11
TORSDOF 3
ENDMDL
MODEL 7
REMARK VINA RESULT:      -7.2      0.825      1.621
REMARK  Name = 
REMARK  3 active torsions:
REMARK  status: ('A' for Active; 'I' for Inactive)
REMARK    1  A    between atoms: C_7  and  N_8
REMARK    2  A    between atoms: N_8  and  C_9
REMARK    3  A    between atoms: C_9  and  C_10
REMARK                            x       y       z     vdW  Elec       q    Type
REMARK                         _______ _______ _______ _____ _____    ______ ____
ROOT
ATOM      1  N   UNL     1       3.793   7.285  16.932  0.00  0.00    +0.000 N 
ATOM      2  H   UNL     1       3.117   7.044  16.208  0.00  0.00    +0.000 HD
ENDROOT
BRANCH   1   9
ATOM      3 CL   UNL     1       8.141   5.581  19.147  0.00  0.00    +0.000 Cl
ATOM      4  C   UNL     1       6.990   5.592  17.865  0.00  0.00    +0.000 A 
ATOM      5  C   UNL     1       7.214   4.806  16.741  0.00  0.00    +0.000 A 
ATOM      6  C   UNL     1       6.294   4.851  15.702  0.00  0.00    +0.000 A 
ATOM      7 CL   UNL     1       6.555   3.900  14.289  0.00  0.00    +0.000 Cl
ATOM      8  C   UNL     1       5.161   5.665  15.788  0.00  0.00    +0.000 A 
ATOM      9  C   UNL     1       4.902   6.431  16.935  0.00  0.00    +0.000 A 
ATOM     10  C   UNL     1       5.852   6.402  17.962  0.00  0.00    +0.000 A 
ENDBRANCH   1   9
BRANCH   1  11
ATOM     11  C   UNL     1       3.122   7.601  18.190  0.00  0.00    +0.000 C 
BRANCH  11  12
ATOM     12  C   UNL     1       2.478   6.348  18.748  0.00  0.00    +0.000 A 
ATOM     13  C   UNL     1       2.267   6.224  20.143  0.00  0.00    +0.000 A 
ATOM     14  C   UNL     1       1.710   5.064  20.693  0.00  0.00    +0.000 A 
ATOM     15  C   UNL     1       1.380   4.044  19.832  0.00  0.00    +0.000 A 
ATOM     16  C   UNL     1       1.573   4.152  18.475  0.00  0.00    +0.000 A 
ATOM     17  C   UNL     1       2.113   5.287  17.901  0.00  0.00    +0.000 A 
ATOM     18  O   UNL     1       1.186   3.031  17.807  0.00  0.00    +0.000 OA
ATOM     19  C   UNL     1       0.763   2.193  18.905  0.00  0.00    +0.000 C 
ATOM     20  O   UNL     1       0.848   2.844  20.188  0.00  0.00    +0.000 OA
ENDBRANCH  11  12
ENDBRANCH   1  11
TORSDOF 3
ENDMDL
MODEL 8
REMARK VINA RESULT:      -7.1      3.936      6.174
REMARK  Name = 
REMARK  3 active torsions:
REMARK  status: ('A' for Active; 'I' for Inactive)
REMARK    1  A    between atoms: C_7  and  N_8
REMARK    2  A    between atoms: N_8  and  C_9
REMARK    3  A    between atoms: C_9  and  C_10
REMARK                            x       y       z     vdW  Elec       q    Type
REMARK                         _______ _______ _______ _____ _____    ______ ____
ROOT
ATOM      1  N   UNL     1       3.576   4.365  16.937  0.00  0.00    +0.000 N 
ATOM      2  H   UNL     1       3.455   5.115  16.257  0.00  0.00    +0.000 HD
ENDROOT
BRANCH   1   9
ATOM      3 CL   UNL     1       1.799   7.857  20.307  0.00  0.00    +0.000 Cl
ATOM      4  C   UNL     1       2.216   6.246  19.864  0.00  0.00    +0.000 A 
ATOM      5  C   UNL     1       2.103   5.229  20.805  0.00  0.00    +0.000 A 
ATOM      6  C   UNL     1       2.473   3.941  20.443  0.00  0.00    +0.000 A 
ATOM      7 CL   UNL     1       2.359   2.665  21.594  0.00  0.00    +0.000 Cl
ATOM      8  C   UNL     1       2.945   3.671  19.156  0.00  0.00    +0.000 A 
ATOM      9  C   UNL     1       3.024   4.680  18.184  0.00  0.00    +0.000 A 
ATOM     10  C   UNL     1       2.678   5.980  18.570  0.00  0.00    +0.000 A 
ENDBRANCH   1   9
BRANCH   1  11
ATOM     11  C   UNL     1       4.923   3.806  16.863  0.00  0.00    +0.000 C 
BRANCH  11  12
ATOM     12  C   UNL     1       5.922   4.824  17.372  0.00  0.00    +0.000 A 
ATOM     13  C   UNL     1       6.749   4.510  18.479  0.00  0.00    +0.000 A 
ATOM     14  C   UNL     1       7.653   5.443  18.997  0.00  0.00    +0.000 A 
ATOM     15  C   UNL     1       7.709   6.680  18.399  0.00  0.00    +0.000 A 
ATOM     16  C   UNL     1       6.917   6.998  17.321  0.00  0.00    +0.000 A 
ATOM     17  C   UNL     1       6.019   6.096  16.781  0.00  0.00    +0.000 A 
ATOM     18  O   UNL     1       7.123   8.270  16.885  0.00  0.00    +0.000 OA
ATOM     19  C   UNL     1       8.108   8.728  17.838  0.00  0.00    +0.000 C 
ATOM     20  O   UNL     1       8.511   7.711  18.776  0.00  0.00    +0.000 OA
ENDBRANCH  11  12
ENDBRANCH   1  11
TORSDOF 3
ENDMDL
MODEL 9
REMARK VINA RESULT:      -7.1      2.704      3.767
REMARK  Name = 
REMARK  3 active torsions:
REMARK  status: ('A' for Active; 'I' for Inactive)
REMARK    1  A    between atoms: C_7  and  N_8
REMARK    2  A    between atoms: N_8  and  C_9
REMARK    3  A    between atoms: C_9  and  C_10
REMARK                            x       y       z     vdW  Elec       q    Type
REMARK                         _______ _______ _______ _____ _____    ______ ____
ROOT
ATOM      1  N   UNL     1       4.165   3.814  19.094  0.00  0.00    +0.000 N 
ATOM      2  H   UNL     1       4.321   3.946  20.093  0.00  0.00    +0.000 HD
ENDROOT
BRANCH   1   9
ATOM      3 CL   UNL     1       8.108   7.106  18.532  0.00  0.00    +0.000 Cl
ATOM      4  C   UNL     1       7.029   5.908  17.926  0.00  0.00    +0.000 A 
ATOM      5  C   UNL     1       7.104   5.536  16.589  0.00  0.00    +0.000 A 
ATOM      6  C   UNL     1       6.206   4.592  16.108  0.00  0.00    +0.000 A 
ATOM      7 CL   UNL     1       6.265   4.125  14.451  0.00  0.00    +0.000 Cl
ATOM      8  C   UNL     1       5.250   4.023  16.953  0.00  0.00    +0.000 A 
ATOM      9  C   UNL     1       5.192   4.358  18.315  0.00  0.00    +0.000 A 
ATOM     10  C   UNL     1       6.081   5.334  18.781  0.00  0.00    +0.000 A 
ENDBRANCH   1   9
BRANCH   1  11
ATOM     11  C   UNL     1       2.773   4.080  18.743  0.00  0.00    +0.000 C 
BRANCH  11  12
ATOM     12  C   UNL     1       2.456   5.539  19.002  0.00  0.00    +0.000 A 
ATOM     13  C   UNL     1       2.056   5.956  20.295  0.00  0.00    +0.000 A 
ATOM     14  C   UNL     1       1.719   7.288  20.556  0.00  0.00    +0.000 A 
ATOM     15  C   UNL     1       1.784   8.181  19.512  0.00  0.00    +0.000 A 
ATOM     16  C   UNL     1       2.176   7.792  18.253  0.00  0.00    +0.000 A 
ATOM     17  C   UNL     1       2.522   6.485  17.965  0.00  0.00    +0.000 A 
ATOM     18  O   UNL     1       2.166   8.824  17.367  0.00  0.00    +0.000 OA
ATOM     19  C   UNL     1       1.686   9.898  18.205  0.00  0.00    +0.000 C 
ATOM     20  O   UNL     1       1.479   9.503  19.576  0.00  0.00    +0.000 OA
ENDBRANCH  11  12
ENDBRANCH   1  11
TORSDOF 3
ENDMDL
