MODEL 1
REMARK VINA RESULT:      -7.4      0.000      0.000
REMARK  Name = 
REMARK  2 active torsions:
REMARK  status: ('A' for Active; 'I' for Inactive)
REMARK    1  A    between atoms: N_5  and  C_6
REMARK    2  A    between atoms: C_15  and  C_16
REMARK                            x       y       z     vdW  Elec       q    Type
REMARK                         _______ _______ _______ _____ _____    ______ ____
ROOT
ATOM      1  O   UNL     1       7.264   7.169  18.192  0.00  0.00    +0.000 OA
ATOM      2  C   UNL     1       6.952   6.279  17.415  0.00  0.00    +0.000 C 
ATOM      3  N   UNL     1       7.501   6.085  16.176  0.00  0.00    +0.000 N 
ATOM      4  C   UNL     1       6.938   5.138  15.379  0.00  0.00    +0.000 C 
ATOM      5  N   UNL     1       7.204   5.106  14.118  0.00  0.00    +0.000 NA
ATOM      6  S   UNL     1       5.885   4.137  16.345  0.00  0.00    +0.000 S 
ATOM      7  C   UNL     1       5.868   5.284  17.633  0.00  0.00    +0.000 C 
ATOM      8  C   UNL     1       4.968   5.382  18.620  0.00  0.00    +0.000 C 
ATOM      9  H   UNL     1       8.162   6.745  15.799  0.00  0.00    +0.000 HD
ENDROOT
BRANCH   5  10
ATOM     10  C   UNL     1       6.578   4.211  13.231  0.00  0.00    +0.000 A 
ATOM     11  C   UNL     1       5.184   4.120  13.085  0.00  0.00    +0.000 A 
ATOM     12  C   UNL     1       4.606   3.199  12.210  0.00  0.00    +0.000 A 
ATOM     13  C   UNL     1       5.424   2.420  11.408  0.00  0.00    +0.000 A 
ATOM     14  F   UNL     1       4.872   1.543  10.558  0.00  0.00    +0.000 F 
ATOM     15  C   UNL     1       6.805   2.550  11.464  0.00  0.00    +0.000 A 
ATOM     16  C   UNL     1       7.379   3.441  12.379  0.00  0.00    +0.000 A 
ENDBRANCH   5  10
BRANCH   8  17
ATOM     17  C   UNL     1       3.810   4.500  18.743  0.00  0.00    +0.000 A 
ATOM     18  C   UNL     1       2.593   4.820  18.150  0.00  0.00    +0.000 A 
ATOM     19  C   UNL     1       1.511   3.971  18.361  0.00  0.00    +0.000 A 
ATOM     20  C   UNL     1       1.674   2.838  19.153  0.00  0.00    +0.000 A 
ATOM     21  C   UNL     1       2.925   2.597  19.695  0.00  0.00    +0.000 A 
ATOM     22  N   UNL     1       3.998   3.398  19.503  0.00  0.00    +0.000 NA
ENDBRANCH   8  17
TORSDOF 2
ENDMDL
MODEL 2
REMARK VINA RESULT:      -7.3      0.163      1.062
REMARK  Name = 
REMARK  2 active torsions:
REMARK  status: ('A' for Active; 'I' for Inactive)
REMARK    1  A    between atoms: N_5  and  C_6
REMARK    2  A    between atoms: C_15  and  C_16
REMARK                            x       y       z     vdW  Elec       q    Type
REMARK                         _______ _______ _______ _____ _____    ______ ____
ROOT
ATOM      1  O   UNL     1       7.250   7.040  18.214  0.00  0.00    +0.000 OA
ATOM      2  C   UNL     1       6.949   6.172  17.408  0.00  0.00    +0.000 C 
ATOM      3  N   UNL     1       7.505   6.022  16.166  0.00  0.00    +0.000 N 
ATOM      4  C   UNL     1       6.954   5.096  15.337  0.00  0.00    +0.000 C 
ATOM      5  N   UNL     1       7.225   5.106  14.077  0.00  0.00    +0.000 NA
ATOM      6  S   UNL     1       5.906   4.055  16.267  0.00  0.00    +0.000 S 
ATOM      7  C   UNL     1       5.874   5.161  17.590  0.00  0.00    +0.000 C 
ATOM      8  C   UNL     1       4.969   5.220  18.576  0.00  0.00    +0.000 C 
ATOM      9  H   UNL     1       8.161   6.700  15.813  0.00  0.00    +0.000 HD
ENDROOT
BRANCH   5  10
ATOM     10  C   UNL     1       6.610   4.233  13.160  0.00  0.00    +0.000 A 
ATOM     11  C   UNL     1       7.326   3.344  12.343  0.00  0.00    +0.000 A 
ATOM     12  C   UNL     1       6.674   2.513  11.431  0.00  0.00    +0.000 A 
ATOM     13  C   UNL     1       5.289   2.503  11.391  0.00  0.00    +0.000 A 
ATOM     14  F   UNL     1       4.660   1.698  10.526  0.00  0.00    +0.000 F 
ATOM     15  C   UNL     1       4.549   3.305  12.251  0.00  0.00    +0.000 A 
ATOM     16  C   UNL     1       5.211   4.172  13.128  0.00  0.00    +0.000 A 
ENDBRANCH   5  10
BRANCH   8  17
ATOM     17  C   UNL     1       3.819   4.324  18.666  0.00  0.00    +0.000 A 
ATOM     18  C   UNL     1       2.595   4.661  18.097  0.00  0.00    +0.000 A 
ATOM     19  C   UNL     1       1.521   3.794  18.276  0.00  0.00    +0.000 A 
ATOM     20  C   UNL     1       1.698   2.628  19.014  0.00  0.00    +0.000 A 
ATOM     21  C   UNL     1       2.955   2.372  19.537  0.00  0.00    +0.000 A 
ATOM     22  N   UNL     1       4.020   3.190  19.374  0.00  0.00    +0.000 NA
ENDBRANCH   8  17
TORSDOF 2
ENDMDL
MODEL 3
REMARK VINA RESULT:      -7.2      1.108      1.154
REMARK  Name = 
REMARK  2 active torsions:
REMARK  status: ('A' for Active; 'I' for Inactive)
REMARK    1  A    between atoms: N_5  and  C_6
REMARK    2  A    between atoms: C_15  and  C_16
REMARK                            x       y       z     vdW  Elec       q    Type
REMARK                         _______ _______ _______ _____ _____    ______ ____
ROOT
ATOM      1  O   UNL     1       7.315   6.060  19.754  0.00  0.00    +0.000 OA
ATOM      2  C   UNL     1       6.963   5.443  18.761  0.00  0.00    +0.000 C 
ATOM      3  N   UNL     1       7.621   5.438  17.560  0.00  0.00    +0.000 N 
ATOM      4  C   UNL     1       7.015   4.816  16.513  0.00  0.00    +0.000 C 
ATOM      5  N   UNL     1       7.425   5.024  15.308  0.00  0.00    +0.000 NA
ATOM      6  S   UNL     1       5.706   3.834  17.117  0.00  0.00    +0.000 S 
ATOM      7  C   UNL     1       5.715   4.641  18.641  0.00  0.00    +0.000 C 
ATOM      8  C   UNL     1       4.729   4.676  19.545  0.00  0.00    +0.000 C 
ATOM      9  H   UNL     1       8.419   6.033  17.411  0.00  0.00    +0.000 HD
ENDROOT
BRANCH   5  10
ATOM     10  C   UNL     1       6.776   4.484  14.182  0.00  0.00    +0.000 A 
ATOM     11  C   UNL     1       5.409   4.165  14.159  0.00  0.00    +0.000 A 
ATOM     12  C   UNL     1       4.813   3.608  13.027  0.00  0.00    +0.000 A 
ATOM     13  C   UNL     1       5.565   3.447  11.874  0.00  0.00    +0.000 A 
ATOM     14  F   UNL     1       4.993   2.925  10.781  0.00  0.00    +0.000 F 
ATOM     15  C   UNL     1       6.898   3.837  11.836  0.00  0.00    +0.000 A 
ATOM     16  C   UNL     1       7.501   4.349  12.991  0.00  0.00    +0.000 A 
ENDBRANCH   5  10
BRANCH   8  17
ATOM     17  C   UNL     1       3.439   4.017  19.355  0.00  0.00    +0.000 A 
ATOM     18  C   UNL     1       2.463   4.567  18.531  0.00  0.00    +0.000 A 
ATOM     19  C   UNL     1       1.231   3.925  18.445  0.00  0.00    +0.000 A 
ATOM     20  C   UNL     1       1.011   2.764  19.180  0.00  0.00    +0.000 A 
ATOM     21  C   UNL     1       2.045   2.287  19.969  0.00  0.00    +0.000 A 
ATOM     22  N   UNL     1       3.256   2.883  20.068  0.00  0.00    +0.000 NA
ENDBRANCH   8  17
TORSDOF 2
ENDMDL
MODEL 4
REMARK VINA RESULT:      -7.1      1.098      1.735
REMARK  Name = 
REMARK  2 active torsions:
REMARK  status: ('A' for Active; 'I' for Inactive)
REMARK    1  A    between atoms: N_5  and  C_6
REMARK    2  A    between atoms: C_15  and  C_16
REMARK                            x       y       z     vdW  Elec       q    Type
REMARK                         _______ _______ _______ _____ _____    ______ ____
ROOT
ATOM      1  O   UNL     1       7.381   6.194  19.524  0.00  0.00    +0.000 OA
ATOM      2  C   UNL     1       7.027   5.553  18.546  0.00  0.00    +0.000 C 
ATOM      3  N   UNL     1       7.668   5.540  17.336  0.00  0.00    +0.000 N 
ATOM      4  C   UNL     1       7.060   4.889  16.308  0.00  0.00    +0.000 C 
ATOM      5  N   UNL     1       7.449   5.083  15.094  0.00  0.00    +0.000 NA
ATOM      6  S   UNL     1       5.777   3.894  16.947  0.00  0.00    +0.000 S 
ATOM      7  C   UNL     1       5.792   4.727  18.456  0.00  0.00    +0.000 C 
ATOM      8  C   UNL     1       4.818   4.759  19.374  0.00  0.00    +0.000 C 
ATOM      9  H   UNL     1       8.454   6.146  17.166  0.00  0.00    +0.000 HD
ENDROOT
BRANCH   5  10
ATOM     10  C   UNL     1       6.795   4.513  13.987  0.00  0.00    +0.000 A 
ATOM     11  C   UNL     1       7.434   4.254  12.764  0.00  0.00    +0.000 A 
ATOM     12  C   UNL     1       6.738   3.709  11.684  0.00  0.00    +0.000 A 
ATOM     13  C   UNL     1       5.414   3.335  11.849  0.00  0.00    +0.000 A 
ATOM     14  F   UNL     1       4.747   2.800  10.818  0.00  0.00    +0.000 F 
ATOM     15  C   UNL     1       4.779   3.494  13.074  0.00  0.00    +0.000 A 
ATOM     16  C   UNL     1       5.469   4.088  14.138  0.00  0.00    +0.000 A 
ENDBRANCH   5  10
BRANCH   8  17
ATOM     17  C   UNL     1       3.538   4.074  19.213  0.00  0.00    +0.000 A 
ATOM     18  C   UNL     1       3.319   2.815  19.761  0.00  0.00    +0.000 A 
ATOM     19  C   UNL     1       2.102   2.188  19.515  0.00  0.00    +0.000 A 
ATOM     20  C   UNL     1       1.147   2.831  18.733  0.00  0.00    +0.000 A 
ATOM     21  C   UNL     1       1.450   4.087  18.235  0.00  0.00    +0.000 A 
ATOM     22  N   UNL     1       2.621   4.726  18.463  0.00  0.00    +0.000 NA
ENDBRANCH   8  17
TORSDOF 2
ENDMDL
MODEL 5
REMARK VINA RESULT:      -7.1      2.423      6.413
REMARK  Name = 
REMARK  2 active torsions:
REMARK  status: ('A' for Active; 'I' for Inactive)
REMARK    1  A    between atoms: N_5  and  C_6
REMARK    2  A    between atoms: C_15  and  C_16
REMARK                            x       y       z     vdW  Elec       q    Type
REMARK                         _______ _______ _______ _____ _____    ______ ____
ROOT
ATOM      1  O   UNL     1       8.363   6.567  18.642  0.00  0.00    +0.000 OA
ATOM      2  C   UNL     1       7.260   6.094  18.412  0.00  0.00    +0.000 C 
ATOM      3  N   UNL     1       6.311   5.810  19.358  0.00  0.00    +0.000 N 
ATOM      4  C   UNL     1       5.194   5.150  18.950  0.00  0.00    +0.000 C 
ATOM      5  N   UNL     1       4.412   4.598  19.815  0.00  0.00    +0.000 NA
ATOM      6  S   UNL     1       5.111   5.197  17.208  0.00  0.00    +0.000 S 
ATOM      7  C   UNL     1       6.766   5.665  17.076  0.00  0.00    +0.000 C 
ATOM      8  C   UNL     1       7.556   5.556  16.000  0.00  0.00    +0.000 C 
ATOM      9  H   UNL     1       6.518   5.911  20.338  0.00  0.00    +0.000 HD
ENDROOT
BRANCH   5  10
ATOM     10  C   UNL     1       3.298   3.822  19.445  0.00  0.00    +0.000 A 
ATOM     11  C   UNL     1       3.404   2.580  18.800  0.00  0.00    +0.000 A 
ATOM     12  C   UNL     1       2.269   1.857  18.430  0.00  0.00    +0.000 A 
ATOM     13  C   UNL     1       1.017   2.332  18.782  0.00  0.00    +0.000 A 
ATOM     14  F   UNL     1      -0.074   1.634  18.440  0.00  0.00    +0.000 F 
ATOM     15  C   UNL     1       0.882   3.513  19.501  0.00  0.00    +0.000 A 
ATOM     16  C   UNL     1       2.022   4.258  19.825  0.00  0.00    +0.000 A 
ENDBRANCH   5  10
BRANCH   8  17
ATOM     17  C   UNL     1       7.112   4.985  14.731  0.00  0.00    +0.000 A 
ATOM     18  C   UNL     1       6.092   4.041  14.682  0.00  0.00    +0.000 A 
ATOM     19  C   UNL     1       5.762   3.486  13.449  0.00  0.00    +0.000 A 
ATOM     20  C   UNL     1       6.457   3.886  12.311  0.00  0.00    +0.000 A 
ATOM     21  C   UNL     1       7.453   4.838  12.456  0.00  0.00    +0.000 A 
ATOM     22  N   UNL     1       7.791   5.401  13.639  0.00  0.00    +0.000 NA
ENDBRANCH   8  17
TORSDOF 2
ENDMDL
MODEL 6
REMARK VINA RESULT:      -7.1      1.155      1.474
REMARK  Name = 
REMARK  2 active torsions:
REMARK  status: ('A' for Active; 'I' for Inactive)
REMARK    1  A    between atoms: N_5  and  C_6
REMARK    2  A    between atoms: C_15  and  C_16
REMARK                            x       y       z     vdW  Elec       q    Type
REMARK                         _______ _______ _______ _____ _____    ______ ____
ROOT
ATOM      1  O   UNL     1       7.408   6.040  19.639  0.00  0.00    +0.000 OA
ATOM      2  C   UNL     1       7.018   5.413  18.666  0.00  0.00    +0.000 C 
ATOM      3  N   UNL     1       7.642   5.377  17.448  0.00  0.00    +0.000 N 
ATOM      4  C   UNL     1       6.998   4.749  16.429  0.00  0.00    +0.000 C 
ATOM      5  N   UNL     1       7.377   4.929  15.209  0.00  0.00    +0.000 NA
ATOM      6  S   UNL     1       5.690   3.798  17.085  0.00  0.00    +0.000 S 
ATOM      7  C   UNL     1       5.755   4.630  18.594  0.00  0.00    +0.000 C 
ATOM      8  C   UNL     1       4.795   4.697  19.525  0.00  0.00    +0.000 C 
ATOM      9  H   UNL     1       8.446   5.956  17.267  0.00  0.00    +0.000 HD
ENDROOT
BRANCH   5  10
ATOM     10  C   UNL     1       6.688   4.382  14.111  0.00  0.00    +0.000 A 
ATOM     11  C   UNL     1       5.299   4.180  14.095  0.00  0.00    +0.000 A 
ATOM     12  C   UNL     1       4.662   3.611  12.992  0.00  0.00    +0.000 A 
ATOM     13  C   UNL     1       5.401   3.320  11.857  0.00  0.00    +0.000 A 
ATOM     14  F   UNL     1       4.791   2.785  10.791  0.00  0.00    +0.000 F 
ATOM     15  C   UNL     1       6.763   3.591  11.807  0.00  0.00    +0.000 A 
ATOM     16  C   UNL     1       7.403   4.116  12.936  0.00  0.00    +0.000 A 
ENDBRANCH   5  10
BRANCH   8  17
ATOM     17  C   UNL     1       3.489   4.057  19.382  0.00  0.00    +0.000 A 
ATOM     18  C   UNL     1       3.187   2.876  20.052  0.00  0.00    +0.000 A 
ATOM     19  C   UNL     1       1.950   2.282  19.821  0.00  0.00    +0.000 A 
ATOM     20  C   UNL     1       1.060   2.878  18.932  0.00  0.00    +0.000 A 
ATOM     21  C   UNL     1       1.445   4.057  18.316  0.00  0.00    +0.000 A 
ATOM     22  N   UNL     1       2.637   4.663  18.526  0.00  0.00    +0.000 NA
ENDBRANCH   8  17
TORSDOF 2
ENDMDL
MODEL 7
REMARK VINA RESULT:      -7.1      0.610      1.495
REMARK  Name = 
REMARK  2 active torsions:
REMARK  status: ('A' for Active; 'I' for Inactive)
REMARK    1  A    between atoms: N_5  and  C_6
REMARK    2  A    between atoms: C_15  and  C_16
REMARK                            x       y       z     vdW  Elec       q    Type
REMARK                         _______ _______ _______ _____ _____    ______ ____
ROOT
ATOM      1  O   UNL     1       7.207   7.144  18.181  0.00  0.00    +0.000 OA
ATOM      2  C   UNL     1       6.929   6.256  17.389  0.00  0.00    +0.000 C 
ATOM      3  N   UNL     1       7.474   6.113  16.141  0.00  0.00    +0.000 N 
ATOM      4  C   UNL     1       6.947   5.156  15.331  0.00  0.00    +0.000 C 
ATOM      5  N   UNL     1       7.202   5.162  14.066  0.00  0.00    +0.000 NA
ATOM      6  S   UNL     1       5.953   4.088  16.286  0.00  0.00    +0.000 S 
ATOM      7  C   UNL     1       5.896   5.207  17.597  0.00  0.00    +0.000 C 
ATOM      8  C   UNL     1       5.002   5.242  18.594  0.00  0.00    +0.000 C 
ATOM      9  H   UNL     1       8.099   6.811  15.772  0.00  0.00    +0.000 HD
ENDROOT
BRANCH   5  10
ATOM     10  C   UNL     1       6.608   4.256  13.168  0.00  0.00    +0.000 A 
ATOM     11  C   UNL     1       7.345   3.351  12.388  0.00  0.00    +0.000 A 
ATOM     12  C   UNL     1       6.714   2.486  11.492  0.00  0.00    +0.000 A 
ATOM     13  C   UNL     1       5.330   2.460  11.434  0.00  0.00    +0.000 A 
ATOM     14  F   UNL     1       4.721   1.623  10.585  0.00  0.00    +0.000 F 
ATOM     15  C   UNL     1       4.569   3.280  12.259  0.00  0.00    +0.000 A 
ATOM     16  C   UNL     1       5.211   4.179  13.119  0.00  0.00    +0.000 A 
ENDBRANCH   5  10
BRANCH   8  17
ATOM     17  C   UNL     1       3.889   4.304  18.711  0.00  0.00    +0.000 A 
ATOM     18  C   UNL     1       4.032   3.094  19.381  0.00  0.00    +0.000 A 
ATOM     19  C   UNL     1       2.953   2.215  19.399  0.00  0.00    +0.000 A 
ATOM     20  C   UNL     1       1.773   2.567  18.750  0.00  0.00    +0.000 A 
ATOM     21  C   UNL     1       1.721   3.797  18.114  0.00  0.00    +0.000 A 
ATOM     22  N   UNL     1       2.749   4.676  18.086  0.00  0.00    +0.000 NA
ENDBRANCH   8  17
TORSDOF 2
ENDMDL
MODEL 8
REMARK VINA RESULT:      -6.9      2.419      6.317
REMARK  Name = 
REMARK  2 active torsions:
REMARK  status: ('A' for Active; 'I' for Inactive)
REMARK    1  A    between atoms: N_5  and  C_6
REMARK    2  A    between atoms: C_15  and  C_16
REMARK                            x       y       z     vdW  Elec       q    Type
REMARK                         _______ _______ _______ _____ _____    ______ ____
ROOT
ATOM      1  O   UNL     1       8.384   6.456  18.802  0.00  0.00    +0.000 OA
ATOM      2  C   UNL     1       7.266   6.022  18.567  0.00  0.00    +0.000 C 
ATOM      3  N   UNL     1       6.306   5.764  19.509  0.00  0.00    +0.000 N 
ATOM      4  C   UNL     1       5.169   5.144  19.095  0.00  0.00    +0.000 C 
ATOM      5  N   UNL     1       4.367   4.614  19.955  0.00  0.00    +0.000 NA
ATOM      6  S   UNL     1       5.091   5.205  17.354  0.00  0.00    +0.000 S 
ATOM      7  C   UNL     1       6.761   5.618  17.228  0.00  0.00    +0.000 C 
ATOM      8  C   UNL     1       7.549   5.489  16.153  0.00  0.00    +0.000 C 
ATOM      9  H   UNL     1       6.515   5.852  20.491  0.00  0.00    +0.000 HD
ENDROOT
BRANCH   5  10
ATOM     10  C   UNL     1       3.229   3.878  19.578  0.00  0.00    +0.000 A 
ATOM     11  C   UNL     1       1.917   4.290  19.860  0.00  0.00    +0.000 A 
ATOM     12  C   UNL     1       0.818   3.515  19.488  0.00  0.00    +0.000 A 
ATOM     13  C   UNL     1       1.020   2.360  18.750  0.00  0.00    +0.000 A 
ATOM     14  F   UNL     1      -0.033   1.620  18.380  0.00  0.00    +0.000 F 
ATOM     15  C   UNL     1       2.301   1.973  18.376  0.00  0.00    +0.000 A 
ATOM     16  C   UNL     1       3.402   2.729  18.796  0.00  0.00    +0.000 A 
ENDBRANCH   5  10
BRANCH   8  17
ATOM     17  C   UNL     1       7.089   4.941  14.879  0.00  0.00    +0.000 A 
ATOM     18  C   UNL     1       6.109   3.956  14.829  0.00  0.00    +0.000 A 
ATOM     19  C   UNL     1       5.763   3.429  13.589  0.00  0.00    +0.000 A 
ATOM     20  C   UNL     1       6.403   3.895  12.445  0.00  0.00    +0.000 A 
ATOM     21  C   UNL     1       7.361   4.884  12.591  0.00  0.00    +0.000 A 
ATOM     22  N   UNL     1       7.714   5.422  13.781  0.00  0.00    +0.000 NA
ENDBRANCH   8  17
TORSDOF 2
ENDMDL
MODEL 9
REMARK VINA RESULT:      -6.8      4.652      7.794
REMARK  Name = 
REMARK  2 active torsions:
REMARK  status: ('A' for Active; 'I' for Inactive)
REMARK    1  A    between atoms: N_5  and  C_6
REMARK    2  A    between atoms: C_15  and  C_16
REMARK                            x       y       z     vdW  Elec       q    Type
REMARK                         _______ _______ _______ _____ _____    ______ ____
ROOT
ATOM      1  O   UNL     1       2.757   2.582  20.649  0.00  0.00    +0.000 OA
ATOM      2  C   UNL     1       2.867   3.761  20.344  0.00  0.00    +0.000 C 
ATOM      3  N   UNL     1       2.106   4.781  20.848  0.00  0.00    +0.000 N 
ATOM      4  C   UNL     1       2.258   6.013  20.294  0.00  0.00    +0.000 C 
ATOM      5  N   UNL     1       1.382   6.936  20.508  0.00  0.00    +0.000 NA
ATOM      6  S   UNL     1       3.709   6.025  19.326  0.00  0.00    +0.000 S 
ATOM      7  C   UNL     1       3.794   4.302  19.314  0.00  0.00    +0.000 C 
ATOM      8  C   UNL     1       4.468   3.530  18.452  0.00  0.00    +0.000 C 
ATOM      9  H   UNL     1       1.333   4.587  21.464  0.00  0.00    +0.000 HD
ENDROOT
BRANCH   5  10
ATOM     10  C   UNL     1       1.439   8.195  19.884  0.00  0.00    +0.000 A 
ATOM     11  C   UNL     1       1.884   8.384  18.567  0.00  0.00    +0.000 A 
ATOM     12  C   UNL     1       1.946   9.656  17.997  0.00  0.00    +0.000 A 
ATOM     13  C   UNL     1       1.477  10.745  18.715  0.00  0.00    +0.000 A 
ATOM     14  F   UNL     1       1.523  11.966  18.167  0.00  0.00    +0.000 F 
ATOM     15  C   UNL     1       0.945  10.579  19.988  0.00  0.00    +0.000 A 
ATOM     16  C   UNL     1       0.933   9.307  20.571  0.00  0.00    +0.000 A 
ENDBRANCH   5  10
BRANCH   8  17
ATOM     17  C   UNL     1       5.252   4.060  17.340  0.00  0.00    +0.000 A 
ATOM     18  C   UNL     1       4.712   4.167  16.062  0.00  0.00    +0.000 A 
ATOM     19  C   UNL     1       5.532   4.618  15.033  0.00  0.00    +0.000 A 
ATOM     20  C   UNL     1       6.857   4.943  15.306  0.00  0.00    +0.000 A 
ATOM     21  C   UNL     1       7.305   4.812  16.610  0.00  0.00    +0.000 A 
ATOM     22  N   UNL     1       6.531   4.385  17.634  0.00  0.00    +0.000 NA
ENDBRANCH   8  17
TORSDOF 2
ENDMDL
