MODEL 1
REMARK VINA RESULT:      -8.5      0.000      0.000
REMARK  Name = 
REMARK  5 active torsions:
REMARK  status: ('A' for Active; 'I' for Inactive)
REMARK    1  A    between atoms: C_1  and  N_2
REMARK    2  A    between atoms: C_9  and  C_10
REMARK    3  A    between atoms: C_11  and  C_12
REMARK    4  A    between atoms: C_21  and  C_22
REMARK    5  A    between atoms: C_21  and  C_23
REMARK                            x       y       z     vdW  Elec       q    Type
REMARK                         _______ _______ _______ _____ _____    ______ ____
ROOT
ATOM      1  C   UNL     1       2.780   3.092  20.421  0.00  0.00    +0.000 C 
ATOM      2  N   UNL     1       3.527   3.392  19.216  0.00  0.00    +0.000 N 
ATOM      3  C   UNL     1       4.807   3.959  19.248  0.00  0.00    +0.000 C 
ATOM      4  O   UNL     1       5.502   4.045  20.251  0.00  0.00    +0.000 OA
ATOM      5  N   UNL     1       5.084   4.480  17.971  0.00  0.00    +0.000 N 
ATOM      6  C   UNL     1       5.969   5.575  17.834  0.00  0.00    +0.000 A 
ATOM      7  C   UNL     1       7.243   5.514  18.397  0.00  0.00    +0.000 A 
ATOM      8  C   UNL     1       8.052   6.658  18.414  0.00  0.00    +0.000 A 
ATOM      9  C   UNL     1       7.567   7.854  17.899  0.00  0.00    +0.000 A 
ATOM     10  C   UNL     1       6.317   7.810  17.294  0.00  0.00    +0.000 A 
ATOM     11  N   UNL     1       5.530   6.697  17.215  0.00  0.00    +0.000 NA
ATOM     12  C   UNL     1       3.963   4.278  17.078  0.00  0.00    +0.000 C 
ATOM     13  C   UNL     1       2.922   3.466  17.888  0.00  0.00    +0.000 C 
ATOM     14  C   UNL     1       2.743   2.046  17.330  0.00  0.00    +0.000 C 
ATOM     15  C   UNL     1       1.569   4.186  17.876  0.00  0.00    +0.000 C 
ENDROOT
BRANCH   9  16
ATOM     16  C   UNL     1       8.323   9.074  18.030  0.00  0.00    +0.000 C 
ATOM     17  C   UNL     1       8.929  10.111  18.080  0.00  0.00    +0.000 C 
BRANCH  17  18
ATOM     18  C   UNL     1       9.627  11.362  18.135  0.00  0.00    +0.000 A 
ATOM     19  C   UNL     1      10.957  11.422  18.525  0.00  0.00    +0.000 A 
ATOM     20  C   UNL     1      11.567  12.661  18.563  0.00  0.00    +0.000 A 
ATOM     21  N   UNL     1      10.924  13.800  18.234  0.00  0.00    +0.000 NA
ATOM     22  N   UNL     1       9.623  13.744  17.846  0.00  0.00    +0.000 NA
ATOM     23  C   UNL     1       8.997  12.547  17.800  0.00  0.00    +0.000 A 
ENDBRANCH  17  18
ENDBRANCH   9  16
TORSDOF 2
ENDMDL
MODEL 2
REMARK VINA RESULT:      -7.6      6.403      8.474
REMARK  Name = 
REMARK  5 active torsions:
REMARK  status: ('A' for Active; 'I' for Inactive)
REMARK    1  A    between atoms: C_1  and  N_2
REMARK    2  A    between atoms: C_9  and  C_10
REMARK    3  A    between atoms: C_11  and  C_12
REMARK    4  A    between atoms: C_21  and  C_22
REMARK    5  A    between atoms: C_21  and  C_23
REMARK                            x       y       z     vdW  Elec       q    Type
REMARK                         _______ _______ _______ _____ _____    ______ ____
ROOT
ATOM      1  C   UNL     1      -0.333  13.454  22.422  0.00  0.00    +0.000 C 
ATOM      2  N   UNL     1      -0.759  12.406  21.516  0.00  0.00    +0.000 N 
ATOM      3  C   UNL     1      -0.087  11.182  21.415  0.00  0.00    +0.000 C 
ATOM      4  O   UNL     1       0.756  10.786  22.208  0.00  0.00    +0.000 OA
ATOM      5  N   UNL     1      -0.482  10.567  20.213  0.00  0.00    +0.000 N 
ATOM      6  C   UNL     1       0.397   9.675  19.556  0.00  0.00    +0.000 A 
ATOM      7  C   UNL     1       0.951   8.603  20.253  0.00  0.00    +0.000 A 
ATOM      8  C   UNL     1       1.953   7.826  19.657  0.00  0.00    +0.000 A 
ATOM      9  C   UNL     1       2.411   8.151  18.385  0.00  0.00    +0.000 A 
ATOM     10  C   UNL     1       1.758   9.189  17.733  0.00  0.00    +0.000 A 
ATOM     11  N   UNL     1       0.742   9.927  18.269  0.00  0.00    +0.000 NA
ATOM     12  C   UNL     1      -1.416  11.403  19.490  0.00  0.00    +0.000 C 
ATOM     13  C   UNL     1      -1.679  12.626  20.402  0.00  0.00    +0.000 C 
ATOM     14  C   UNL     1      -3.121  12.650  20.929  0.00  0.00    +0.000 C 
ATOM     15  C   UNL     1      -1.402  13.924  19.633  0.00  0.00    +0.000 C 
ENDROOT
BRANCH   9  16
ATOM     16  C   UNL     1       3.534   7.456  17.807  0.00  0.00    +0.000 C 
ATOM     17  C   UNL     1       4.458   6.825  17.366  0.00  0.00    +0.000 C 
BRANCH  17  18
ATOM     18  C   UNL     1       5.541   6.051  16.835  0.00  0.00    +0.000 A 
ATOM     19  C   UNL     1       5.561   5.668  15.502  0.00  0.00    +0.000 A 
ATOM     20  C   UNL     1       6.632   4.917  15.058  0.00  0.00    +0.000 A 
ATOM     21  N   UNL     1       7.649   4.550  15.864  0.00  0.00    +0.000 NA
ATOM     22  N   UNL     1       7.635   4.927  17.170  0.00  0.00    +0.000 NA
ATOM     23  C   UNL     1       6.601   5.663  17.636  0.00  0.00    +0.000 A 
ENDBRANCH  17  18
ENDBRANCH   9  16
TORSDOF 2
ENDMDL
MODEL 3
REMARK VINA RESULT:      -7.2      3.789     10.449
REMARK  Name = 
REMARK  5 active torsions:
REMARK  status: ('A' for Active; 'I' for Inactive)
REMARK    1  A    between atoms: C_1  and  N_2
REMARK    2  A    between atoms: C_9  and  C_10
REMARK    3  A    between atoms: C_11  and  C_12
REMARK    4  A    between atoms: C_21  and  C_22
REMARK    5  A    between atoms: C_21  and  C_23
REMARK                            x       y       z     vdW  Elec       q    Type
REMARK                         _______ _______ _______ _____ _____    ______ ____
ROOT
ATOM      1  C   UNL     1       8.144  17.403  21.158  0.00  0.00    +0.000 C 
ATOM      2  N   UNL     1       9.196  16.546  20.650  0.00  0.00    +0.000 N 
ATOM      3  C   UNL     1       8.964  15.578  19.666  0.00  0.00    +0.000 C 
ATOM      4  O   UNL     1       7.949  15.507  18.988  0.00  0.00    +0.000 OA
ATOM      5  N   UNL     1      10.045  14.677  19.679  0.00  0.00    +0.000 N 
ATOM      6  C   UNL     1       9.851  13.339  19.264  0.00  0.00    +0.000 A 
ATOM      7  C   UNL     1       9.276  13.071  18.024  0.00  0.00    +0.000 A 
ATOM      8  C   UNL     1       8.924  11.758  17.687  0.00  0.00    +0.000 A 
ATOM      9  C   UNL     1       9.120  10.734  18.606  0.00  0.00    +0.000 A 
ATOM     10  C   UNL     1       9.762  11.074  19.790  0.00  0.00    +0.000 A 
ATOM     11  N   UNL     1      10.166  12.337  20.121  0.00  0.00    +0.000 NA
ATOM     12  C   UNL     1      11.002  15.036  20.704  0.00  0.00    +0.000 C 
ATOM     13  C   UNL     1      10.479  16.355  21.323  0.00  0.00    +0.000 C 
ATOM     14  C   UNL     1      11.401  17.542  21.008  0.00  0.00    +0.000 C 
ATOM     15  C   UNL     1      10.350  16.207  22.844  0.00  0.00    +0.000 C 
ENDROOT
BRANCH   9  16
ATOM     16  C   UNL     1       8.640   9.402  18.340  0.00  0.00    +0.000 C 
ATOM     17  C   UNL     1       8.208   8.291  18.178  0.00  0.00    +0.000 C 
BRANCH  17  18
ATOM     18  C   UNL     1       7.668   6.976  17.990  0.00  0.00    +0.000 A 
ATOM     19  C   UNL     1       6.964   6.650  16.840  0.00  0.00    +0.000 A 
ATOM     20  C   UNL     1       6.464   5.367  16.728  0.00  0.00    +0.000 A 
ATOM     21  N   UNL     1       6.638   4.430  17.682  0.00  0.00    +0.000 NA
ATOM     22  N   UNL     1       7.332   4.745  18.808  0.00  0.00    +0.000 NA
ATOM     23  C   UNL     1       7.833   5.993  18.949  0.00  0.00    +0.000 A 
ENDBRANCH  17  18
ENDBRANCH   9  16
TORSDOF 2
ENDMDL
MODEL 4
REMARK VINA RESULT:      -7.2      3.698     10.643
REMARK  Name = 
REMARK  5 active torsions:
REMARK  status: ('A' for Active; 'I' for Inactive)
REMARK    1  A    between atoms: C_1  and  N_2
REMARK    2  A    between atoms: C_9  and  C_10
REMARK    3  A    between atoms: C_11  and  C_12
REMARK    4  A    between atoms: C_21  and  C_22
REMARK    5  A    between atoms: C_21  and  C_23
REMARK                            x       y       z     vdW  Elec       q    Type
REMARK                         _______ _______ _______ _____ _____    ______ ____
ROOT
ATOM      1  C   UNL     1      10.149  17.814  18.019  0.00  0.00    +0.000 C 
ATOM      2  N   UNL     1      10.679  16.696  18.774  0.00  0.00    +0.000 N 
ATOM      3  C   UNL     1      10.806  15.414  18.227  0.00  0.00    +0.000 C 
ATOM      4  O   UNL     1      10.708  15.155  17.036  0.00  0.00    +0.000 OA
ATOM      5  N   UNL     1      10.961  14.502  19.287  0.00  0.00    +0.000 N 
ATOM      6  C   UNL     1      10.536  13.162  19.133  0.00  0.00    +0.000 A 
ATOM      7  C   UNL     1      10.982  12.411  18.047  0.00  0.00    +0.000 A 
ATOM      8  C   UNL     1      10.427  11.150  17.796  0.00  0.00    +0.000 A 
ATOM      9  C   UNL     1       9.411  10.669  18.614  0.00  0.00    +0.000 A 
ATOM     10  C   UNL     1       9.075  11.448  19.713  0.00  0.00    +0.000 A 
ATOM     11  N   UNL     1       9.637  12.656  20.012  0.00  0.00    +0.000 NA
ATOM     12  C   UNL     1      10.915  15.184  20.563  0.00  0.00    +0.000 C 
ATOM     13  C   UNL     1      10.803  16.692  20.230  0.00  0.00    +0.000 C 
ATOM     14  C   UNL     1      12.067  17.465  20.636  0.00  0.00    +0.000 C 
ATOM     15  C   UNL     1       9.590  17.299  20.945  0.00  0.00    +0.000 C 
ENDROOT
BRANCH   9  16
ATOM     16  C   UNL     1       8.729   9.440  18.297  0.00  0.00    +0.000 C 
ATOM     17  C   UNL     1       8.132   8.416  18.094  0.00  0.00    +0.000 C 
BRANCH  17  18
ATOM     18  C   UNL     1       7.396   7.208  17.858  0.00  0.00    +0.000 A 
ATOM     19  C   UNL     1       7.786   6.009  18.436  0.00  0.00    +0.000 A 
ATOM     20  C   UNL     1       7.036   4.882  18.162  0.00  0.00    +0.000 A 
ATOM     21  N   UNL     1       5.949   4.906  17.364  0.00  0.00    +0.000 NA
ATOM     22  N   UNL     1       5.561   6.080  16.801  0.00  0.00    +0.000 NA
ATOM     23  C   UNL     1       6.274   7.202  17.049  0.00  0.00    +0.000 A 
ENDBRANCH  17  18
ENDBRANCH   9  16
TORSDOF 2
ENDMDL
MODEL 5
REMARK VINA RESULT:      -7.2      3.943     10.873
REMARK  Name = 
REMARK  5 active torsions:
REMARK  status: ('A' for Active; 'I' for Inactive)
REMARK    1  A    between atoms: C_1  and  N_2
REMARK    2  A    between atoms: C_9  and  C_10
REMARK    3  A    between atoms: C_11  and  C_12
REMARK    4  A    between atoms: C_21  and  C_22
REMARK    5  A    between atoms: C_21  and  C_23
REMARK                            x       y       z     vdW  Elec       q    Type
REMARK                         _______ _______ _______ _____ _____    ______ ____
ROOT
ATOM      1  C   UNL     1      11.314  17.678  17.675  0.00  0.00    +0.000 C 
ATOM      2  N   UNL     1      11.481  16.690  18.722  0.00  0.00    +0.000 N 
ATOM      3  C   UNL     1      11.632  15.325  18.449  0.00  0.00    +0.000 C 
ATOM      4  O   UNL     1      11.862  14.861  17.342  0.00  0.00    +0.000 OA
ATOM      5  N   UNL     1      11.375  14.614  19.636  0.00  0.00    +0.000 N 
ATOM      6  C   UNL     1      10.878  13.291  19.570  0.00  0.00    +0.000 A 
ATOM      7  C   UNL     1      11.544  12.335  18.807  0.00  0.00    +0.000 A 
ATOM      8  C   UNL     1      10.961  11.078  18.599  0.00  0.00    +0.000 A 
ATOM      9  C   UNL     1       9.706  10.804  19.131  0.00  0.00    +0.000 A 
ATOM     10  C   UNL     1       9.144  11.785  19.937  0.00  0.00    +0.000 A 
ATOM     11  N   UNL     1       9.715  12.998  20.200  0.00  0.00    +0.000 NA
ATOM     12  C   UNL     1      11.026  15.517  20.712  0.00  0.00    +0.000 C 
ATOM     13  C   UNL     1      11.172  16.943  20.128  0.00  0.00    +0.000 C 
ATOM     14  C   UNL     1      12.333  17.713  20.775  0.00  0.00    +0.000 C 
ATOM     15  C   UNL     1       9.871  17.730  20.331  0.00  0.00    +0.000 C 
ENDROOT
BRANCH   9  16
ATOM     16  C   UNL     1       9.026   9.574  18.817  0.00  0.00    +0.000 C 
ATOM     17  C   UNL     1       8.508   8.532  18.512  0.00  0.00    +0.000 C 
BRANCH  17  18
ATOM     18  C   UNL     1       7.914   7.277  18.155  0.00  0.00    +0.000 A 
ATOM     19  C   UNL     1       7.264   7.113  16.940  0.00  0.00    +0.000 A 
ATOM     20  C   UNL     1       6.708   5.879  16.663  0.00  0.00    +0.000 A 
ATOM     21  N   UNL     1       6.777   4.840  17.519  0.00  0.00    +0.000 NA
ATOM     22  N   UNL     1       7.418   4.995  18.707  0.00  0.00    +0.000 NA
ATOM     23  C   UNL     1       7.972   6.191  19.009  0.00  0.00    +0.000 A 
ENDBRANCH  17  18
ENDBRANCH   9  16
TORSDOF 2
ENDMDL
MODEL 6
REMARK VINA RESULT:      -7.1      3.970     10.849
REMARK  Name = 
REMARK  5 active torsions:
REMARK  status: ('A' for Active; 'I' for Inactive)
REMARK    1  A    between atoms: C_1  and  N_2
REMARK    2  A    between atoms: C_9  and  C_10
REMARK    3  A    between atoms: C_11  and  C_12
REMARK    4  A    between atoms: C_21  and  C_22
REMARK    5  A    between atoms: C_21  and  C_23
REMARK                            x       y       z     vdW  Elec       q    Type
REMARK                         _______ _______ _______ _____ _____    ______ ____
ROOT
ATOM      1  C   UNL     1       9.098  18.302  18.679  0.00  0.00    +0.000 C 
ATOM      2  N   UNL     1      10.029  17.244  19.018  0.00  0.00    +0.000 N 
ATOM      3  C   UNL     1      10.062  16.025  18.331  0.00  0.00    +0.000 C 
ATOM      4  O   UNL     1       9.497  15.813  17.267  0.00  0.00    +0.000 OA
ATOM      5  N   UNL     1      10.764  15.098  19.123  0.00  0.00    +0.000 N 
ATOM      6  C   UNL     1      10.476  13.718  19.013  0.00  0.00    +0.000 A 
ATOM      7  C   UNL     1      10.502  13.099  17.765  0.00  0.00    +0.000 A 
ATOM      8  C   UNL     1      10.049  11.780  17.630  0.00  0.00    +0.000 A 
ATOM      9  C   UNL     1       9.545  11.108  18.738  0.00  0.00    +0.000 A 
ATOM     10  C   UNL     1       9.620  11.771  19.956  0.00  0.00    +0.000 A 
ATOM     11  N   UNL     1      10.108  13.036  20.125  0.00  0.00    +0.000 NA
ATOM     12  C   UNL     1      11.186  15.701  20.369  0.00  0.00    +0.000 C 
ATOM     13  C   UNL     1      10.763  17.188  20.281  0.00  0.00    +0.000 C 
ATOM     14  C   UNL     1      11.976  18.127  20.207  0.00  0.00    +0.000 C 
ATOM     15  C   UNL     1       9.908  17.564  21.497  0.00  0.00    +0.000 C 
ENDROOT
BRANCH   9  16
ATOM     16  C   UNL     1       8.945   9.805  18.600  0.00  0.00    +0.000 C 
ATOM     17  C   UNL     1       8.499   8.699  18.449  0.00  0.00    +0.000 C 
BRANCH  17  18
ATOM     18  C   UNL     1       7.990   7.369  18.279  0.00  0.00    +0.000 A 
ATOM     19  C   UNL     1       7.279   7.016  17.141  0.00  0.00    +0.000 A 
ATOM     20  C   UNL     1       6.812   5.719  17.045  0.00  0.00    +0.000 A 
ATOM     21  N   UNL     1       7.023   4.795  18.005  0.00  0.00    +0.000 NA
ATOM     22  N   UNL     1       7.724   5.137  19.117  0.00  0.00    +0.000 NA
ATOM     23  C   UNL     1       8.194   6.398  19.242  0.00  0.00    +0.000 A 
ENDBRANCH  17  18
ENDBRANCH   9  16
TORSDOF 2
ENDMDL
MODEL 7
REMARK VINA RESULT:      -7.0      3.763     10.591
REMARK  Name = 
REMARK  5 active torsions:
REMARK  status: ('A' for Active; 'I' for Inactive)
REMARK    1  A    between atoms: C_1  and  N_2
REMARK    2  A    between atoms: C_9  and  C_10
REMARK    3  A    between atoms: C_11  and  C_12
REMARK    4  A    between atoms: C_21  and  C_22
REMARK    5  A    between atoms: C_21  and  C_23
REMARK                            x       y       z     vdW  Elec       q    Type
REMARK                         _______ _______ _______ _____ _____    ______ ____
ROOT
ATOM      1  C   UNL     1       8.645  17.693  20.930  0.00  0.00    +0.000 C 
ATOM      2  N   UNL     1       9.622  16.789  20.358  0.00  0.00    +0.000 N 
ATOM      3  C   UNL     1       9.274  15.792  19.438  0.00  0.00    +0.000 C 
ATOM      4  O   UNL     1       8.197  15.724  18.864  0.00  0.00    +0.000 OA
ATOM      5  N   UNL     1      10.330  14.863  19.384  0.00  0.00    +0.000 N 
ATOM      6  C   UNL     1      10.066  13.517  19.042  0.00  0.00    +0.000 A 
ATOM      7  C   UNL     1       9.368  13.220  17.873  0.00  0.00    +0.000 A 
ATOM      8  C   UNL     1       8.954  11.905  17.623  0.00  0.00    +0.000 A 
ATOM      9  C   UNL     1       9.215  10.910  18.559  0.00  0.00    +0.000 A 
ATOM     10  C   UNL     1       9.975  11.277  19.661  0.00  0.00    +0.000 A 
ATOM     11  N   UNL     1      10.438  12.539  19.903  0.00  0.00    +0.000 NA
ATOM     12  C   UNL     1      11.389  15.234  20.297  0.00  0.00    +0.000 C 
ATOM     13  C   UNL     1      10.959  16.589  20.912  0.00  0.00    +0.000 C 
ATOM     14  C   UNL     1      11.874  17.738  20.464  0.00  0.00    +0.000 C 
ATOM     15  C   UNL     1      10.975  16.500  22.443  0.00  0.00    +0.000 C 
ENDROOT
BRANCH   9  16
ATOM     16  C   UNL     1       8.680   9.583  18.392  0.00  0.00    +0.000 C 
ATOM     17  C   UNL     1       8.237   8.484  18.185  0.00  0.00    +0.000 C 
BRANCH  17  18
ATOM     18  C   UNL     1       7.732   7.168  17.923  0.00  0.00    +0.000 A 
ATOM     19  C   UNL     1       7.837   6.160  18.870  0.00  0.00    +0.000 A 
ATOM     20  C   UNL     1       7.335   4.913  18.548  0.00  0.00    +0.000 A 
ATOM     21  N   UNL     1       6.751   4.646  17.363  0.00  0.00    +0.000 NA
ATOM     22  N   UNL     1       6.642   5.633  16.435  0.00  0.00    +0.000 NA
ATOM     23  C   UNL     1       7.124   6.864  16.718  0.00  0.00    +0.000 A 
ENDBRANCH  17  18
ENDBRANCH   9  16
TORSDOF 2
ENDMDL
MODEL 8
REMARK VINA RESULT:      -6.9      7.258     10.068
REMARK  Name = 
REMARK  5 active torsions:
REMARK  status: ('A' for Active; 'I' for Inactive)
REMARK    1  A    between atoms: C_1  and  N_2
REMARK    2  A    between atoms: C_9  and  C_10
REMARK    3  A    between atoms: C_11  and  C_12
REMARK    4  A    between atoms: C_21  and  C_22
REMARK    5  A    between atoms: C_21  and  C_23
REMARK                            x       y       z     vdW  Elec       q    Type
REMARK                         _______ _______ _______ _____ _____    ______ ____
ROOT
ATOM      1  C   UNL     1      -4.592  12.423  19.060  0.00  0.00    +0.000 C 
ATOM      2  N   UNL     1      -3.236  12.550  19.553  0.00  0.00    +0.000 N 
ATOM      3  C   UNL     1      -2.159  11.868  18.974  0.00  0.00    +0.000 C 
ATOM      4  O   UNL     1      -2.201  11.297  17.894  0.00  0.00    +0.000 OA
ATOM      5  N   UNL     1      -1.092  11.882  19.891  0.00  0.00    +0.000 N 
ATOM      6  C   UNL     1      -0.137  10.839  19.876  0.00  0.00    +0.000 A 
ATOM      7  C   UNL     1       0.515  10.509  18.689  0.00  0.00    +0.000 A 
ATOM      8  C   UNL     1       1.326   9.368  18.633  0.00  0.00    +0.000 A 
ATOM      9  C   UNL     1       1.450   8.555  19.753  0.00  0.00    +0.000 A 
ATOM     10  C   UNL     1       0.825   8.993  20.913  0.00  0.00    +0.000 A 
ATOM     11  N   UNL     1       0.073  10.129  21.011  0.00  0.00    +0.000 NA
ATOM     12  C   UNL     1      -1.469  12.565  21.110  0.00  0.00    +0.000 C 
ATOM     13  C   UNL     1      -2.902  13.099  20.866  0.00  0.00    +0.000 C 
ATOM     14  C   UNL     1      -2.941  14.633  20.804  0.00  0.00    +0.000 C 
ATOM     15  C   UNL     1      -3.839  12.616  21.981  0.00  0.00    +0.000 C 
ENDROOT
BRANCH   9  16
ATOM     16  C   UNL     1       2.163   7.305  19.681  0.00  0.00    +0.000 C 
ATOM     17  C   UNL     1       2.772   6.268  19.687  0.00  0.00    +0.000 C 
BRANCH  17  18
ATOM     18  C   UNL     1       3.482   5.022  19.715  0.00  0.00    +0.000 A 
ATOM     19  C   UNL     1       2.881   3.868  20.195  0.00  0.00    +0.000 A 
ATOM     20  C   UNL     1       3.624   2.704  20.201  0.00  0.00    +0.000 A 
ATOM     21  N   UNL     1       4.897   2.649  19.757  0.00  0.00    +0.000 NA
ATOM     22  N   UNL     1       5.486   3.777  19.280  0.00  0.00    +0.000 NA
ATOM     23  C   UNL     1       4.786   4.933  19.263  0.00  0.00    +0.000 A 
ENDBRANCH  17  18
ENDBRANCH   9  16
TORSDOF 2
ENDMDL
MODEL 9
REMARK VINA RESULT:      -6.9      7.888     10.841
REMARK  Name = 
REMARK  5 active torsions:
REMARK  status: ('A' for Active; 'I' for Inactive)
REMARK    1  A    between atoms: C_1  and  N_2
REMARK    2  A    between atoms: C_9  and  C_10
REMARK    3  A    between atoms: C_11  and  C_12
REMARK    4  A    between atoms: C_21  and  C_22
REMARK    5  A    between atoms: C_21  and  C_23
REMARK                            x       y       z     vdW  Elec       q    Type
REMARK                         _______ _______ _______ _____ _____    ______ ____
ROOT
ATOM      1  C   UNL     1      -4.186  13.691  20.870  0.00  0.00    +0.000 C 
ATOM      2  N   UNL     1      -2.769  13.569  21.146  0.00  0.00    +0.000 N 
ATOM      3  C   UNL     1      -1.942  12.683  20.445  0.00  0.00    +0.000 C 
ATOM      4  O   UNL     1      -2.258  12.109  19.413  0.00  0.00    +0.000 OA
ATOM      5  N   UNL     1      -0.759  12.512  21.188  0.00  0.00    +0.000 N 
ATOM      6  C   UNL     1      -0.028  11.307  21.080  0.00  0.00    +0.000 A 
ATOM      7  C   UNL     1       0.356  10.836  19.827  0.00  0.00    +0.000 A 
ATOM      8  C   UNL     1       0.924   9.561  19.704  0.00  0.00    +0.000 A 
ATOM      9  C   UNL     1       1.071   8.761  20.832  0.00  0.00    +0.000 A 
ATOM     10  C   UNL     1       0.728   9.332  22.050  0.00  0.00    +0.000 A 
ATOM     11  N   UNL     1       0.224  10.592  22.204  0.00  0.00    +0.000 NA
ATOM     12  C   UNL     1      -0.807  13.279  22.415  0.00  0.00    +0.000 C 
ATOM     13  C   UNL     1      -2.137  14.069  22.365  0.00  0.00    +0.000 C 
ATOM     14  C   UNL     1      -1.902  15.582  22.234  0.00  0.00    +0.000 C 
ATOM     15  C   UNL     1      -2.959  13.796  23.631  0.00  0.00    +0.000 C 
ENDROOT
BRANCH   9  16
ATOM     16  C   UNL     1       1.521   7.397  20.714  0.00  0.00    +0.000 C 
ATOM     17  C   UNL     1       1.960   6.282  20.617  0.00  0.00    +0.000 C 
BRANCH  17  18
ATOM     18  C   UNL     1       2.500   4.957  20.525  0.00  0.00    +0.000 A 
ATOM     19  C   UNL     1       2.036   3.937  21.343  0.00  0.00    +0.000 A 
ATOM     20  C   UNL     1       2.605   2.686  21.206  0.00  0.00    +0.000 A 
ATOM     21  N   UNL     1       3.581   2.422  20.314  0.00  0.00    +0.000 NA
ATOM     22  N   UNL     1       4.034   3.417  19.507  0.00  0.00    +0.000 NA
ATOM     23  C   UNL     1       3.498   4.654  19.616  0.00  0.00    +0.000 A 
ENDBRANCH  17  18
ENDBRANCH   9  16
TORSDOF 2
ENDMDL
