MODEL 1
REMARK VINA RESULT:      -6.1      0.000      0.000
REMARK  Name = 
REMARK  4 active torsions:
REMARK  status: ('A' for Active; 'I' for Inactive)
REMARK    1  A    between atoms: C_1  and  C_2
REMARK    2  A    between atoms: C_2  and  C_3
REMARK    3  A    between atoms: C_6  and  C_7
REMARK    4  A    between atoms: N_9  and  C_10
REMARK                            x       y       z     vdW  Elec       q    Type
REMARK                         _______ _______ _______ _____ _____    ______ ____
ROOT
ATOM      1  C   UNL     1       3.743   6.431  18.235  0.00  0.00    +0.000 C 
ATOM      2  N   UNL     1       2.710   5.888  18.833  0.00  0.00    +0.000 NA
ATOM      3  C   UNL     1       2.989   4.647  19.435  0.00  0.00    +0.000 A 
ATOM      4  C   UNL     1       2.107   3.790  20.104  0.00  0.00    +0.000 A 
ATOM      5  C   UNL     1       0.665   4.002  20.355  0.00  0.00    +0.000 C 
ATOM      6  N   UNL     1       2.742   2.674  20.508  0.00  0.00    +0.000 NA
ATOM      7  N   UNL     1       4.021   2.842  20.073  0.00  0.00    +0.000 N 
ATOM      8  C   UNL     1       4.996   1.803  20.299  0.00  0.00    +0.000 C 
ATOM      9  C   UNL     1       4.207   4.023  19.425  0.00  0.00    +0.000 A 
ATOM     10  C   UNL     1       5.295   4.655  18.779  0.00  0.00    +0.000 C 
ATOM     11  N   UNL     1       6.512   4.190  18.694  0.00  0.00    +0.000 NA
ATOM     12  C   UNL     1       7.216   5.252  17.906  0.00  0.00    +0.000 C 
ATOM     13  C   UNL     1       6.211   6.382  17.603  0.00  0.00    +0.000 C 
ATOM     14  N   UNL     1       5.012   5.864  18.197  0.00  0.00    +0.000 N 
ENDROOT
BRANCH   1  16
ATOM     15  C   UNL     1       2.072   8.225  17.879  0.00  0.00    +0.000 C 
ATOM     16  C   UNL     1       3.460   7.731  17.506  0.00  0.00    +0.000 C 
ENDBRANCH   1  16
TORSDOF 1
ENDMDL
MODEL 2
REMARK VINA RESULT:      -6.1      1.525      1.525
REMARK  Name = 
REMARK  4 active torsions:
REMARK  status: ('A' for Active; 'I' for Inactive)
REMARK    1  A    between atoms: C_1  and  C_2
REMARK    2  A    between atoms: C_2  and  C_3
REMARK    3  A    between atoms: C_6  and  C_7
REMARK    4  A    between atoms: N_9  and  C_10
REMARK                            x       y       z     vdW  Elec       q    Type
REMARK                         _______ _______ _______ _____ _____    ______ ____
ROOT
ATOM      1  C   UNL     1       3.455   6.498  17.806  0.00  0.00    +0.000 C 
ATOM      2  N   UNL     1       2.647   6.002  18.713  0.00  0.00    +0.000 NA
ATOM      3  C   UNL     1       2.729   4.603  18.844  0.00  0.00    +0.000 A 
ATOM      4  C   UNL     1       1.978   3.765  19.675  0.00  0.00    +0.000 A 
ATOM      5  C   UNL     1       0.924   4.162  20.635  0.00  0.00    +0.000 C 
ATOM      6  N   UNL     1       2.321   2.477  19.489  0.00  0.00    +0.000 NA
ATOM      7  N   UNL     1       3.284   2.525  18.527  0.00  0.00    +0.000 N 
ATOM      8  C   UNL     1       3.867   1.299  18.039  0.00  0.00    +0.000 C 
ATOM      9  C   UNL     1       3.558   3.791  18.118  0.00  0.00    +0.000 A 
ATOM     10  C   UNL     1       4.422   4.374  17.161  0.00  0.00    +0.000 C 
ATOM     11  N   UNL     1       5.270   3.734  16.403  0.00  0.00    +0.000 NA
ATOM     12  C   UNL     1       5.889   4.835  15.598  0.00  0.00    +0.000 C 
ATOM     13  C   UNL     1       5.277   6.176  16.054  0.00  0.00    +0.000 C 
ATOM     14  N   UNL     1       4.334   5.737  17.043  0.00  0.00    +0.000 N 
ENDROOT
BRANCH   1  16
ATOM     15  C   UNL     1       1.918   8.438  17.892  0.00  0.00    +0.000 C 
ATOM     16  C   UNL     1       3.337   7.993  17.580  0.00  0.00    +0.000 C 
ENDBRANCH   1  16
TORSDOF 1
ENDMDL
MODEL 3
REMARK VINA RESULT:      -6.0      0.817      3.431
REMARK  Name = 
REMARK  4 active torsions:
REMARK  status: ('A' for Active; 'I' for Inactive)
REMARK    1  A    between atoms: C_1  and  C_2
REMARK    2  A    between atoms: C_2  and  C_3
REMARK    3  A    between atoms: C_6  and  C_7
REMARK    4  A    between atoms: N_9  and  C_10
REMARK                            x       y       z     vdW  Elec       q    Type
REMARK                         _______ _______ _______ _____ _____    ______ ____
ROOT
ATOM      1  C   UNL     1       5.726   5.090  18.269  0.00  0.00    +0.000 C 
ATOM      2  N   UNL     1       5.707   3.950  18.918  0.00  0.00    +0.000 NA
ATOM      3  C   UNL     1       4.457   3.640  19.485  0.00  0.00    +0.000 A 
ATOM      4  C   UNL     1       4.113   2.537  20.274  0.00  0.00    +0.000 A 
ATOM      5  C   UNL     1       4.988   1.417  20.684  0.00  0.00    +0.000 C 
ATOM      6  N   UNL     1       2.826   2.611  20.662  0.00  0.00    +0.000 NA
ATOM      7  N   UNL     1       2.380   3.775  20.115  0.00  0.00    +0.000 N 
ATOM      8  C   UNL     1       1.026   4.207  20.359  0.00  0.00    +0.000 C 
ATOM      9  C   UNL     1       3.336   4.420  19.395  0.00  0.00    +0.000 A 
ATOM     10  C   UNL     1       3.402   5.634  18.672  0.00  0.00    +0.000 C 
ATOM     11  N   UNL     1       2.420   6.474  18.493  0.00  0.00    +0.000 NA
ATOM     12  C   UNL     1       3.058   7.559  17.680  0.00  0.00    +0.000 C 
ATOM     13  C   UNL     1       4.527   7.168  17.412  0.00  0.00    +0.000 C 
ATOM     14  N   UNL     1       4.625   5.925  18.123  0.00  0.00    +0.000 N 
ENDROOT
BRANCH   1  16
ATOM     15  C   UNL     1       7.870   6.214  18.792  0.00  0.00    +0.000 C 
ATOM     16  C   UNL     1       7.078   5.496  17.712  0.00  0.00    +0.000 C 
ENDBRANCH   1  16
TORSDOF 1
ENDMDL
MODEL 4
REMARK VINA RESULT:      -5.8      1.741      3.492
REMARK  Name = 
REMARK  4 active torsions:
REMARK  status: ('A' for Active; 'I' for Inactive)
REMARK    1  A    between atoms: C_1  and  C_2
REMARK    2  A    between atoms: C_2  and  C_3
REMARK    3  A    between atoms: C_6  and  C_7
REMARK    4  A    between atoms: N_9  and  C_10
REMARK                            x       y       z     vdW  Elec       q    Type
REMARK                         _______ _______ _______ _____ _____    ______ ____
ROOT
ATOM      1  C   UNL     1       4.752   5.000  16.812  0.00  0.00    +0.000 C 
ATOM      2  N   UNL     1       4.635   3.741  17.161  0.00  0.00    +0.000 NA
ATOM      3  C   UNL     1       3.661   3.514  18.151  0.00  0.00    +0.000 A 
ATOM      4  C   UNL     1       3.323   2.307  18.774  0.00  0.00    +0.000 A 
ATOM      5  C   UNL     1       3.904   0.971  18.519  0.00  0.00    +0.000 C 
ATOM      6  N   UNL     1       2.366   2.500  19.701  0.00  0.00    +0.000 NA
ATOM      7  N   UNL     1       2.122   3.840  19.653  0.00  0.00    +0.000 N 
ATOM      8  C   UNL     1       1.161   4.424  20.556  0.00  0.00    +0.000 C 
ATOM      9  C   UNL     1       2.883   4.481  18.728  0.00  0.00    +0.000 A 
ATOM     10  C   UNL     1       3.036   5.824  18.308  0.00  0.00    +0.000 C 
ATOM     11  N   UNL     1       2.364   6.849  18.756  0.00  0.00    +0.000 NA
ATOM     12  C   UNL     1       2.944   7.989  17.977  0.00  0.00    +0.000 C 
ATOM     13  C   UNL     1       4.009   7.430  17.012  0.00  0.00    +0.000 C 
ATOM     14  N   UNL     1       3.987   6.033  17.342  0.00  0.00    +0.000 N 
ENDROOT
BRANCH   1  16
ATOM     15  C   UNL     1       5.637   4.436  14.568  0.00  0.00    +0.000 C 
ATOM     16  C   UNL     1       5.847   5.294  15.805  0.00  0.00    +0.000 C 
ENDBRANCH   1  16
TORSDOF 1
ENDMDL
MODEL 5
REMARK VINA RESULT:      -5.8      1.809      4.385
REMARK  Name = 
REMARK  4 active torsions:
REMARK  status: ('A' for Active; 'I' for Inactive)
REMARK    1  A    between atoms: C_1  and  C_2
REMARK    2  A    between atoms: C_2  and  C_3
REMARK    3  A    between atoms: C_6  and  C_7
REMARK    4  A    between atoms: N_9  and  C_10
REMARK                            x       y       z     vdW  Elec       q    Type
REMARK                         _______ _______ _______ _____ _____    ______ ____
ROOT
ATOM      1  C   UNL     1       1.802   4.005  19.652  0.00  0.00    +0.000 C 
ATOM      2  N   UNL     1       1.644   5.307  19.675  0.00  0.00    +0.000 NA
ATOM      3  C   UNL     1       2.478   5.997  18.775  0.00  0.00    +0.000 A 
ATOM      4  C   UNL     1       2.594   7.378  18.586  0.00  0.00    +0.000 A 
ATOM      5  C   UNL     1       1.844   8.447  19.282  0.00  0.00    +0.000 C 
ATOM      6  N   UNL     1       3.530   7.656  17.659  0.00  0.00    +0.000 NA
ATOM      7  N   UNL     1       4.000   6.434  17.284  0.00  0.00    +0.000 N 
ATOM      8  C   UNL     1       5.062   6.343  16.314  0.00  0.00    +0.000 C 
ATOM      9  C   UNL     1       3.385   5.411  17.934  0.00  0.00    +0.000 A 
ATOM     10  C   UNL     1       3.509   4.001  17.936  0.00  0.00    +0.000 C 
ATOM     11  N   UNL     1       4.320   3.302  17.189  0.00  0.00    +0.000 NA
ATOM     12  C   UNL     1       4.032   1.896  17.619  0.00  0.00    +0.000 C 
ATOM     13  C   UNL     1       2.920   1.929  18.687  0.00  0.00    +0.000 C 
ATOM     14  N   UNL     1       2.691   3.340  18.816  0.00  0.00    +0.000 N 
ENDROOT
BRANCH   1  16
ATOM     15  C   UNL     1       1.827   2.950  21.893  0.00  0.00    +0.000 C 
ATOM     16  C   UNL     1       0.977   3.234  20.665  0.00  0.00    +0.000 C 
ENDBRANCH   1  16
TORSDOF 1
ENDMDL
MODEL 6
REMARK VINA RESULT:      -5.6      1.731      2.077
REMARK  Name = 
REMARK  4 active torsions:
REMARK  status: ('A' for Active; 'I' for Inactive)
REMARK    1  A    between atoms: C_1  and  C_2
REMARK    2  A    between atoms: C_2  and  C_3
REMARK    3  A    between atoms: C_6  and  C_7
REMARK    4  A    between atoms: N_9  and  C_10
REMARK                            x       y       z     vdW  Elec       q    Type
REMARK                         _______ _______ _______ _____ _____    ______ ____
ROOT
ATOM      1  C   UNL     1       2.509   6.535  19.457  0.00  0.00    +0.000 C 
ATOM      2  N   UNL     1       2.044   5.588  20.236  0.00  0.00    +0.000 NA
ATOM      3  C   UNL     1       2.451   4.294  19.864  0.00  0.00    +0.000 A 
ATOM      4  C   UNL     1       2.096   3.072  20.447  0.00  0.00    +0.000 A 
ATOM      5  C   UNL     1       1.217   2.857  21.617  0.00  0.00    +0.000 C 
ATOM      6  N   UNL     1       2.659   2.045  19.783  0.00  0.00    +0.000 NA
ATOM      7  N   UNL     1       3.356   2.642  18.776  0.00  0.00    +0.000 N 
ATOM      8  C   UNL     1       4.068   1.830  17.821  0.00  0.00    +0.000 C 
ATOM      9  C   UNL     1       3.256   3.997  18.797  0.00  0.00    +0.000 A 
ATOM     10  C   UNL     1       3.744   5.054  17.993  0.00  0.00    +0.000 C 
ATOM     11  N   UNL     1       4.524   4.930  16.954  0.00  0.00    +0.000 NA
ATOM     12  C   UNL     1       4.701   6.348  16.504  0.00  0.00    +0.000 C 
ATOM     13  C   UNL     1       3.930   7.267  17.473  0.00  0.00    +0.000 C 
ATOM     14  N   UNL     1       3.342   6.311  18.366  0.00  0.00    +0.000 N 
ENDROOT
BRANCH   1  16
ATOM     15  C   UNL     1       1.314   7.925  21.122  0.00  0.00    +0.000 C 
ATOM     16  C   UNL     1       2.026   7.936  19.779  0.00  0.00    +0.000 C 
ENDBRANCH   1  16
TORSDOF 1
ENDMDL
MODEL 7
REMARK VINA RESULT:      -5.5      2.367      4.484
REMARK  Name = 
REMARK  4 active torsions:
REMARK  status: ('A' for Active; 'I' for Inactive)
REMARK    1  A    between atoms: C_1  and  C_2
REMARK    2  A    between atoms: C_2  and  C_3
REMARK    3  A    between atoms: C_6  and  C_7
REMARK    4  A    between atoms: N_9  and  C_10
REMARK                            x       y       z     vdW  Elec       q    Type
REMARK                         _______ _______ _______ _____ _____    ______ ____
ROOT
ATOM      1  C   UNL     1       3.393   6.705  18.327  0.00  0.00    +0.000 C 
ATOM      2  N   UNL     1       4.515   7.362  18.156  0.00  0.00    +0.000 NA
ATOM      3  C   UNL     1       5.486   6.651  17.426  0.00  0.00    +0.000 A 
ATOM      4  C   UNL     1       6.793   7.041  17.113  0.00  0.00    +0.000 A 
ATOM      5  C   UNL     1       7.459   8.314  17.463  0.00  0.00    +0.000 C 
ATOM      6  N   UNL     1       7.430   6.070  16.431  0.00  0.00    +0.000 NA
ATOM      7  N   UNL     1       6.508   5.071  16.335  0.00  0.00    +0.000 N 
ATOM      8  C   UNL     1       6.862   3.832  15.688  0.00  0.00    +0.000 C 
ATOM      9  C   UNL     1       5.324   5.389  16.921  0.00  0.00    +0.000 A 
ATOM     10  C   UNL     1       4.090   4.725  17.119  0.00  0.00    +0.000 C 
ATOM     11  N   UNL     1       3.785   3.530  16.692  0.00  0.00    +0.000 NA
ATOM     12  C   UNL     1       2.386   3.348  17.196  0.00  0.00    +0.000 C 
ATOM     13  C   UNL     1       1.960   4.636  17.931  0.00  0.00    +0.000 C 
ATOM     14  N   UNL     1       3.152   5.428  17.830  0.00  0.00    +0.000 N 
ENDROOT
BRANCH   1  16
ATOM     15  C   UNL     1       1.871   8.654  18.453  0.00  0.00    +0.000 C 
ATOM     16  C   UNL     1       2.353   7.408  19.177  0.00  0.00    +0.000 C 
ENDBRANCH   1  16
TORSDOF 1
ENDMDL
MODEL 8
REMARK VINA RESULT:      -5.5      1.795      3.882
REMARK  Name = 
REMARK  4 active torsions:
REMARK  status: ('A' for Active; 'I' for Inactive)
REMARK    1  A    between atoms: C_1  and  C_2
REMARK    2  A    between atoms: C_2  and  C_3
REMARK    3  A    between atoms: C_6  and  C_7
REMARK    4  A    between atoms: N_9  and  C_10
REMARK                            x       y       z     vdW  Elec       q    Type
REMARK                         _______ _______ _______ _____ _____    ______ ____
ROOT
ATOM      1  C   UNL     1       2.626   6.510  18.756  0.00  0.00    +0.000 C 
ATOM      2  N   UNL     1       3.444   6.433  17.734  0.00  0.00    +0.000 NA
ATOM      3  C   UNL     1       3.859   5.121  17.435  0.00  0.00    +0.000 A 
ATOM      4  C   UNL     1       4.758   4.700  16.449  0.00  0.00    +0.000 A 
ATOM      5  C   UNL     1       5.474   5.543  15.467  0.00  0.00    +0.000 C 
ATOM      6  N   UNL     1       4.930   3.366  16.498  0.00  0.00    +0.000 NA
ATOM      7  N   UNL     1       4.137   2.967  17.531  0.00  0.00    +0.000 N 
ATOM      8  C   UNL     1       4.099   1.575  17.907  0.00  0.00    +0.000 C 
ATOM      9  C   UNL     1       3.474   3.998  18.116  0.00  0.00    +0.000 A 
ATOM     10  C   UNL     1       2.578   4.131  19.204  0.00  0.00    +0.000 C 
ATOM     11  N   UNL     1       2.116   3.157  19.940  0.00  0.00    +0.000 NA
ATOM     12  C   UNL     1       1.242   3.873  20.922  0.00  0.00    +0.000 C 
ATOM     13  C   UNL     1       1.267   5.379  20.592  0.00  0.00    +0.000 C 
ATOM     14  N   UNL     1       2.180   5.412  19.485  0.00  0.00    +0.000 N 
ENDROOT
BRANCH   1  16
ATOM     15  C   UNL     1       1.871   8.713  17.912  0.00  0.00    +0.000 C 
ATOM     16  C   UNL     1       2.221   7.915  19.158  0.00  0.00    +0.000 C 
ENDBRANCH   1  16
TORSDOF 1
ENDMDL
MODEL 9
REMARK VINA RESULT:      -5.4      2.087      4.502
REMARK  Name = 
REMARK  4 active torsions:
REMARK  status: ('A' for Active; 'I' for Inactive)
REMARK    1  A    between atoms: C_1  and  C_2
REMARK    2  A    between atoms: C_2  and  C_3
REMARK    3  A    between atoms: C_6  and  C_7
REMARK    4  A    between atoms: N_9  and  C_10
REMARK                            x       y       z     vdW  Elec       q    Type
REMARK                         _______ _______ _______ _____ _____    ______ ____
ROOT
ATOM      1  C   UNL     1       2.619   4.345  20.484  0.00  0.00    +0.000 C 
ATOM      2  N   UNL     1       1.984   5.356  21.025  0.00  0.00    +0.000 NA
ATOM      3  C   UNL     1       1.991   6.521  20.235  0.00  0.00    +0.000 A 
ATOM      4  C   UNL     1       1.454   7.777  20.536  0.00  0.00    +0.000 A 
ATOM      5  C   UNL     1       0.726   8.172  21.762  0.00  0.00    +0.000 C 
ATOM      6  N   UNL     1       1.696   8.652  19.542  0.00  0.00    +0.000 NA
ATOM      7  N   UNL     1       2.398   7.927  18.626  0.00  0.00    +0.000 N 
ATOM      8  C   UNL     1       2.871   8.564  17.422  0.00  0.00    +0.000 C 
ATOM      9  C   UNL     1       2.591   6.638  19.010  0.00  0.00    +0.000 A 
ATOM     10  C   UNL     1       3.253   5.514  18.461  0.00  0.00    +0.000 C 
ATOM     11  N   UNL     1       3.861   5.470  17.307  0.00  0.00    +0.000 NA
ATOM     12  C   UNL     1       4.375   4.064  17.259  0.00  0.00    +0.000 C 
ATOM     13  C   UNL     1       3.928   3.336  18.544  0.00  0.00    +0.000 C 
ATOM     14  N   UNL     1       3.238   4.385  19.239  0.00  0.00    +0.000 N 
ENDROOT
BRANCH   1  16
ATOM     15  C   UNL     1       1.296   2.591  21.629  0.00  0.00    +0.000 C 
ATOM     16  C   UNL     1       2.700   3.097  21.342  0.00  0.00    +0.000 C 
ENDBRANCH   1  16
TORSDOF 1
ENDMDL
