MODEL 1
REMARK VINA RESULT:      -8.0      0.000      0.000
REMARK  Name = 
REMARK  8 active torsions:
REMARK  status: ('A' for Active; 'I' for Inactive)
REMARK    1  A    between atoms: C_1  and  C_2
REMARK    2  A    between atoms: C_2  and  N_3
REMARK    3  A    between atoms: C_4  and  C_6
REMARK    4  A    between atoms: C_9  and  N_10
REMARK    5  A    between atoms: C_13  and  C_14
REMARK    6  A    between atoms: C_19  and  C_20
REMARK    7  A    between atoms: C_24  and  C_25
REMARK    8  A    between atoms: C_25  and  O_27
REMARK                            x       y       z     vdW  Elec       q    Type
REMARK                         _______ _______ _______ _____ _____    ______ ____
ROOT
ATOM      1  C   UNL     1      -3.336  10.569  15.333  0.00  0.00    +0.000 A 
ATOM      2  C   UNL     1      -2.361  10.573  16.319  0.00  0.00    +0.000 A 
ATOM      3  C   UNL     1      -2.861  11.255  17.470  0.00  0.00    +0.000 A 
ATOM      4  C   UNL     1      -2.404  11.561  18.779  0.00  0.00    +0.000 A 
ATOM      5  C   UNL     1      -3.283  12.233  19.679  0.00  0.00    +0.000 A 
ATOM      6  C   UNL     1      -4.565  12.515  19.173  0.00  0.00    +0.000 A 
ATOM      7  N   UNL     1      -5.052  12.233  17.940  0.00  0.00    +0.000 NA
ATOM      8  C   UNL     1      -4.164  11.617  17.152  0.00  0.00    +0.000 A 
ATOM      9  N   UNL     1      -4.423  11.223  15.872  0.00  0.00    +0.000 N 
ATOM     10  H   UNL     1      -5.306  11.360  15.397  0.00  0.00    +0.000 HD
ENDROOT
BRANCH   5  11
ATOM     11  C   UNL     1      -2.928  12.727  21.036  0.00  0.00    +0.000 A 
ATOM     12  C   UNL     1      -1.784  13.500  21.277  0.00  0.00    +0.000 A 
ATOM     13  N   UNL     1      -1.400  13.974  22.490  0.00  0.00    +0.000 NA
ATOM     14  C   UNL     1      -2.213  13.708  23.537  0.00  0.00    +0.000 A 
ATOM     15  C   UNL     1      -3.376  12.970  23.420  0.00  0.00    +0.000 A 
ATOM     16  C   UNL     1      -3.695  12.425  22.173  0.00  0.00    +0.000 A 
BRANCH  15  17
ATOM     17  C   UNL     1      -4.221  12.768  24.611  0.00  0.00    +0.000 C 
ATOM     18  O   UNL     1      -5.148  11.977  24.639  0.00  0.00    +0.000 OA
BRANCH  17  19
ATOM     19  O   UNL     1      -3.855  13.525  25.666  0.00  0.00    +0.000 OA
ATOM     20  H   UNL     1      -4.186  14.444  25.633  0.00  0.00    +0.000 HD
ENDBRANCH  17  19
ENDBRANCH  15  17
ENDBRANCH   5  11
BRANCH   4  21
ATOM     21  N   UNL     1      -1.102  11.136  19.153  0.00  0.00    +0.000 N 
ATOM     22  C   UNL     1       0.098  11.693  18.765  0.00  0.00    +0.000 A 
ATOM     23  C   UNL     1       1.099  10.921  19.298  0.00  0.00    +0.000 A 
ATOM     24  C   UNL     1       0.435   9.909  20.029  0.00  0.00    +0.000 A 
ATOM     25  N   UNL     1      -0.899  10.092  19.991  0.00  0.00    +0.000 NA
BRANCH  24  26
ATOM     26  C   UNL     1       1.073   8.811  20.839  0.00  0.00    +0.000 C 
ATOM     27  F   UNL     1       1.750   9.301  21.911  0.00  0.00    +0.000 F 
ATOM     28  F   UNL     1       0.125   7.968  21.330  0.00  0.00    +0.000 F 
ATOM     29  F   UNL     1       1.949   8.066  20.121  0.00  0.00    +0.000 F 
ENDBRANCH  24  26
ENDBRANCH   4  21
BRANCH   1  31
ATOM     30  N   UNL     1      -4.598  10.002  13.396  0.00  0.00    +0.000 N 
ATOM     31  C   UNL     1      -3.361  10.022  13.995  0.00  0.00    +0.000 C 
ATOM     32  O   UNL     1      -2.346   9.605  13.446  0.00  0.00    +0.000 OA
ATOM     33  H   UNL     1      -5.383  10.427  13.863  0.00  0.00    +0.000 HD
BRANCH  30  35
ATOM     34  C   UNL     1      -6.247   9.255  11.749  0.00  0.00    +0.000 C 
ATOM     35  C   UNL     1      -4.788   9.562  12.031  0.00  0.00    +0.000 C 
ENDBRANCH  30  35
ENDBRANCH   1  31
TORSDOF 7
ENDMDL
MODEL 2
REMARK VINA RESULT:      -7.9      1.765      2.146
REMARK  Name = 
REMARK  8 active torsions:
REMARK  status: ('A' for Active; 'I' for Inactive)
REMARK    1  A    between atoms: C_1  and  C_2
REMARK    2  A    between atoms: C_2  and  N_3
REMARK    3  A    between atoms: C_4  and  C_6
REMARK    4  A    between atoms: C_9  and  N_10
REMARK    5  A    between atoms: C_13  and  C_14
REMARK    6  A    between atoms: C_19  and  C_20
REMARK    7  A    between atoms: C_24  and  C_25
REMARK    8  A    between atoms: C_25  and  O_27
REMARK                            x       y       z     vdW  Elec       q    Type
REMARK                         _______ _______ _______ _____ _____    ______ ____
ROOT
ATOM      1  C   UNL     1      -3.435  10.602  15.281  0.00  0.00    +0.000 A 
ATOM      2  C   UNL     1      -2.403  10.837  16.177  0.00  0.00    +0.000 A 
ATOM      3  C   UNL     1      -2.939  11.410  17.370  0.00  0.00    +0.000 A 
ATOM      4  C   UNL     1      -2.448  11.830  18.635  0.00  0.00    +0.000 A 
ATOM      5  C   UNL     1      -3.371  12.306  19.612  0.00  0.00    +0.000 A 
ATOM      6  C   UNL     1      -4.723  12.290  19.223  0.00  0.00    +0.000 A 
ATOM      7  N   UNL     1      -5.242  11.888  18.037  0.00  0.00    +0.000 NA
ATOM      8  C   UNL     1      -4.312  11.470  17.170  0.00  0.00    +0.000 A 
ATOM      9  N   UNL     1      -4.589  11.009  15.917  0.00  0.00    +0.000 N 
ATOM     10  H   UNL     1      -5.518  10.940  15.523  0.00  0.00    +0.000 HD
ENDROOT
BRANCH   5  11
ATOM     11  C   UNL     1      -3.017  12.887  20.933  0.00  0.00    +0.000 A 
ATOM     12  C   UNL     1      -1.991  13.829  21.087  0.00  0.00    +0.000 A 
ATOM     13  N   UNL     1      -1.613  14.391  22.264  0.00  0.00    +0.000 NA
ATOM     14  C   UNL     1      -2.314  14.038  23.365  0.00  0.00    +0.000 A 
ATOM     15  C   UNL     1      -3.358  13.131  23.336  0.00  0.00    +0.000 A 
ATOM     16  C   UNL     1      -3.662  12.507  22.122  0.00  0.00    +0.000 A 
BRANCH  15  17
ATOM     17  C   UNL     1      -4.092  12.839  24.580  0.00  0.00    +0.000 C 
ATOM     18  O   UNL     1      -4.863  11.902  24.690  0.00  0.00    +0.000 OA
BRANCH  17  19
ATOM     19  O   UNL     1      -3.810  13.696  25.584  0.00  0.00    +0.000 OA
ATOM     20  H   UNL     1      -3.743  13.275  26.462  0.00  0.00    +0.000 HD
ENDBRANCH  17  19
ENDBRANCH  15  17
ENDBRANCH   5  11
BRANCH   4  21
ATOM     21  N   UNL     1      -1.057  11.709  18.889  0.00  0.00    +0.000 N 
ATOM     22  C   UNL     1      -0.426  10.709  19.598  0.00  0.00    +0.000 A 
ATOM     23  C   UNL     1       0.907  11.028  19.659  0.00  0.00    +0.000 A 
ATOM     24  C   UNL     1       1.030  12.239  18.939  0.00  0.00    +0.000 A 
ATOM     25  N   UNL     1      -0.158  12.604  18.418  0.00  0.00    +0.000 NA
BRANCH  24  26
ATOM     26  C   UNL     1       2.295  13.011  18.673  0.00  0.00    +0.000 C 
ATOM     27  F   UNL     1       2.966  13.293  19.821  0.00  0.00    +0.000 F 
ATOM     28  F   UNL     1       3.144  12.284  17.897  0.00  0.00    +0.000 F 
ATOM     29  F   UNL     1       2.073  14.190  18.042  0.00  0.00    +0.000 F 
ENDBRANCH  24  26
ENDBRANCH   4  21
BRANCH   1  31
ATOM     30  N   UNL     1      -4.692  10.010  13.348  0.00  0.00    +0.000 N 
ATOM     31  C   UNL     1      -3.456  10.042  13.948  0.00  0.00    +0.000 C 
ATOM     32  O   UNL     1      -2.438   9.625  13.404  0.00  0.00    +0.000 OA
ATOM     33  H   UNL     1      -5.480  10.436  13.809  0.00  0.00    +0.000 HD
BRANCH  30  35
ATOM     34  C   UNL     1      -6.328   9.192  11.721  0.00  0.00    +0.000 C 
ATOM     35  C   UNL     1      -4.879   9.556  11.987  0.00  0.00    +0.000 C 
ENDBRANCH  30  35
ENDBRANCH   1  31
TORSDOF 7
ENDMDL
MODEL 3
REMARK VINA RESULT:      -7.8      3.478      6.303
REMARK  Name = 
REMARK  8 active torsions:
REMARK  status: ('A' for Active; 'I' for Inactive)
REMARK    1  A    between atoms: C_1  and  C_2
REMARK    2  A    between atoms: C_2  and  N_3
REMARK    3  A    between atoms: C_4  and  C_6
REMARK    4  A    between atoms: C_9  and  N_10
REMARK    5  A    between atoms: C_13  and  C_14
REMARK    6  A    between atoms: C_19  and  C_20
REMARK    7  A    between atoms: C_24  and  C_25
REMARK    8  A    between atoms: C_25  and  O_27
REMARK                            x       y       z     vdW  Elec       q    Type
REMARK                         _______ _______ _______ _____ _____    ______ ____
ROOT
ATOM      1  C   UNL     1       2.004   7.553  19.784  0.00  0.00    +0.000 A 
ATOM      2  C   UNL     1       1.164   8.551  19.317  0.00  0.00    +0.000 A 
ATOM      3  C   UNL     1       0.643   9.283  20.426  0.00  0.00    +0.000 A 
ATOM      4  C   UNL     1      -0.204  10.406  20.628  0.00  0.00    +0.000 A 
ATOM      5  C   UNL     1      -0.427  10.875  21.955  0.00  0.00    +0.000 A 
ATOM      6  C   UNL     1       0.254  10.171  22.966  0.00  0.00    +0.000 A 
ATOM      7  N   UNL     1       1.081   9.106  22.825  0.00  0.00    +0.000 NA
ATOM      8  C   UNL     1       1.226   8.718  21.552  0.00  0.00    +0.000 A 
ATOM      9  N   UNL     1       2.013   7.677  21.157  0.00  0.00    +0.000 N 
ATOM     10  H   UNL     1       2.559   7.100  21.784  0.00  0.00    +0.000 HD
ENDROOT
BRANCH   5  11
ATOM     11  C   UNL     1      -1.368  11.956  22.351  0.00  0.00    +0.000 A 
ATOM     12  C   UNL     1      -1.188  13.288  21.954  0.00  0.00    +0.000 A 
ATOM     13  N   UNL     1      -2.004  14.321  22.287  0.00  0.00    +0.000 NA
ATOM     14  C   UNL     1      -3.095  14.026  23.028  0.00  0.00    +0.000 A 
ATOM     15  C   UNL     1      -3.387  12.747  23.465  0.00  0.00    +0.000 A 
ATOM     16  C   UNL     1      -2.479  11.723  23.176  0.00  0.00    +0.000 A 
BRANCH  15  17
ATOM     17  C   UNL     1      -4.624  12.514  24.232  0.00  0.00    +0.000 C 
ATOM     18  O   UNL     1      -5.705  12.320  23.704  0.00  0.00    +0.000 OA
BRANCH  17  19
ATOM     19  O   UNL     1      -4.436  12.517  25.568  0.00  0.00    +0.000 OA
ATOM     20  H   UNL     1      -5.245  12.341  26.086  0.00  0.00    +0.000 HD
ENDBRANCH  17  19
ENDBRANCH  15  17
ENDBRANCH   5  11
BRANCH   4  21
ATOM     21  N   UNL     1      -0.753  11.046  19.486  0.00  0.00    +0.000 N 
ATOM     22  C   UNL     1      -0.379  12.262  18.954  0.00  0.00    +0.000 A 
ATOM     23  C   UNL     1      -1.221  12.527  17.904  0.00  0.00    +0.000 A 
ATOM     24  C   UNL     1      -2.083  11.409  17.831  0.00  0.00    +0.000 A 
ATOM     25  N   UNL     1      -1.743  10.485  18.753  0.00  0.00    +0.000 NA
BRANCH  24  26
ATOM     26  C   UNL     1      -3.182  11.176  16.829  0.00  0.00    +0.000 C 
ATOM     27  F   UNL     1      -4.207  12.055  16.988  0.00  0.00    +0.000 F 
ATOM     28  F   UNL     1      -2.717  11.347  15.562  0.00  0.00    +0.000 F 
ATOM     29  F   UNL     1      -3.712   9.931  16.905  0.00  0.00    +0.000 F 
ENDBRANCH  24  26
ENDBRANCH   4  21
BRANCH   1  31
ATOM     30  N   UNL     1       3.602   5.792  19.917  0.00  0.00    +0.000 N 
ATOM     31  C   UNL     1       2.785   6.542  19.105  0.00  0.00    +0.000 C 
ATOM     32  O   UNL     1       2.717   6.378  17.891  0.00  0.00    +0.000 OA
ATOM     33  H   UNL     1       3.561   5.918  20.916  0.00  0.00    +0.000 HD
BRANCH  30  35
ATOM     34  C   UNL     1       5.830   5.101  19.178  0.00  0.00    +0.000 C 
ATOM     35  C   UNL     1       4.389   4.688  19.413  0.00  0.00    +0.000 C 
ENDBRANCH  30  35
ENDBRANCH   1  31
TORSDOF 7
ENDMDL
MODEL 4
REMARK VINA RESULT:      -7.7      4.585      6.203
REMARK  Name = 
REMARK  8 active torsions:
REMARK  status: ('A' for Active; 'I' for Inactive)
REMARK    1  A    between atoms: C_1  and  C_2
REMARK    2  A    between atoms: C_2  and  N_3
REMARK    3  A    between atoms: C_4  and  C_6
REMARK    4  A    between atoms: C_9  and  N_10
REMARK    5  A    between atoms: C_13  and  C_14
REMARK    6  A    between atoms: C_19  and  C_20
REMARK    7  A    between atoms: C_24  and  C_25
REMARK    8  A    between atoms: C_25  and  O_27
REMARK                            x       y       z     vdW  Elec       q    Type
REMARK                         _______ _______ _______ _____ _____    ______ ____
ROOT
ATOM      1  C   UNL     1       1.761   8.005  19.937  0.00  0.00    +0.000 A 
ATOM      2  C   UNL     1       1.367   9.303  19.649  0.00  0.00    +0.000 A 
ATOM      3  C   UNL     1       0.601   9.813  20.741  0.00  0.00    +0.000 A 
ATOM      4  C   UNL     1      -0.034  11.036  21.085  0.00  0.00    +0.000 A 
ATOM      5  C   UNL     1      -0.663  11.154  22.359  0.00  0.00    +0.000 A 
ATOM      6  C   UNL     1      -0.569  10.020  23.186  0.00  0.00    +0.000 A 
ATOM      7  N   UNL     1       0.035   8.838  22.910  0.00  0.00    +0.000 NA
ATOM      8  C   UNL     1       0.588   8.802  21.692  0.00  0.00    +0.000 A 
ATOM      9  N   UNL     1       1.260   7.726  21.191  0.00  0.00    +0.000 N 
ATOM     10  H   UNL     1       1.403   6.856  21.688  0.00  0.00    +0.000 HD
ENDROOT
BRANCH   5  11
ATOM     11  C   UNL     1      -1.467  12.313  22.829  0.00  0.00    +0.000 A 
ATOM     12  C   UNL     1      -0.897  13.569  23.077  0.00  0.00    +0.000 A 
ATOM     13  N   UNL     1      -1.572  14.663  23.515  0.00  0.00    +0.000 NA
ATOM     14  C   UNL     1      -2.906  14.532  23.685  0.00  0.00    +0.000 A 
ATOM     15  C   UNL     1      -3.583  13.349  23.456  0.00  0.00    +0.000 A 
ATOM     16  C   UNL     1      -2.844  12.220  23.090  0.00  0.00    +0.000 A 
BRANCH  15  17
ATOM     17  C   UNL     1      -5.047  13.313  23.628  0.00  0.00    +0.000 C 
ATOM     18  O   UNL     1      -5.736  12.383  23.246  0.00  0.00    +0.000 OA
BRANCH  17  19
ATOM     19  O   UNL     1      -5.540  14.397  24.263  0.00  0.00    +0.000 OA
ATOM     20  H   UNL     1      -4.866  14.929  24.728  0.00  0.00    +0.000 HD
ENDBRANCH  17  19
ENDBRANCH  15  17
ENDBRANCH   5  11
BRANCH   4  21
ATOM     21  N   UNL     1       0.030  12.110  20.159  0.00  0.00    +0.000 N 
ATOM     22  C   UNL     1      -0.891  12.423  19.183  0.00  0.00    +0.000 A 
ATOM     23  C   UNL     1      -0.392  13.487  18.474  0.00  0.00    +0.000 A 
ATOM     24  C   UNL     1       0.842  13.794  19.090  0.00  0.00    +0.000 A 
ATOM     25  N   UNL     1       1.054  12.997  20.156  0.00  0.00    +0.000 NA
BRANCH  24  26
ATOM     26  C   UNL     1       1.788  14.906  18.719  0.00  0.00    +0.000 C 
ATOM     27  F   UNL     1       1.123  16.020  18.311  0.00  0.00    +0.000 F 
ATOM     28  F   UNL     1       2.539  15.273  19.793  0.00  0.00    +0.000 F 
ATOM     29  F   UNL     1       2.640  14.564  17.722  0.00  0.00    +0.000 F 
ENDBRANCH  24  26
ENDBRANCH   4  21
BRANCH   1  31
ATOM     30  N   UNL     1       3.137   6.062  19.957  0.00  0.00    +0.000 N 
ATOM     31  C   UNL     1       2.542   7.040  19.196  0.00  0.00    +0.000 C 
ATOM     32  O   UNL     1       2.661   7.101  17.976  0.00  0.00    +0.000 OA
ATOM     33  H   UNL     1       2.943   6.015  20.945  0.00  0.00    +0.000 HD
BRANCH  30  35
ATOM     34  C   UNL     1       5.362   5.314  19.265  0.00  0.00    +0.000 C 
ATOM     35  C   UNL     1       3.887   4.974  19.369  0.00  0.00    +0.000 C 
ENDBRANCH  30  35
ENDBRANCH   1  31
TORSDOF 7
ENDMDL
MODEL 5
REMARK VINA RESULT:      -7.7      1.494      1.894
REMARK  Name = 
REMARK  8 active torsions:
REMARK  status: ('A' for Active; 'I' for Inactive)
REMARK    1  A    between atoms: C_1  and  C_2
REMARK    2  A    between atoms: C_2  and  N_3
REMARK    3  A    between atoms: C_4  and  C_6
REMARK    4  A    between atoms: C_9  and  N_10
REMARK    5  A    between atoms: C_13  and  C_14
REMARK    6  A    between atoms: C_19  and  C_20
REMARK    7  A    between atoms: C_24  and  C_25
REMARK    8  A    between atoms: C_25  and  O_27
REMARK                            x       y       z     vdW  Elec       q    Type
REMARK                         _______ _______ _______ _____ _____    ______ ____
ROOT
ATOM      1  C   UNL     1      -3.403  10.569  15.323  0.00  0.00    +0.000 A 
ATOM      2  C   UNL     1      -2.434  10.590  16.314  0.00  0.00    +0.000 A 
ATOM      3  C   UNL     1      -2.953  11.260  17.463  0.00  0.00    +0.000 A 
ATOM      4  C   UNL     1      -2.508  11.572  18.776  0.00  0.00    +0.000 A 
ATOM      5  C   UNL     1      -3.403  12.224  19.673  0.00  0.00    +0.000 A 
ATOM      6  C   UNL     1      -4.689  12.482  19.161  0.00  0.00    +0.000 A 
ATOM      7  N   UNL     1      -5.164  12.193  17.925  0.00  0.00    +0.000 NA
ATOM      8  C   UNL     1      -4.260  11.596  17.140  0.00  0.00    +0.000 A 
ATOM      9  N   UNL     1      -4.506  11.200  15.858  0.00  0.00    +0.000 N 
ATOM     10  H   UNL     1      -5.389  11.321  15.379  0.00  0.00    +0.000 HD
ENDROOT
BRANCH   5  11
ATOM     11  C   UNL     1      -3.065  12.722  21.032  0.00  0.00    +0.000 A 
ATOM     12  C   UNL     1      -3.889  12.491  22.142  0.00  0.00    +0.000 A 
ATOM     13  N   UNL     1      -3.642  12.924  23.405  0.00  0.00    +0.000 NA
ATOM     14  C   UNL     1      -2.488  13.599  23.606  0.00  0.00    +0.000 A 
ATOM     15  C   UNL     1      -1.589  13.875  22.593  0.00  0.00    +0.000 A 
ATOM     16  C   UNL     1      -1.917  13.489  21.290  0.00  0.00    +0.000 A 
BRANCH  15  17
ATOM     17  C   UNL     1      -0.335  14.581  22.917  0.00  0.00    +0.000 C 
ATOM     18  O   UNL     1      -0.288  15.531  23.678  0.00  0.00    +0.000 OA
BRANCH  17  19
ATOM     19  O   UNL     1       0.749  14.058  22.307  0.00  0.00    +0.000 OA
ATOM     20  H   UNL     1       1.316  13.519  22.892  0.00  0.00    +0.000 HD
ENDBRANCH  17  19
ENDBRANCH  15  17
ENDBRANCH   5  11
BRANCH   4  21
ATOM     21  N   UNL     1      -1.200  11.171  19.154  0.00  0.00    +0.000 N 
ATOM     22  C   UNL     1      -0.009  11.749  18.769  0.00  0.00    +0.000 A 
ATOM     23  C   UNL     1       1.005  10.997  19.307  0.00  0.00    +0.000 A 
ATOM     24  C   UNL     1       0.358   9.975  20.038  0.00  0.00    +0.000 A 
ATOM     25  N   UNL     1      -0.980  10.133  19.995  0.00  0.00    +0.000 NA
BRANCH  24  26
ATOM     26  C   UNL     1       1.012   8.890  20.852  0.00  0.00    +0.000 C 
ATOM     27  F   UNL     1       1.669   9.394  21.931  0.00  0.00    +0.000 F 
ATOM     28  F   UNL     1       0.079   8.025  21.335  0.00  0.00    +0.000 F 
ATOM     29  F   UNL     1       1.912   8.166  20.142  0.00  0.00    +0.000 F 
ENDBRANCH  24  26
ENDBRANCH   4  21
BRANCH   1  31
ATOM     30  N   UNL     1      -4.654   9.915  13.405  0.00  0.00    +0.000 N 
ATOM     31  C   UNL     1      -3.412  10.024  13.984  0.00  0.00    +0.000 C 
ATOM     32  O   UNL     1      -2.379   9.684  13.416  0.00  0.00    +0.000 OA
ATOM     33  H   UNL     1      -5.460  10.281  13.887  0.00  0.00    +0.000 HD
BRANCH  30  35
ATOM     34  C   UNL     1      -6.243   9.748  11.552  0.00  0.00    +0.000 C 
ATOM     35  C   UNL     1      -4.835   9.466  12.042  0.00  0.00    +0.000 C 
ENDBRANCH  30  35
ENDBRANCH   1  31
TORSDOF 7
ENDMDL
MODEL 6
REMARK VINA RESULT:      -7.6      4.613      5.955
REMARK  Name = 
REMARK  8 active torsions:
REMARK  status: ('A' for Active; 'I' for Inactive)
REMARK    1  A    between atoms: C_1  and  C_2
REMARK    2  A    between atoms: C_2  and  N_3
REMARK    3  A    between atoms: C_4  and  C_6
REMARK    4  A    between atoms: C_9  and  N_10
REMARK    5  A    between atoms: C_13  and  C_14
REMARK    6  A    between atoms: C_19  and  C_20
REMARK    7  A    between atoms: C_24  and  C_25
REMARK    8  A    between atoms: C_25  and  O_27
REMARK                            x       y       z     vdW  Elec       q    Type
REMARK                         _______ _______ _______ _____ _____    ______ ____
ROOT
ATOM      1  C   UNL     1       1.850   8.096  19.670  0.00  0.00    +0.000 A 
ATOM      2  C   UNL     1       1.416   9.396  19.460  0.00  0.00    +0.000 A 
ATOM      3  C   UNL     1       0.675   9.833  20.599  0.00  0.00    +0.000 A 
ATOM      4  C   UNL     1       0.022  11.021  21.024  0.00  0.00    +0.000 A 
ATOM      5  C   UNL     1      -0.566  11.061  22.322  0.00  0.00    +0.000 A 
ATOM      6  C   UNL     1      -0.417   9.890  23.088  0.00  0.00    +0.000 A 
ATOM      7  N   UNL     1       0.206   8.739  22.735  0.00  0.00    +0.000 NA
ATOM      8  C   UNL     1       0.718   8.776  21.499  0.00  0.00    +0.000 A 
ATOM      9  N   UNL     1       1.399   7.744  20.924  0.00  0.00    +0.000 N 
ATOM     10  H   UNL     1       1.579   6.855  21.372  0.00  0.00    +0.000 HD
ENDROOT
BRANCH   5  11
ATOM     11  C   UNL     1      -1.381  12.174  22.875  0.00  0.00    +0.000 A 
ATOM     12  C   UNL     1      -0.867  13.467  23.046  0.00  0.00    +0.000 A 
ATOM     13  N   UNL     1      -1.553  14.523  23.551  0.00  0.00    +0.000 NA
ATOM     14  C   UNL     1      -2.848  14.312  23.878  0.00  0.00    +0.000 A 
ATOM     15  C   UNL     1      -3.471  13.086  23.739  0.00  0.00    +0.000 A 
ATOM     16  C   UNL     1      -2.709  12.000  23.297  0.00  0.00    +0.000 A 
BRANCH  15  17
ATOM     17  C   UNL     1      -4.900  12.962  24.082  0.00  0.00    +0.000 C 
ATOM     18  O   UNL     1      -5.736  13.779  23.737  0.00  0.00    +0.000 OA
BRANCH  17  19
ATOM     19  O   UNL     1      -5.188  11.851  24.791  0.00  0.00    +0.000 OA
ATOM     20  H   UNL     1      -6.142  11.712  24.945  0.00  0.00    +0.000 HD
ENDBRANCH  17  19
ENDBRANCH  15  17
ENDBRANCH   5  11
BRANCH   4  21
ATOM     21  N   UNL     1       0.030  12.140  20.151  0.00  0.00    +0.000 N 
ATOM     22  C   UNL     1      -0.939  12.486  19.233  0.00  0.00    +0.000 A 
ATOM     23  C   UNL     1      -0.488  13.591  18.557  0.00  0.00    +0.000 A 
ATOM     24  C   UNL     1       0.769  13.888  19.133  0.00  0.00    +0.000 A 
ATOM     25  N   UNL     1       1.040  13.042  20.147  0.00  0.00    +0.000 NA
BRANCH  24  26
ATOM     26  C   UNL     1       1.681  15.032  18.776  0.00  0.00    +0.000 C 
ATOM     27  F   UNL     1       2.560  14.692  17.796  0.00  0.00    +0.000 F 
ATOM     28  F   UNL     1       0.962  16.087  18.305  0.00  0.00    +0.000 F 
ATOM     29  F   UNL     1       2.412  15.473  19.829  0.00  0.00    +0.000 F 
ENDBRANCH  24  26
ENDBRANCH   4  21
BRANCH   1  31
ATOM     30  N   UNL     1       2.624   5.880  19.275  0.00  0.00    +0.000 N 
ATOM     31  C   UNL     1       2.629   7.189  18.857  0.00  0.00    +0.000 C 
ATOM     32  O   UNL     1       3.249   7.572  17.870  0.00  0.00    +0.000 OA
ATOM     33  H   UNL     1       2.037   5.607  20.047  0.00  0.00    +0.000 HD
BRANCH  30  35
ATOM     34  C   UNL     1       2.311   4.094  17.630  0.00  0.00    +0.000 C 
ATOM     35  C   UNL     1       3.285   4.829  18.533  0.00  0.00    +0.000 C 
ENDBRANCH  30  35
ENDBRANCH   1  31
TORSDOF 7
ENDMDL
MODEL 7
REMARK VINA RESULT:      -7.4      3.623      6.051
REMARK  Name = 
REMARK  8 active torsions:
REMARK  status: ('A' for Active; 'I' for Inactive)
REMARK    1  A    between atoms: C_1  and  C_2
REMARK    2  A    between atoms: C_2  and  N_3
REMARK    3  A    between atoms: C_4  and  C_6
REMARK    4  A    between atoms: C_9  and  N_10
REMARK    5  A    between atoms: C_13  and  C_14
REMARK    6  A    between atoms: C_19  and  C_20
REMARK    7  A    between atoms: C_24  and  C_25
REMARK    8  A    between atoms: C_25  and  O_27
REMARK                            x       y       z     vdW  Elec       q    Type
REMARK                         _______ _______ _______ _____ _____    ______ ____
ROOT
ATOM      1  C   UNL     1       2.094   7.354  19.368  0.00  0.00    +0.000 A 
ATOM      2  C   UNL     1       1.256   8.392  18.992  0.00  0.00    +0.000 A 
ATOM      3  C   UNL     1       0.838   9.103  20.158  0.00  0.00    +0.000 A 
ATOM      4  C   UNL     1       0.045  10.244  20.454  0.00  0.00    +0.000 A 
ATOM      5  C   UNL     1      -0.068  10.676  21.808  0.00  0.00    +0.000 A 
ATOM      6  C   UNL     1       0.659   9.920  22.745  0.00  0.00    +0.000 A 
ATOM      7  N   UNL     1       1.438   8.835  22.513  0.00  0.00    +0.000 NA
ATOM      8  C   UNL     1       1.481   8.484  21.222  0.00  0.00    +0.000 A 
ATOM      9  N   UNL     1       2.204   7.433  20.740  0.00  0.00    +0.000 N 
ATOM     10  H   UNL     1       2.772   6.819  21.309  0.00  0.00    +0.000 HD
ENDROOT
BRANCH   5  11
ATOM     11  C   UNL     1      -0.943  11.772  22.302  0.00  0.00    +0.000 A 
ATOM     12  C   UNL     1      -0.544  13.116  22.283  0.00  0.00    +0.000 A 
ATOM     13  N   UNL     1      -1.290  14.160  22.726  0.00  0.00    +0.000 NA
ATOM     14  C   UNL     1      -2.530  13.877  23.184  0.00  0.00    +0.000 A 
ATOM     15  C   UNL     1      -3.040  12.593  23.237  0.00  0.00    +0.000 A 
ATOM     16  C   UNL     1      -2.212  11.533  22.853  0.00  0.00    +0.000 A 
BRANCH  15  17
ATOM     17  C   UNL     1      -4.420  12.386  23.712  0.00  0.00    +0.000 C 
ATOM     18  O   UNL     1      -5.399  12.618  23.025  0.00  0.00    +0.000 OA
BRANCH  17  19
ATOM     19  O   UNL     1      -4.488  11.899  24.969  0.00  0.00    +0.000 OA
ATOM     20  H   UNL     1      -4.936  12.491  25.603  0.00  0.00    +0.000 HD
ENDBRANCH  17  19
ENDBRANCH  15  17
ENDBRANCH   5  11
BRANCH   4  21
ATOM     21  N   UNL     1      -0.562  10.938  19.374  0.00  0.00    +0.000 N 
ATOM     22  C   UNL     1      -0.216  12.180  18.885  0.00  0.00    +0.000 A 
ATOM     23  C   UNL     1      -1.110  12.493  17.893  0.00  0.00    +0.000 A 
ATOM     24  C   UNL     1      -1.974  11.377  17.809  0.00  0.00    +0.000 A 
ATOM     25  N   UNL     1      -1.587  10.410  18.665  0.00  0.00    +0.000 NA
BRANCH  24  26
ATOM     26  C   UNL     1      -3.122  11.190  16.852  0.00  0.00    +0.000 C 
ATOM     27  F   UNL     1      -4.144  12.047  17.115  0.00  0.00    +0.000 F 
ATOM     28  F   UNL     1      -2.725  11.439  15.575  0.00  0.00    +0.000 F 
ATOM     29  F   UNL     1      -3.637   9.936  16.884  0.00  0.00    +0.000 F 
ENDBRANCH  24  26
ENDBRANCH   4  21
BRANCH   1  31
ATOM     30  N   UNL     1       3.852   6.801  17.861  0.00  0.00    +0.000 N 
ATOM     31  C   UNL     1       2.791   6.343  18.605  0.00  0.00    +0.000 C 
ATOM     32  O   UNL     1       2.448   5.165  18.625  0.00  0.00    +0.000 OA
ATOM     33  H   UNL     1       4.136   7.764  17.941  0.00  0.00    +0.000 HD
BRANCH  30  35
ATOM     34  C   UNL     1       5.158   6.556  15.806  0.00  0.00    +0.000 C 
ATOM     35  C   UNL     1       4.705   5.912  17.103  0.00  0.00    +0.000 C 
ENDBRANCH  30  35
ENDBRANCH   1  31
TORSDOF 7
ENDMDL
MODEL 8
REMARK VINA RESULT:      -7.4      3.550      6.043
REMARK  Name = 
REMARK  8 active torsions:
REMARK  status: ('A' for Active; 'I' for Inactive)
REMARK    1  A    between atoms: C_1  and  C_2
REMARK    2  A    between atoms: C_2  and  N_3
REMARK    3  A    between atoms: C_4  and  C_6
REMARK    4  A    between atoms: C_9  and  N_10
REMARK    5  A    between atoms: C_13  and  C_14
REMARK    6  A    between atoms: C_19  and  C_20
REMARK    7  A    between atoms: C_24  and  C_25
REMARK    8  A    between atoms: C_25  and  O_27
REMARK                            x       y       z     vdW  Elec       q    Type
REMARK                         _______ _______ _______ _____ _____    ______ ____
ROOT
ATOM      1  C   UNL     1       2.096   7.425  19.424  0.00  0.00    +0.000 A 
ATOM      2  C   UNL     1       1.252   8.453  19.032  0.00  0.00    +0.000 A 
ATOM      3  C   UNL     1       0.808   9.162  20.190  0.00  0.00    +0.000 A 
ATOM      4  C   UNL     1      -0.002  10.295  20.470  0.00  0.00    +0.000 A 
ATOM      5  C   UNL     1      -0.141  10.728  21.821  0.00  0.00    +0.000 A 
ATOM      6  C   UNL     1       0.579   9.982  22.772  0.00  0.00    +0.000 A 
ATOM      7  N   UNL     1       1.373   8.905  22.554  0.00  0.00    +0.000 NA
ATOM      8  C   UNL     1       1.440   8.552  21.265  0.00  0.00    +0.000 A 
ATOM      9  N   UNL     1       2.182   7.508  20.797  0.00  0.00    +0.000 N 
ATOM     10  H   UNL     1       2.749   6.902  21.376  0.00  0.00    +0.000 HD
ENDROOT
BRANCH   5  11
ATOM     11  C   UNL     1      -1.035  11.815  22.299  0.00  0.00    +0.000 A 
ATOM     12  C   UNL     1      -0.706  13.171  22.164  0.00  0.00    +0.000 A 
ATOM     13  N   UNL     1      -1.473  14.209  22.585  0.00  0.00    +0.000 NA
ATOM     14  C   UNL     1      -2.665  13.903  23.144  0.00  0.00    +0.000 A 
ATOM     15  C   UNL     1      -3.107  12.604  23.315  0.00  0.00    +0.000 A 
ATOM     16  C   UNL     1      -2.254  11.559  22.949  0.00  0.00    +0.000 A 
BRANCH  15  17
ATOM     17  C   UNL     1      -4.442  12.370  23.895  0.00  0.00    +0.000 C 
ATOM     18  O   UNL     1      -4.609  12.017  25.050  0.00  0.00    +0.000 OA
BRANCH  17  19
ATOM     19  O   UNL     1      -5.451  12.603  23.032  0.00  0.00    +0.000 OA
ATOM     20  H   UNL     1      -6.318  12.262  23.328  0.00  0.00    +0.000 HD
ENDBRANCH  17  19
ENDBRANCH  15  17
ENDBRANCH   5  11
BRANCH   4  21
ATOM     21  N   UNL     1      -0.599  10.980  19.379  0.00  0.00    +0.000 N 
ATOM     22  C   UNL     1      -0.241  12.213  18.876  0.00  0.00    +0.000 A 
ATOM     23  C   UNL     1      -1.130  12.521  17.877  0.00  0.00    +0.000 A 
ATOM     24  C   UNL     1      -2.001  11.410  17.803  0.00  0.00    +0.000 A 
ATOM     25  N   UNL     1      -1.625  10.451  18.672  0.00  0.00    +0.000 NA
BRANCH  24  26
ATOM     26  C   UNL     1      -3.147  11.220  16.844  0.00  0.00    +0.000 C 
ATOM     27  F   UNL     1      -4.173  12.071  17.107  0.00  0.00    +0.000 F 
ATOM     28  F   UNL     1      -2.749  11.473  15.568  0.00  0.00    +0.000 F 
ATOM     29  F   UNL     1      -3.656   9.963  16.871  0.00  0.00    +0.000 F 
ENDBRANCH  24  26
ENDBRANCH   4  21
BRANCH   1  31
ATOM     30  N   UNL     1       2.691   5.136  19.149  0.00  0.00    +0.000 N 
ATOM     31  C   UNL     1       2.815   6.420  18.674  0.00  0.00    +0.000 C 
ATOM     32  O   UNL     1       3.489   6.705  17.688  0.00  0.00    +0.000 OA
ATOM     33  H   UNL     1       2.065   4.949  19.915  0.00  0.00    +0.000 HD
BRANCH  30  35
ATOM     34  C   UNL     1       2.288   3.344  17.532  0.00  0.00    +0.000 C 
ATOM     35  C   UNL     1       3.280   4.001  18.472  0.00  0.00    +0.000 C 
ENDBRANCH  30  35
ENDBRANCH   1  31
TORSDOF 7
ENDMDL
MODEL 9
REMARK VINA RESULT:      -7.4      4.605      6.032
REMARK  Name = 
REMARK  8 active torsions:
REMARK  status: ('A' for Active; 'I' for Inactive)
REMARK    1  A    between atoms: C_1  and  C_2
REMARK    2  A    between atoms: C_2  and  N_3
REMARK    3  A    between atoms: C_4  and  C_6
REMARK    4  A    between atoms: C_9  and  N_10
REMARK    5  A    between atoms: C_13  and  C_14
REMARK    6  A    between atoms: C_19  and  C_20
REMARK    7  A    between atoms: C_24  and  C_25
REMARK    8  A    between atoms: C_25  and  O_27
REMARK                            x       y       z     vdW  Elec       q    Type
REMARK                         _______ _______ _______ _____ _____    ______ ____
ROOT
ATOM      1  C   UNL     1       1.931   7.858  19.512  0.00  0.00    +0.000 A 
ATOM      2  C   UNL     1       1.525   9.166  19.298  0.00  0.00    +0.000 A 
ATOM      3  C   UNL     1       0.811   9.628  20.444  0.00  0.00    +0.000 A 
ATOM      4  C   UNL     1       0.192  10.835  20.869  0.00  0.00    +0.000 A 
ATOM      5  C   UNL     1      -0.377  10.898  22.174  0.00  0.00    +0.000 A 
ATOM      6  C   UNL     1      -0.245   9.729  22.947  0.00  0.00    +0.000 A 
ATOM      7  N   UNL     1       0.345   8.562  22.594  0.00  0.00    +0.000 NA
ATOM      8  C   UNL     1       0.841   8.577  21.351  0.00  0.00    +0.000 A 
ATOM      9  N   UNL     1       1.489   7.525  20.774  0.00  0.00    +0.000 N 
ATOM     10  H   UNL     1       1.655   6.636  21.227  0.00  0.00    +0.000 HD
ENDROOT
BRANCH   5  11
ATOM     11  C   UNL     1      -1.157  12.035  22.730  0.00  0.00    +0.000 A 
ATOM     12  C   UNL     1      -0.638  13.334  22.807  0.00  0.00    +0.000 A 
ATOM     13  N   UNL     1      -1.294  14.411  23.309  0.00  0.00    +0.000 NA
ATOM     14  C   UNL     1      -2.563  14.214  23.731  0.00  0.00    +0.000 A 
ATOM     15  C   UNL     1      -3.189  12.982  23.690  0.00  0.00    +0.000 A 
ATOM     16  C   UNL     1      -2.453  11.878  23.247  0.00  0.00    +0.000 A 
BRANCH  15  17
ATOM     17  C   UNL     1      -4.590  12.873  24.133  0.00  0.00    +0.000 C 
ATOM     18  O   UNL     1      -5.460  13.648  23.776  0.00  0.00    +0.000 OA
BRANCH  17  19
ATOM     19  O   UNL     1      -4.815  11.823  24.950  0.00  0.00    +0.000 OA
ATOM     20  H   UNL     1      -5.710  11.440  24.872  0.00  0.00    +0.000 HD
ENDBRANCH  17  19
ENDBRANCH  15  17
ENDBRANCH   5  11
BRANCH   4  21
ATOM     21  N   UNL     1       0.214  11.947  19.987  0.00  0.00    +0.000 N 
ATOM     22  C   UNL     1      -0.750  12.298  19.067  0.00  0.00    +0.000 A 
ATOM     23  C   UNL     1      -0.285  13.392  18.382  0.00  0.00    +0.000 A 
ATOM     24  C   UNL     1       0.976  13.677  18.955  0.00  0.00    +0.000 A 
ATOM     25  N   UNL     1       1.236  12.836  19.976  0.00  0.00    +0.000 NA
BRANCH  24  26
ATOM     26  C   UNL     1       1.902  14.806  18.590  0.00  0.00    +0.000 C 
ATOM     27  F   UNL     1       1.219  15.929  18.243  0.00  0.00    +0.000 F 
ATOM     28  F   UNL     1       2.689  15.141  19.648  0.00  0.00    +0.000 F 
ATOM     29  F   UNL     1       2.721  14.504  17.552  0.00  0.00    +0.000 F 
ENDBRANCH  24  26
ENDBRANCH   4  21
BRANCH   1  31
ATOM     30  N   UNL     1       3.603   7.497  17.856  0.00  0.00    +0.000 N 
ATOM     31  C   UNL     1       2.677   6.926  18.696  0.00  0.00    +0.000 C 
ATOM     32  O   UNL     1       2.486   5.715  18.754  0.00  0.00    +0.000 OA
ATOM     33  H   UNL     1       3.773   8.489  17.904  0.00  0.00    +0.000 HD
BRANCH  30  35
ATOM     34  C   UNL     1       5.939   7.102  17.239  0.00  0.00    +0.000 C 
ATOM     35  C   UNL     1       4.489   6.706  17.030  0.00  0.00    +0.000 C 
ENDBRANCH  30  35
ENDBRANCH   1  31
TORSDOF 7
ENDMDL
