MODEL 1
REMARK VINA RESULT:      -7.4      0.000      0.000
REMARK  Name = 
REMARK  8 active torsions:
REMARK  status: ('A' for Active; 'I' for Inactive)
REMARK    1  A    between atoms: C_1  and  O_2
REMARK    2  A    between atoms: O_2  and  C_3
REMARK    3  A    between atoms: C_3  and  C_4
REMARK    4  A    between atoms: C_3  and  C_5
REMARK    5  A    between atoms: C_5  and  N_6
REMARK    6  A    between atoms: C_5  and  C_7
REMARK    7  A    between atoms: C_11  and  C_12
REMARK    8  A    between atoms: C_15  and  C_16
REMARK                            x       y       z     vdW  Elec       q    Type
REMARK                         _______ _______ _______ _____ _____    ______ ____
ROOT
ATOM      1  C   UNL     1       5.676   5.420  15.134  0.00  0.00    +0.000 A 
ATOM      2  N   UNL     1       5.336   6.602  15.599  0.00  0.00    +0.000 NA
ATOM      3  C   UNL     1       4.435   6.344  16.593  0.00  0.00    +0.000 A 
ATOM      4  C   UNL     1       3.741   7.245  17.396  0.00  0.00    +0.000 A 
ATOM      5  C   UNL     1       2.832   6.765  18.355  0.00  0.00    +0.000 A 
ATOM      6  C   UNL     1       2.635   5.375  18.468  0.00  0.00    +0.000 A 
ATOM      7  C   UNL     1       3.326   4.451  17.677  0.00  0.00    +0.000 A 
ATOM      8  C   UNL     1       4.224   4.983  16.757  0.00  0.00    +0.000 A 
ATOM      9  N   UNL     1       5.063   4.408  15.843  0.00  0.00    +0.000 N 
ATOM     10  H   UNL     1       5.161   3.420  15.650  0.00  0.00    +0.000 HD
ENDROOT
BRANCH   5  11
ATOM     11  C   UNL     1       2.113   7.717  19.213  0.00  0.00    +0.000 A 
ATOM     12  C   UNL     1       1.887   7.422  20.569  0.00  0.00    +0.000 A 
ATOM     13  C   UNL     1       1.236   8.331  21.402  0.00  0.00    +0.000 A 
ATOM     14  C   UNL     1       0.784   9.547  20.885  0.00  0.00    +0.000 A 
ATOM     15  C   UNL     1       1.002   9.863  19.546  0.00  0.00    +0.000 A 
ATOM     16  C   UNL     1       1.660   8.953  18.729  0.00  0.00    +0.000 A 
ATOM     17  F   UNL     1       1.863   9.298  17.449  0.00  0.00    +0.000 F 
BRANCH  14  18
ATOM     18  C   UNL     1       0.076  10.468  21.733  0.00  0.00    +0.000 C 
ATOM     19  N   UNL     1      -0.477  11.205  22.418  0.00  0.00    +0.000 NA
ENDBRANCH  14  18
ENDBRANCH   5  11
BRANCH   1  20
ATOM     20  C   UNL     1       6.541   5.162  13.932  0.00  0.00    +0.000 C 
BRANCH  20  21
ATOM     21  N   UNL     1       7.949   5.326  14.343  0.00  0.00    +0.000 NA
ATOM     22  H   UNL     1       8.446   5.744  13.556  0.00  0.00    +0.000 HD
ATOM     23  H   UNL     1       8.352   4.391  14.437  0.00  0.00    +0.000 HD
ENDBRANCH  20  21
BRANCH  20  24
ATOM     24  C   UNL     1       6.192   3.752  13.337  0.00  0.00    +0.000 C 
ATOM     25  C   UNL     1       7.056   3.436  12.107  0.00  0.00    +0.000 C 
BRANCH  24  27
ATOM     26  C   UNL     1       4.511   3.258  11.685  0.00  0.00    +0.000 C 
ATOM     27  O   UNL     1       4.797   3.792  12.962  0.00  0.00    +0.000 OA
ENDBRANCH  24  27
ENDBRANCH  20  24
ENDBRANCH   1  20
TORSDOF 6
ENDMDL
MODEL 2
REMARK VINA RESULT:      -7.3      0.988      1.393
REMARK  Name = 
REMARK  8 active torsions:
REMARK  status: ('A' for Active; 'I' for Inactive)
REMARK    1  A    between atoms: C_1  and  O_2
REMARK    2  A    between atoms: O_2  and  C_3
REMARK    3  A    between atoms: C_3  and  C_4
REMARK    4  A    between atoms: C_3  and  C_5
REMARK    5  A    between atoms: C_5  and  N_6
REMARK    6  A    between atoms: C_5  and  C_7
REMARK    7  A    between atoms: C_11  and  C_12
REMARK    8  A    between atoms: C_15  and  C_16
REMARK                            x       y       z     vdW  Elec       q    Type
REMARK                         _______ _______ _______ _____ _____    ______ ____
ROOT
ATOM      1  C   UNL     1       5.723   5.355  15.117  0.00  0.00    +0.000 A 
ATOM      2  N   UNL     1       5.380   6.533  15.592  0.00  0.00    +0.000 NA
ATOM      3  C   UNL     1       4.469   6.266  16.574  0.00  0.00    +0.000 A 
ATOM      4  C   UNL     1       3.769   7.159  17.381  0.00  0.00    +0.000 A 
ATOM      5  C   UNL     1       2.850   6.670  18.325  0.00  0.00    +0.000 A 
ATOM      6  C   UNL     1       2.649   5.279  18.421  0.00  0.00    +0.000 A 
ATOM      7  C   UNL     1       3.347   4.363  17.626  0.00  0.00    +0.000 A 
ATOM      8  C   UNL     1       4.255   4.903  16.721  0.00  0.00    +0.000 A 
ATOM      9  N   UNL     1       5.102   4.337  15.809  0.00  0.00    +0.000 N 
ATOM     10  H   UNL     1       5.200   3.351  15.606  0.00  0.00    +0.000 HD
ENDROOT
BRANCH   5  11
ATOM     11  C   UNL     1       2.124   7.613  19.186  0.00  0.00    +0.000 A 
ATOM     12  C   UNL     1       1.735   8.872  18.693  0.00  0.00    +0.000 A 
ATOM     13  C   UNL     1       1.016   9.762  19.490  0.00  0.00    +0.000 A 
ATOM     14  C   UNL     1       0.689   9.415  20.802  0.00  0.00    +0.000 A 
ATOM     15  C   UNL     1       1.060   8.171  21.309  0.00  0.00    +0.000 A 
ATOM     16  C   UNL     1       1.767   7.289  20.503  0.00  0.00    +0.000 A 
ATOM     17  F   UNL     1       2.094   6.096  21.022  0.00  0.00    +0.000 F 
BRANCH  14  18
ATOM     18  C   UNL     1      -0.017  10.348  21.637  0.00  0.00    +0.000 C 
ATOM     19  N   UNL     1      -0.589  11.097  22.294  0.00  0.00    +0.000 NA
ENDBRANCH  14  18
ENDBRANCH   5  11
BRANCH   1  20
ATOM     20  C   UNL     1       6.599   5.110  13.921  0.00  0.00    +0.000 C 
BRANCH  20  21
ATOM     21  N   UNL     1       8.005   5.240  14.353  0.00  0.00    +0.000 NA
ATOM     22  H   UNL     1       8.128   4.632  15.164  0.00  0.00    +0.000 HD
ATOM     23  H   UNL     1       8.127   6.187  14.718  0.00  0.00    +0.000 HD
ENDBRANCH  20  21
BRANCH  20  24
ATOM     24  C   UNL     1       6.235   3.720  13.290  0.00  0.00    +0.000 C 
ATOM     25  C   UNL     1       7.059   3.448  12.023  0.00  0.00    +0.000 C 
BRANCH  24  27
ATOM     26  C   UNL     1       4.495   3.231  11.697  0.00  0.00    +0.000 C 
ATOM     27  O   UNL     1       4.828   3.768  12.962  0.00  0.00    +0.000 OA
ENDBRANCH  24  27
ENDBRANCH  20  24
ENDBRANCH   1  20
TORSDOF 6
ENDMDL
MODEL 3
REMARK VINA RESULT:      -7.0      2.639      4.004
REMARK  Name = 
REMARK  8 active torsions:
REMARK  status: ('A' for Active; 'I' for Inactive)
REMARK    1  A    between atoms: C_1  and  O_2
REMARK    2  A    between atoms: O_2  and  C_3
REMARK    3  A    between atoms: C_3  and  C_4
REMARK    4  A    between atoms: C_3  and  C_5
REMARK    5  A    between atoms: C_5  and  N_6
REMARK    6  A    between atoms: C_5  and  C_7
REMARK    7  A    between atoms: C_11  and  C_12
REMARK    8  A    between atoms: C_15  and  C_16
REMARK                            x       y       z     vdW  Elec       q    Type
REMARK                         _______ _______ _______ _____ _____    ______ ____
ROOT
ATOM      1  C   UNL     1       3.845   5.125  18.851  0.00  0.00    +0.000 A 
ATOM      2  N   UNL     1       3.181   5.484  19.929  0.00  0.00    +0.000 NA
ATOM      3  C   UNL     1       2.590   6.670  19.600  0.00  0.00    +0.000 A 
ATOM      4  C   UNL     1       1.791   7.494  20.389  0.00  0.00    +0.000 A 
ATOM      5  C   UNL     1       1.296   8.697  19.857  0.00  0.00    +0.000 A 
ATOM      6  C   UNL     1       1.635   9.047  18.535  0.00  0.00    +0.000 A 
ATOM      7  C   UNL     1       2.430   8.231  17.723  0.00  0.00    +0.000 A 
ATOM      8  C   UNL     1       2.878   7.046  18.296  0.00  0.00    +0.000 A 
ATOM      9  N   UNL     1       3.646   6.019  17.821  0.00  0.00    +0.000 N 
ATOM     10  H   UNL     1       4.073   5.957  16.906  0.00  0.00    +0.000 HD
ENDROOT
BRANCH   5  11
ATOM     11  C   UNL     1       0.440   9.558  20.686  0.00  0.00    +0.000 A 
ATOM     12  C   UNL     1       0.328   9.329  22.069  0.00  0.00    +0.000 A 
ATOM     13  C   UNL     1      -0.453  10.159  22.872  0.00  0.00    +0.000 A 
ATOM     14  C   UNL     1      -1.151  11.224  22.299  0.00  0.00    +0.000 A 
ATOM     15  C   UNL     1      -1.050  11.473  20.932  0.00  0.00    +0.000 A 
ATOM     16  C   UNL     1      -0.261  10.645  20.144  0.00  0.00    +0.000 A 
ATOM     17  F   UNL     1      -0.178  10.924  18.835  0.00  0.00    +0.000 F 
BRANCH  14  18
ATOM     18  C   UNL     1      -1.990  12.056  23.119  0.00  0.00    +0.000 C 
ATOM     19  N   UNL     1      -2.649  12.729  23.777  0.00  0.00    +0.000 NA
ENDBRANCH  14  18
ENDBRANCH   5  11
BRANCH   1  20
ATOM     20  C   UNL     1       4.783   3.955  18.744  0.00  0.00    +0.000 C 
BRANCH  20  21
ATOM     21  N   UNL     1       4.160   2.954  17.855  0.00  0.00    +0.000 NA
ATOM     22  H   UNL     1       4.494   3.142  16.909  0.00  0.00    +0.000 HD
ATOM     23  H   UNL     1       3.158   3.156  17.822  0.00  0.00    +0.000 HD
ENDBRANCH  20  21
BRANCH  20  24
ATOM     24  C   UNL     1       6.191   4.463  18.271  0.00  0.00    +0.000 C 
ATOM     25  C   UNL     1       6.698   5.610  19.157  0.00  0.00    +0.000 C 
BRANCH  24  27
ATOM     26  C   UNL     1       7.113   4.624  16.052  0.00  0.00    +0.000 C 
ATOM     27  O   UNL     1       6.032   4.925  16.911  0.00  0.00    +0.000 OA
ENDBRANCH  24  27
ENDBRANCH  20  24
ENDBRANCH   1  20
TORSDOF 6
ENDMDL
MODEL 4
REMARK VINA RESULT:      -7.0      1.834      2.471
REMARK  Name = 
REMARK  8 active torsions:
REMARK  status: ('A' for Active; 'I' for Inactive)
REMARK    1  A    between atoms: C_1  and  O_2
REMARK    2  A    between atoms: O_2  and  C_3
REMARK    3  A    between atoms: C_3  and  C_4
REMARK    4  A    between atoms: C_3  and  C_5
REMARK    5  A    between atoms: C_5  and  N_6
REMARK    6  A    between atoms: C_5  and  C_7
REMARK    7  A    between atoms: C_11  and  C_12
REMARK    8  A    between atoms: C_15  and  C_16
REMARK                            x       y       z     vdW  Elec       q    Type
REMARK                         _______ _______ _______ _____ _____    ______ ____
ROOT
ATOM      1  C   UNL     1       5.428   5.057  16.745  0.00  0.00    +0.000 A 
ATOM      2  N   UNL     1       4.933   6.258  16.541  0.00  0.00    +0.000 NA
ATOM      3  C   UNL     1       4.036   6.448  17.554  0.00  0.00    +0.000 A 
ATOM      4  C   UNL     1       3.214   7.544  17.796  0.00  0.00    +0.000 A 
ATOM      5  C   UNL     1       2.337   7.527  18.894  0.00  0.00    +0.000 A 
ATOM      6  C   UNL     1       2.304   6.385  19.720  0.00  0.00    +0.000 A 
ATOM      7  C   UNL     1       3.126   5.276  19.499  0.00  0.00    +0.000 A 
ATOM      8  C   UNL     1       3.985   5.355  18.408  0.00  0.00    +0.000 A 
ATOM      9  N   UNL     1       4.917   4.495  17.896  0.00  0.00    +0.000 N 
ATOM     10  H   UNL     1       5.139   3.570  18.241  0.00  0.00    +0.000 HD
ENDROOT
BRANCH   5  11
ATOM     11  C   UNL     1       1.481   8.692  19.158  0.00  0.00    +0.000 A 
ATOM     12  C   UNL     1       0.968   9.453  18.092  0.00  0.00    +0.000 A 
ATOM     13  C   UNL     1       0.128  10.540  18.327  0.00  0.00    +0.000 A 
ATOM     14  C   UNL     1      -0.201  10.895  19.637  0.00  0.00    +0.000 A 
ATOM     15  C   UNL     1       0.290  10.151  20.707  0.00  0.00    +0.000 A 
ATOM     16  C   UNL     1       1.119   9.065  20.460  0.00  0.00    +0.000 A 
ATOM     17  F   UNL     1       1.561   8.365  21.516  0.00  0.00    +0.000 F 
BRANCH  14  18
ATOM     18  C   UNL     1      -1.036  12.040  19.882  0.00  0.00    +0.000 C 
ATOM     19  N   UNL     1      -1.712  12.950  20.070  0.00  0.00    +0.000 NA
ENDBRANCH  14  18
ENDBRANCH   5  11
BRANCH   1  20
ATOM     20  C   UNL     1       6.356   4.318  15.823  0.00  0.00    +0.000 C 
BRANCH  20  21
ATOM     21  N   UNL     1       5.951   2.898  15.813  0.00  0.00    +0.000 NA
ATOM     22  H   UNL     1       6.122   2.543  14.872  0.00  0.00    +0.000 HD
ATOM     23  H   UNL     1       4.936   2.868  15.923  0.00  0.00    +0.000 HD
ENDBRANCH  20  21
BRANCH  20  24
ATOM     24  C   UNL     1       6.345   5.011  14.415  0.00  0.00    +0.000 C 
ATOM     25  C   UNL     1       5.890   4.039  13.317  0.00  0.00    +0.000 C 
BRANCH  24  27
ATOM     26  C   UNL     1       8.066   5.461  12.790  0.00  0.00    +0.000 C 
ATOM     27  O   UNL     1       7.698   5.449  14.155  0.00  0.00    +0.000 OA
ENDBRANCH  24  27
ENDBRANCH  20  24
ENDBRANCH   1  20
TORSDOF 6
ENDMDL
MODEL 5
REMARK VINA RESULT:      -7.0      2.752      4.044
REMARK  Name = 
REMARK  8 active torsions:
REMARK  status: ('A' for Active; 'I' for Inactive)
REMARK    1  A    between atoms: C_1  and  O_2
REMARK    2  A    between atoms: O_2  and  C_3
REMARK    3  A    between atoms: C_3  and  C_4
REMARK    4  A    between atoms: C_3  and  C_5
REMARK    5  A    between atoms: C_5  and  N_6
REMARK    6  A    between atoms: C_5  and  C_7
REMARK    7  A    between atoms: C_11  and  C_12
REMARK    8  A    between atoms: C_15  and  C_16
REMARK                            x       y       z     vdW  Elec       q    Type
REMARK                         _______ _______ _______ _____ _____    ______ ____
ROOT
ATOM      1  C   UNL     1       4.127   5.402  18.615  0.00  0.00    +0.000 A 
ATOM      2  N   UNL     1       3.494   5.714  19.726  0.00  0.00    +0.000 NA
ATOM      3  C   UNL     1       2.801   6.853  19.429  0.00  0.00    +0.000 A 
ATOM      4  C   UNL     1       1.985   7.619  20.258  0.00  0.00    +0.000 A 
ATOM      5  C   UNL     1       1.377   8.781  19.754  0.00  0.00    +0.000 A 
ATOM      6  C   UNL     1       1.622   9.151  18.416  0.00  0.00    +0.000 A 
ATOM      7  C   UNL     1       2.431   8.394  17.564  0.00  0.00    +0.000 A 
ATOM      8  C   UNL     1       2.994   7.246  18.112  0.00  0.00    +0.000 A 
ATOM      9  N   UNL     1       3.811   6.277  17.598  0.00  0.00    +0.000 N 
ATOM     10  H   UNL     1       4.193   6.243  16.662  0.00  0.00    +0.000 HD
ENDROOT
BRANCH   5  11
ATOM     11  C   UNL     1       0.504   9.579  20.625  0.00  0.00    +0.000 A 
ATOM     12  C   UNL     1       0.058   9.059  21.854  0.00  0.00    +0.000 A 
ATOM     13  C   UNL     1      -0.743   9.819  22.705  0.00  0.00    +0.000 A 
ATOM     14  C   UNL     1      -1.126  11.109  22.333  0.00  0.00    +0.000 A 
ATOM     15  C   UNL     1      -0.691  11.646  21.124  0.00  0.00    +0.000 A 
ATOM     16  C   UNL     1       0.114  10.883  20.288  0.00  0.00    +0.000 A 
ATOM     17  F   UNL     1       0.523  11.440  19.138  0.00  0.00    +0.000 F 
BRANCH  14  18
ATOM     18  C   UNL     1      -1.985  11.878  23.192  0.00  0.00    +0.000 C 
ATOM     19  N   UNL     1      -2.662  12.502  23.880  0.00  0.00    +0.000 NA
ENDBRANCH  14  18
ENDBRANCH   5  11
BRANCH   1  20
ATOM     20  C   UNL     1       5.141   4.304  18.459  0.00  0.00    +0.000 C 
BRANCH  20  21
ATOM     21  N   UNL     1       4.453   3.130  17.887  0.00  0.00    +0.000 NA
ATOM     22  H   UNL     1       4.929   2.898  17.014  0.00  0.00    +0.000 HD
ATOM     23  H   UNL     1       3.519   3.430  17.602  0.00  0.00    +0.000 HD
ENDBRANCH  20  21
BRANCH  20  24
ATOM     24  C   UNL     1       6.349   4.834  17.609  0.00  0.00    +0.000 C 
ATOM     25  C   UNL     1       6.472   4.075  16.280  0.00  0.00    +0.000 C 
BRANCH  24  27
ATOM     26  C   UNL     1       7.858   5.695  19.277  0.00  0.00    +0.000 C 
ATOM     27  O   UNL     1       7.538   4.630  18.404  0.00  0.00    +0.000 OA
ENDBRANCH  24  27
ENDBRANCH  20  24
ENDBRANCH   1  20
TORSDOF 6
ENDMDL
MODEL 6
REMARK VINA RESULT:      -7.0      3.525      8.935
REMARK  Name = 
REMARK  8 active torsions:
REMARK  status: ('A' for Active; 'I' for Inactive)
REMARK    1  A    between atoms: C_1  and  O_2
REMARK    2  A    between atoms: O_2  and  C_3
REMARK    3  A    between atoms: C_3  and  C_4
REMARK    4  A    between atoms: C_3  and  C_5
REMARK    5  A    between atoms: C_5  and  N_6
REMARK    6  A    between atoms: C_5  and  C_7
REMARK    7  A    between atoms: C_11  and  C_12
REMARK    8  A    between atoms: C_15  and  C_16
REMARK                            x       y       z     vdW  Elec       q    Type
REMARK                         _______ _______ _______ _____ _____    ______ ____
ROOT
ATOM      1  C   UNL     1      -0.327  11.581  19.557  0.00  0.00    +0.000 A 
ATOM      2  N   UNL     1       0.301  11.106  18.503  0.00  0.00    +0.000 NA
ATOM      3  C   UNL     1       0.869   9.939  18.928  0.00  0.00    +0.000 A 
ATOM      4  C   UNL     1       1.668   9.048  18.216  0.00  0.00    +0.000 A 
ATOM      5  C   UNL     1       2.177   7.905  18.857  0.00  0.00    +0.000 A 
ATOM      6  C   UNL     1       1.874   7.697  20.217  0.00  0.00    +0.000 A 
ATOM      7  C   UNL     1       1.067   8.574  20.949  0.00  0.00    +0.000 A 
ATOM      8  C   UNL     1       0.579   9.679  20.260  0.00  0.00    +0.000 A 
ATOM      9  N   UNL     1      -0.225  10.721  20.629  0.00  0.00    +0.000 N 
ATOM     10  H   UNL     1      -0.612  10.889  21.549  0.00  0.00    +0.000 HD
ENDROOT
BRANCH   5  11
ATOM     11  C   UNL     1       3.007   6.958  18.099  0.00  0.00    +0.000 A 
ATOM     12  C   UNL     1       4.123   7.413  17.373  0.00  0.00    +0.000 A 
ATOM     13  C   UNL     1       4.937   6.520  16.678  0.00  0.00    +0.000 A 
ATOM     14  C   UNL     1       4.639   5.156  16.684  0.00  0.00    +0.000 A 
ATOM     15  C   UNL     1       3.543   4.683  17.402  0.00  0.00    +0.000 A 
ATOM     16  C   UNL     1       2.743   5.581  18.098  0.00  0.00    +0.000 A 
ATOM     17  F   UNL     1       1.705   5.086  18.788  0.00  0.00    +0.000 F 
BRANCH  14  18
ATOM     18  C   UNL     1       5.455   4.240  15.935  0.00  0.00    +0.000 C 
ATOM     19  N   UNL     1       6.106   3.516  15.325  0.00  0.00    +0.000 NA
ENDBRANCH  14  18
ENDBRANCH   5  11
BRANCH   1  20
ATOM     20  C   UNL     1      -0.997  12.923  19.650  0.00  0.00    +0.000 C 
BRANCH  20  21
ATOM     21  N   UNL     1      -0.585  13.719  18.477  0.00  0.00    +0.000 NA
ATOM     22  H   UNL     1      -1.115  14.590  18.502  0.00  0.00    +0.000 HD
ATOM     23  H   UNL     1      -0.923  13.233  17.643  0.00  0.00    +0.000 HD
ENDBRANCH  20  21
BRANCH  20  24
ATOM     24  C   UNL     1      -2.547  12.719  19.791  0.00  0.00    +0.000 C 
ATOM     25  C   UNL     1      -2.975  12.689  21.265  0.00  0.00    +0.000 C 
BRANCH  24  27
ATOM     26  C   UNL     1      -3.806  11.532  18.116  0.00  0.00    +0.000 C 
ATOM     27  O   UNL     1      -2.858  11.456  19.162  0.00  0.00    +0.000 OA
ENDBRANCH  24  27
ENDBRANCH  20  24
ENDBRANCH   1  20
TORSDOF 6
ENDMDL
MODEL 7
REMARK VINA RESULT:      -7.0      3.641      9.360
REMARK  Name = 
REMARK  8 active torsions:
REMARK  status: ('A' for Active; 'I' for Inactive)
REMARK    1  A    between atoms: C_1  and  O_2
REMARK    2  A    between atoms: O_2  and  C_3
REMARK    3  A    between atoms: C_3  and  C_4
REMARK    4  A    between atoms: C_3  and  C_5
REMARK    5  A    between atoms: C_5  and  N_6
REMARK    6  A    between atoms: C_5  and  C_7
REMARK    7  A    between atoms: C_11  and  C_12
REMARK    8  A    between atoms: C_15  and  C_16
REMARK                            x       y       z     vdW  Elec       q    Type
REMARK                         _______ _______ _______ _____ _____    ______ ____
ROOT
ATOM      1  C   UNL     1      -0.283  11.245  19.928  0.00  0.00    +0.000 A 
ATOM      2  N   UNL     1       0.329  10.852  18.832  0.00  0.00    +0.000 NA
ATOM      3  C   UNL     1       0.927   9.670  19.166  0.00  0.00    +0.000 A 
ATOM      4  C   UNL     1       1.725   8.844  18.380  0.00  0.00    +0.000 A 
ATOM      5  C   UNL     1       2.267   7.670  18.932  0.00  0.00    +0.000 A 
ATOM      6  C   UNL     1       1.997   7.366  20.281  0.00  0.00    +0.000 A 
ATOM      7  C   UNL     1       1.192   8.178  21.087  0.00  0.00    +0.000 A 
ATOM      8  C   UNL     1       0.670   9.317  20.483  0.00  0.00    +0.000 A 
ATOM      9  N   UNL     1      -0.144  10.318  20.938  0.00  0.00    +0.000 N 
ATOM     10  H   UNL     1      -0.513  10.417  21.875  0.00  0.00    +0.000 HD
ENDROOT
BRANCH   5  11
ATOM     11  C   UNL     1       3.096   6.792  18.095  0.00  0.00    +0.000 A 
ATOM     12  C   UNL     1       4.197   7.311  17.391  0.00  0.00    +0.000 A 
ATOM     13  C   UNL     1       5.012   6.481  16.622  0.00  0.00    +0.000 A 
ATOM     14  C   UNL     1       4.727   5.118  16.530  0.00  0.00    +0.000 A 
ATOM     15  C   UNL     1       3.645   4.581  17.224  0.00  0.00    +0.000 A 
ATOM     16  C   UNL     1       2.846   5.415  17.994  0.00  0.00    +0.000 A 
ATOM     17  F   UNL     1       1.822   4.859  18.659  0.00  0.00    +0.000 F 
BRANCH  14  18
ATOM     18  C   UNL     1       5.542   4.268  15.704  0.00  0.00    +0.000 C 
ATOM     19  N   UNL     1       6.198   3.583  15.056  0.00  0.00    +0.000 NA
ENDBRANCH  14  18
ENDBRANCH   5  11
BRANCH   1  20
ATOM     20  C   UNL     1      -0.974  12.565  20.125  0.00  0.00    +0.000 C 
BRANCH  20  21
ATOM     21  N   UNL     1      -1.646  12.919  18.859  0.00  0.00    +0.000 NA
ATOM     22  H   UNL     1      -0.937  12.896  18.125  0.00  0.00    +0.000 HD
ATOM     23  H   UNL     1      -1.922  13.901  18.922  0.00  0.00    +0.000 HD
ENDBRANCH  20  21
BRANCH  20  24
ATOM     24  C   UNL     1      -1.929  12.469  21.367  0.00  0.00    +0.000 C 
ATOM     25  C   UNL     1      -2.936  13.627  21.388  0.00  0.00    +0.000 C 
BRANCH  24  27
ATOM     26  C   UNL     1      -1.225  13.702  23.313  0.00  0.00    +0.000 C 
ATOM     27  O   UNL     1      -1.089  12.524  22.542  0.00  0.00    +0.000 OA
ENDBRANCH  24  27
ENDBRANCH  20  24
ENDBRANCH   1  20
TORSDOF 6
ENDMDL
MODEL 8
REMARK VINA RESULT:      -7.0      3.991      5.141
REMARK  Name = 
REMARK  8 active torsions:
REMARK  status: ('A' for Active; 'I' for Inactive)
REMARK    1  A    between atoms: C_1  and  O_2
REMARK    2  A    between atoms: O_2  and  C_3
REMARK    3  A    between atoms: C_3  and  C_4
REMARK    4  A    between atoms: C_3  and  C_5
REMARK    5  A    between atoms: C_5  and  N_6
REMARK    6  A    between atoms: C_5  and  C_7
REMARK    7  A    between atoms: C_11  and  C_12
REMARK    8  A    between atoms: C_15  and  C_16
REMARK                            x       y       z     vdW  Elec       q    Type
REMARK                         _______ _______ _______ _____ _____    ______ ____
ROOT
ATOM      1  C   UNL     1       3.209   5.054  18.973  0.00  0.00    +0.000 A 
ATOM      2  N   UNL     1       2.713   5.573  20.075  0.00  0.00    +0.000 NA
ATOM      3  C   UNL     1       2.253   6.806  19.708  0.00  0.00    +0.000 A 
ATOM      4  C   UNL     1       1.656   7.785  20.498  0.00  0.00    +0.000 A 
ATOM      5  C   UNL     1       1.273   9.008  19.920  0.00  0.00    +0.000 A 
ATOM      6  C   UNL     1       1.518   9.218  18.549  0.00  0.00    +0.000 A 
ATOM      7  C   UNL     1       2.110   8.246  17.735  0.00  0.00    +0.000 A 
ATOM      8  C   UNL     1       2.453   7.050  18.357  0.00  0.00    +0.000 A 
ATOM      9  N   UNL     1       3.026   5.897  17.897  0.00  0.00    +0.000 N 
ATOM     10  H   UNL     1       3.344   5.715  16.954  0.00  0.00    +0.000 HD
ENDROOT
BRANCH   5  11
ATOM     11  C   UNL     1       0.629  10.033  20.753  0.00  0.00    +0.000 A 
ATOM     12  C   UNL     1       0.894  11.397  20.534  0.00  0.00    +0.000 A 
ATOM     13  C   UNL     1       0.262  12.380  21.294  0.00  0.00    +0.000 A 
ATOM     14  C   UNL     1      -0.633  12.014  22.300  0.00  0.00    +0.000 A 
ATOM     15  C   UNL     1      -0.916  10.669  22.530  0.00  0.00    +0.000 A 
ATOM     16  C   UNL     1      -0.288   9.699  21.761  0.00  0.00    +0.000 A 
ATOM     17  F   UNL     1      -0.595   8.416  22.002  0.00  0.00    +0.000 F 
BRANCH  14  18
ATOM     18  C   UNL     1      -1.254  13.026  23.112  0.00  0.00    +0.000 C 
ATOM     19  N   UNL     1      -1.760  13.835  23.752  0.00  0.00    +0.000 NA
ENDBRANCH  14  18
ENDBRANCH   5  11
BRANCH   1  20
ATOM     20  C   UNL     1       3.967   3.761  18.873  0.00  0.00    +0.000 C 
BRANCH  20  21
ATOM     21  N   UNL     1       5.267   3.944  19.550  0.00  0.00    +0.000 NA
ATOM     22  H   UNL     1       5.479   4.942  19.529  0.00  0.00    +0.000 HD
ATOM     23  H   UNL     1       5.983   3.513  18.960  0.00  0.00    +0.000 HD
ENDBRANCH  20  21
BRANCH  20  24
ATOM     24  C   UNL     1       3.086   2.599  19.453  0.00  0.00    +0.000 C 
ATOM     25  C   UNL     1       1.645   2.674  18.926  0.00  0.00    +0.000 C 
BRANCH  24  27
ATOM     26  C   UNL     1       1.841   2.542  21.514  0.00  0.00    +0.000 C 
ATOM     27  O   UNL     1       3.093   2.749  20.890  0.00  0.00    +0.000 OA
ENDBRANCH  24  27
ENDBRANCH  20  24
ENDBRANCH   1  20
TORSDOF 6
ENDMDL
MODEL 9
REMARK VINA RESULT:      -7.0      2.898      4.288
REMARK  Name = 
REMARK  8 active torsions:
REMARK  status: ('A' for Active; 'I' for Inactive)
REMARK    1  A    between atoms: C_1  and  O_2
REMARK    2  A    between atoms: O_2  and  C_3
REMARK    3  A    between atoms: C_3  and  C_4
REMARK    4  A    between atoms: C_3  and  C_5
REMARK    5  A    between atoms: C_5  and  N_6
REMARK    6  A    between atoms: C_5  and  C_7
REMARK    7  A    between atoms: C_11  and  C_12
REMARK    8  A    between atoms: C_15  and  C_16
REMARK                            x       y       z     vdW  Elec       q    Type
REMARK                         _______ _______ _______ _____ _____    ______ ____
ROOT
ATOM      1  C   UNL     1       4.032   5.451  18.578  0.00  0.00    +0.000 A 
ATOM      2  N   UNL     1       3.383   5.756  19.681  0.00  0.00    +0.000 NA
ATOM      3  C   UNL     1       2.721   6.915  19.391  0.00  0.00    +0.000 A 
ATOM      4  C   UNL     1       1.905   7.683  20.218  0.00  0.00    +0.000 A 
ATOM      5  C   UNL     1       1.332   8.867  19.724  0.00  0.00    +0.000 A 
ATOM      6  C   UNL     1       1.613   9.257  18.399  0.00  0.00    +0.000 A 
ATOM      7  C   UNL     1       2.423   8.498  17.549  0.00  0.00    +0.000 A 
ATOM      8  C   UNL     1       2.949   7.328  18.086  0.00  0.00    +0.000 A 
ATOM      9  N   UNL     1       3.756   6.351  17.570  0.00  0.00    +0.000 N 
ATOM     10  H   UNL     1       4.157   6.327  16.642  0.00  0.00    +0.000 HD
ENDROOT
BRANCH   5  11
ATOM     11  C   UNL     1       0.459   9.668  20.593  0.00  0.00    +0.000 A 
ATOM     12  C   UNL     1      -0.429  10.607  20.038  0.00  0.00    +0.000 A 
ATOM     13  C   UNL     1      -1.287  11.348  20.850  0.00  0.00    +0.000 A 
ATOM     14  C   UNL     1      -1.259  11.174  22.234  0.00  0.00    +0.000 A 
ATOM     15  C   UNL     1      -0.392  10.245  22.805  0.00  0.00    +0.000 A 
ATOM     16  C   UNL     1       0.452   9.506  21.986  0.00  0.00    +0.000 A 
ATOM     17  F   UNL     1       1.263   8.612  22.571  0.00  0.00    +0.000 F 
BRANCH  14  18
ATOM     18  C   UNL     1      -2.115  11.967  23.075  0.00  0.00    +0.000 C 
ATOM     19  N   UNL     1      -2.793  12.611  23.741  0.00  0.00    +0.000 NA
ENDBRANCH  14  18
ENDBRANCH   5  11
BRANCH   1  20
ATOM     20  C   UNL     1       5.025   4.334  18.421  0.00  0.00    +0.000 C 
BRANCH  20  21
ATOM     21  N   UNL     1       4.352   3.223  17.720  0.00  0.00    +0.000 NA
ATOM     22  H   UNL     1       4.917   2.387  17.868  0.00  0.00    +0.000 HD
ATOM     23  H   UNL     1       4.419   3.408  16.716  0.00  0.00    +0.000 HD
ENDBRANCH  20  21
BRANCH  20  24
ATOM     24  C   UNL     1       6.308   4.881  17.701  0.00  0.00    +0.000 C 
ATOM     25  C   UNL     1       6.523   4.193  16.344  0.00  0.00    +0.000 C 
BRANCH  24  27
ATOM     26  C   UNL     1       7.966   5.740  19.223  0.00  0.00    +0.000 C 
ATOM     27  O   UNL     1       7.425   4.605  18.575  0.00  0.00    +0.000 OA
ENDBRANCH  24  27
ENDBRANCH  20  24
ENDBRANCH   1  20
TORSDOF 6
ENDMDL
