MODEL 1
REMARK VINA RESULT:      -8.4      0.000      0.000
REMARK  Name = 
REMARK  5 active torsions:
REMARK  status: ('A' for Active; 'I' for Inactive)
REMARK    1  A    between atoms: S_2  and  C_4
REMARK    2  A    between atoms: S_2  and  N_10
REMARK    3  A    between atoms: C_4  and  C_5
REMARK    4  A    between atoms: C_5  and  C_6
REMARK    5  A    between atoms: C_15  and  C_16
REMARK                            x       y       z     vdW  Elec       q    Type
REMARK                         _______ _______ _______ _____ _____    ______ ____
ROOT
ATOM      1  N   UNL     1       4.251   4.517  17.749  0.00  0.00    +0.000 NA
ATOM      2  C   UNL     1       5.208   4.158  18.829  0.00  0.00    +0.000 C 
ATOM      3  C   UNL     1       6.222   5.261  19.108  0.00  0.00    +0.000 C 
ATOM      4  C   UNL     1       7.431   5.252  18.183  0.00  0.00    +0.000 C 
ATOM      5  C   UNL     1       7.088   5.546  16.732  0.00  0.00    +0.000 C 
ATOM      6  C   UNL     1       6.250   4.434  16.081  0.00  0.00    +0.000 C 
ATOM      7  C   UNL     1       4.736   4.561  16.331  0.00  0.00    +0.000 C 
ENDROOT
BRANCH   6   8
ATOM      8  C   UNL     1       6.525   4.412  14.577  0.00  0.00    +0.000 A 
ATOM      9  C   UNL     1       5.781   3.562  13.745  0.00  0.00    +0.000 A 
ATOM     10  C   UNL     1       6.059   3.481  12.379  0.00  0.00    +0.000 A 
ATOM     11  C   UNL     1       7.079   4.253  11.826  0.00  0.00    +0.000 A 
ATOM     12  C   UNL     1       7.810   5.120  12.635  0.00  0.00    +0.000 A 
ATOM     13  C   UNL     1       7.535   5.201  14.001  0.00  0.00    +0.000 A 
ENDBRANCH   6   8
BRANCH   1  15
ATOM     14  O   UNL     1       2.274   3.202  16.731  0.00  0.00    +0.000 OA
ATOM     15  S   UNL     1       2.649   3.903  17.942  0.00  0.00    +0.000 S 
ATOM     16  O   UNL     1       1.803   4.931  18.499  0.00  0.00    +0.000 OA
BRANCH  15  17
ATOM     17  C   UNL     1       2.867   2.666  19.210  0.00  0.00    +0.000 C 
BRANCH  17  18
ATOM     18  C   UNL     1       1.634   2.472  20.075  0.00  0.00    +0.000 C 
BRANCH  18  19
ATOM     19  C   UNL     1       1.890   2.874  21.508  0.00  0.00    +0.000 C 
ATOM     20  F   UNL     1       0.903   2.487  22.341  0.00  0.00    +0.000 F 
ATOM     21  F   UNL     1       3.040   2.323  21.957  0.00  0.00    +0.000 F 
ATOM     22  F   UNL     1       2.014   4.215  21.616  0.00  0.00    +0.000 F 
ENDBRANCH  18  19
ENDBRANCH  17  18
ENDBRANCH  15  17
ENDBRANCH   1  15
TORSDOF 5
ENDMDL
MODEL 2
REMARK VINA RESULT:      -8.4      0.707      1.554
REMARK  Name = 
REMARK  5 active torsions:
REMARK  status: ('A' for Active; 'I' for Inactive)
REMARK    1  A    between atoms: S_2  and  C_4
REMARK    2  A    between atoms: S_2  and  N_10
REMARK    3  A    between atoms: C_4  and  C_5
REMARK    4  A    between atoms: C_5  and  C_6
REMARK    5  A    between atoms: C_15  and  C_16
REMARK                            x       y       z     vdW  Elec       q    Type
REMARK                         _______ _______ _______ _____ _____    ______ ____
ROOT
ATOM      1  N   UNL     1       4.291   4.115  17.699  0.00  0.00    +0.000 NA
ATOM      2  C   UNL     1       5.258   4.032  18.826  0.00  0.00    +0.000 C 
ATOM      3  C   UNL     1       5.986   5.348  19.075  0.00  0.00    +0.000 C 
ATOM      4  C   UNL     1       7.204   5.570  18.190  0.00  0.00    +0.000 C 
ATOM      5  C   UNL     1       6.864   5.713  16.715  0.00  0.00    +0.000 C 
ATOM      6  C   UNL     1       6.326   4.411  16.100  0.00  0.00    +0.000 C 
ATOM      7  C   UNL     1       4.813   4.202  16.296  0.00  0.00    +0.000 C 
ENDROOT
BRANCH   6   8
ATOM      8  C   UNL     1       6.662   4.382  14.608  0.00  0.00    +0.000 A 
ATOM      9  C   UNL     1       7.628   5.260  14.095  0.00  0.00    +0.000 A 
ATOM     10  C   UNL     1       7.905   5.293  12.726  0.00  0.00    +0.000 A 
ATOM     11  C   UNL     1       7.224   4.445  11.855  0.00  0.00    +0.000 A 
ATOM     12  C   UNL     1       6.279   3.552  12.353  0.00  0.00    +0.000 A 
ATOM     13  C   UNL     1       6.000   3.518  13.721  0.00  0.00    +0.000 A 
ENDBRANCH   6   8
BRANCH   1  15
ATOM     14  O   UNL     1       3.235   1.859  18.383  0.00  0.00    +0.000 OA
ATOM     15  S   UNL     1       2.862   3.164  17.876  0.00  0.00    +0.000 S 
ATOM     16  O   UNL     1       2.045   3.297  16.694  0.00  0.00    +0.000 OA
BRANCH  15  17
ATOM     17  C   UNL     1       2.006   4.007  19.196  0.00  0.00    +0.000 C 
BRANCH  17  18
ATOM     18  C   UNL     1       1.279   3.062  20.138  0.00  0.00    +0.000 C 
BRANCH  18  19
ATOM     19  C   UNL     1       1.923   3.035  21.504  0.00  0.00    +0.000 C 
ATOM     20  F   UNL     1       2.247   4.265  21.951  0.00  0.00    +0.000 F 
ATOM     21  F   UNL     1       1.088   2.480  22.411  0.00  0.00    +0.000 F 
ATOM     22  F   UNL     1       3.053   2.294  21.489  0.00  0.00    +0.000 F 
ENDBRANCH  18  19
ENDBRANCH  17  18
ENDBRANCH  15  17
ENDBRANCH   1  15
TORSDOF 5
ENDMDL
MODEL 3
REMARK VINA RESULT:      -8.3      5.249      7.333
REMARK  Name = 
REMARK  5 active torsions:
REMARK  status: ('A' for Active; 'I' for Inactive)
REMARK    1  A    between atoms: S_2  and  C_4
REMARK    2  A    between atoms: S_2  and  N_10
REMARK    3  A    between atoms: C_4  and  C_5
REMARK    4  A    between atoms: C_5  and  C_6
REMARK    5  A    between atoms: C_15  and  C_16
REMARK                            x       y       z     vdW  Elec       q    Type
REMARK                         _______ _______ _______ _____ _____    ______ ____
ROOT
ATOM      1  N   UNL     1       5.103   5.004  16.825  0.00  0.00    +0.000 NA
ATOM      2  C   UNL     1       5.001   3.755  17.625  0.00  0.00    +0.000 C 
ATOM      3  C   UNL     1       3.685   3.019  17.401  0.00  0.00    +0.000 C 
ATOM      4  C   UNL     1       2.528   3.528  18.250  0.00  0.00    +0.000 C 
ATOM      5  C   UNL     1       2.113   4.952  17.920  0.00  0.00    +0.000 C 
ATOM      6  C   UNL     1       3.188   5.987  18.291  0.00  0.00    +0.000 C 
ATOM      7  C   UNL     1       4.267   6.187  17.211  0.00  0.00    +0.000 C 
ENDROOT
BRANCH   6   8
ATOM      8  C   UNL     1       2.513   7.324  18.601  0.00  0.00    +0.000 A 
ATOM      9  C   UNL     1       2.000   7.564  19.885  0.00  0.00    +0.000 A 
ATOM     10  C   UNL     1       1.326   8.754  20.170  0.00  0.00    +0.000 A 
ATOM     11  C   UNL     1       1.161   9.719  19.179  0.00  0.00    +0.000 A 
ATOM     12  C   UNL     1       1.685   9.505  17.907  0.00  0.00    +0.000 A 
ATOM     13  C   UNL     1       2.359   8.316  17.619  0.00  0.00    +0.000 A 
ENDBRANCH   6   8
BRANCH   1  15
ATOM     14  O   UNL     1       7.618   4.415  16.778  0.00  0.00    +0.000 OA
ATOM     15  S   UNL     1       6.687   5.398  16.262  0.00  0.00    +0.000 S 
ATOM     16  O   UNL     1       6.923   6.811  16.436  0.00  0.00    +0.000 OA
BRANCH  15  17
ATOM     17  C   UNL     1       6.547   5.108  14.506  0.00  0.00    +0.000 C 
BRANCH  17  18
ATOM     18  C   UNL     1       6.067   3.707  14.167  0.00  0.00    +0.000 C 
BRANCH  18  19
ATOM     19  C   UNL     1       5.873   3.531  12.679  0.00  0.00    +0.000 C 
ATOM     20  F   UNL     1       4.645   3.908  12.268  0.00  0.00    +0.000 F 
ATOM     21  F   UNL     1       6.775   4.267  11.992  0.00  0.00    +0.000 F 
ATOM     22  F   UNL     1       6.046   2.240  12.321  0.00  0.00    +0.000 F 
ENDBRANCH  18  19
ENDBRANCH  17  18
ENDBRANCH  15  17
ENDBRANCH   1  15
TORSDOF 5
ENDMDL
MODEL 4
REMARK VINA RESULT:      -8.3      0.648      1.142
REMARK  Name = 
REMARK  5 active torsions:
REMARK  status: ('A' for Active; 'I' for Inactive)
REMARK    1  A    between atoms: S_2  and  C_4
REMARK    2  A    between atoms: S_2  and  N_10
REMARK    3  A    between atoms: C_4  and  C_5
REMARK    4  A    between atoms: C_5  and  C_6
REMARK    5  A    between atoms: C_15  and  C_16
REMARK                            x       y       z     vdW  Elec       q    Type
REMARK                         _______ _______ _______ _____ _____    ______ ____
ROOT
ATOM      1  N   UNL     1       4.248   4.072  17.679  0.00  0.00    +0.000 NA
ATOM      2  C   UNL     1       5.224   3.933  18.792  0.00  0.00    +0.000 C 
ATOM      3  C   UNL     1       5.972   5.229  19.085  0.00  0.00    +0.000 C 
ATOM      4  C   UNL     1       7.184   5.470  18.196  0.00  0.00    +0.000 C 
ATOM      5  C   UNL     1       6.832   5.675  16.731  0.00  0.00    +0.000 C 
ATOM      6  C   UNL     1       6.270   4.405  16.072  0.00  0.00    +0.000 C 
ATOM      7  C   UNL     1       4.757   4.208  16.275  0.00  0.00    +0.000 C 
ENDROOT
BRANCH   6   8
ATOM      8  C   UNL     1       6.591   4.431  14.577  0.00  0.00    +0.000 A 
ATOM      9  C   UNL     1       5.939   3.542  13.709  0.00  0.00    +0.000 A 
ATOM     10  C   UNL     1       6.264   3.507  12.351  0.00  0.00    +0.000 A 
ATOM     11  C   UNL     1       7.238   4.364  11.842  0.00  0.00    +0.000 A 
ATOM     12  C   UNL     1       7.876   5.268  12.687  0.00  0.00    +0.000 A 
ATOM     13  C   UNL     1       7.554   5.304  14.045  0.00  0.00    +0.000 A 
ENDBRANCH   6   8
BRANCH   1  15
ATOM     14  O   UNL     1       3.178   1.765  18.130  0.00  0.00    +0.000 OA
ATOM     15  S   UNL     1       2.808   3.133  17.833  0.00  0.00    +0.000 S 
ATOM     16  O   UNL     1       1.912   3.442  16.745  0.00  0.00    +0.000 OA
BRANCH  15  17
ATOM     17  C   UNL     1       2.074   3.805  19.315  0.00  0.00    +0.000 C 
BRANCH  17  18
ATOM     18  C   UNL     1       1.455   2.745  20.211  0.00  0.00    +0.000 C 
BRANCH  18  19
ATOM     19  C   UNL     1       1.902   2.899  21.645  0.00  0.00    +0.000 C 
ATOM     20  F   UNL     1       2.247   4.167  21.948  0.00  0.00    +0.000 F 
ATOM     21  F   UNL     1       0.913   2.535  22.492  0.00  0.00    +0.000 F 
ATOM     22  F   UNL     1       2.968   2.112  21.905  0.00  0.00    +0.000 F 
ENDBRANCH  18  19
ENDBRANCH  17  18
ENDBRANCH  15  17
ENDBRANCH   1  15
TORSDOF 5
ENDMDL
MODEL 5
REMARK VINA RESULT:      -8.2      5.252      7.358
REMARK  Name = 
REMARK  5 active torsions:
REMARK  status: ('A' for Active; 'I' for Inactive)
REMARK    1  A    between atoms: S_2  and  C_4
REMARK    2  A    between atoms: S_2  and  N_10
REMARK    3  A    between atoms: C_4  and  C_5
REMARK    4  A    between atoms: C_5  and  C_6
REMARK    5  A    between atoms: C_15  and  C_16
REMARK                            x       y       z     vdW  Elec       q    Type
REMARK                         _______ _______ _______ _____ _____    ______ ____
ROOT
ATOM      1  N   UNL     1       5.065   5.008  16.872  0.00  0.00    +0.000 NA
ATOM      2  C   UNL     1       5.009   3.781  17.710  0.00  0.00    +0.000 C 
ATOM      3  C   UNL     1       3.707   3.007  17.535  0.00  0.00    +0.000 C 
ATOM      4  C   UNL     1       2.556   3.513  18.393  0.00  0.00    +0.000 C 
ATOM      5  C   UNL     1       2.099   4.917  18.029  0.00  0.00    +0.000 C 
ATOM      6  C   UNL     1       3.156   5.987  18.348  0.00  0.00    +0.000 C 
ATOM      7  C   UNL     1       4.208   6.181  17.241  0.00  0.00    +0.000 C 
ENDROOT
BRANCH   6   8
ATOM      8  C   UNL     1       2.455   7.316  18.633  0.00  0.00    +0.000 A 
ATOM      9  C   UNL     1       2.377   8.292  17.628  0.00  0.00    +0.000 A 
ATOM     10  C   UNL     1       1.796   9.536  17.887  0.00  0.00    +0.000 A 
ATOM     11  C   UNL     1       1.281   9.817  19.151  0.00  0.00    +0.000 A 
ATOM     12  C   UNL     1       1.329   8.850  20.151  0.00  0.00    +0.000 A 
ATOM     13  C   UNL     1       1.910   7.606  19.895  0.00  0.00    +0.000 A 
ENDBRANCH   6   8
BRANCH   1  15
ATOM     14  O   UNL     1       7.581   4.437  16.733  0.00  0.00    +0.000 OA
ATOM     15  S   UNL     1       6.627   5.422  16.265  0.00  0.00    +0.000 S 
ATOM     16  O   UNL     1       6.860   6.833  16.458  0.00  0.00    +0.000 OA
BRANCH  15  17
ATOM     17  C   UNL     1       6.432   5.163  14.510  0.00  0.00    +0.000 C 
BRANCH  17  18
ATOM     18  C   UNL     1       6.189   3.708  14.143  0.00  0.00    +0.000 C 
BRANCH  18  19
ATOM     19  C   UNL     1       5.957   3.541  12.660  0.00  0.00    +0.000 C 
ATOM     20  F   UNL     1       6.835   4.242  11.914  0.00  0.00    +0.000 F 
ATOM     21  F   UNL     1       6.070   2.241  12.306  0.00  0.00    +0.000 F 
ATOM     22  F   UNL     1       4.714   3.947  12.319  0.00  0.00    +0.000 F 
ENDBRANCH  18  19
ENDBRANCH  17  18
ENDBRANCH  15  17
ENDBRANCH   1  15
TORSDOF 5
ENDMDL
MODEL 6
REMARK VINA RESULT:      -8.1      3.233      5.198
REMARK  Name = 
REMARK  5 active torsions:
REMARK  status: ('A' for Active; 'I' for Inactive)
REMARK    1  A    between atoms: S_2  and  C_4
REMARK    2  A    between atoms: S_2  and  N_10
REMARK    3  A    between atoms: C_4  and  C_5
REMARK    4  A    between atoms: C_5  and  C_6
REMARK    5  A    between atoms: C_15  and  C_16
REMARK                            x       y       z     vdW  Elec       q    Type
REMARK                         _______ _______ _______ _____ _____    ______ ____
ROOT
ATOM      1  N   UNL     1       4.342   3.972  17.979  0.00  0.00    +0.000 NA
ATOM      2  C   UNL     1       4.596   3.967  16.514  0.00  0.00    +0.000 C 
ATOM      3  C   UNL     1       5.674   4.963  16.100  0.00  0.00    +0.000 C 
ATOM      4  C   UNL     1       5.171   6.385  15.898  0.00  0.00    +0.000 C 
ATOM      5  C   UNL     1       4.662   7.036  17.174  0.00  0.00    +0.000 C 
ATOM      6  C   UNL     1       3.380   6.377  17.708  0.00  0.00    +0.000 C 
ATOM      7  C   UNL     1       3.631   5.141  18.591  0.00  0.00    +0.000 C 
ENDROOT
BRANCH   6   8
ATOM      8  C   UNL     1       2.569   7.413  18.487  0.00  0.00    +0.000 A 
ATOM      9  C   UNL     1       2.274   7.192  19.841  0.00  0.00    +0.000 A 
ATOM     10  C   UNL     1       1.481   8.095  20.553  0.00  0.00    +0.000 A 
ATOM     11  C   UNL     1       0.980   9.233  19.924  0.00  0.00    +0.000 A 
ATOM     12  C   UNL     1       1.285   9.478  18.588  0.00  0.00    +0.000 A 
ATOM     13  C   UNL     1       2.075   8.576  17.873  0.00  0.00    +0.000 A 
ENDBRANCH   6   8
BRANCH   1  15
ATOM     14  O   UNL     1       4.613   2.312  19.940  0.00  0.00    +0.000 OA
ATOM     15  S   UNL     1       3.934   2.442  18.667  0.00  0.00    +0.000 S 
ATOM     16  O   UNL     1       4.041   1.416  17.658  0.00  0.00    +0.000 OA
BRANCH  15  17
ATOM     17  C   UNL     1       2.196   2.639  19.024  0.00  0.00    +0.000 C 
BRANCH  17  18
ATOM     18  C   UNL     1       1.794   2.069  20.374  0.00  0.00    +0.000 C 
BRANCH  18  19
ATOM     19  C   UNL     1       1.427   3.161  21.351  0.00  0.00    +0.000 C 
ATOM     20  F   UNL     1       0.757   2.694  22.424  0.00  0.00    +0.000 F 
ATOM     21  F   UNL     1       2.538   3.783  21.806  0.00  0.00    +0.000 F 
ATOM     22  F   UNL     1       0.653   4.096  20.760  0.00  0.00    +0.000 F 
ENDBRANCH  18  19
ENDBRANCH  17  18
ENDBRANCH  15  17
ENDBRANCH   1  15
TORSDOF 5
ENDMDL
MODEL 7
REMARK VINA RESULT:      -8.1      4.863      6.988
REMARK  Name = 
REMARK  5 active torsions:
REMARK  status: ('A' for Active; 'I' for Inactive)
REMARK    1  A    between atoms: S_2  and  C_4
REMARK    2  A    between atoms: S_2  and  N_10
REMARK    3  A    between atoms: C_4  and  C_5
REMARK    4  A    between atoms: C_5  and  C_6
REMARK    5  A    between atoms: C_15  and  C_16
REMARK                            x       y       z     vdW  Elec       q    Type
REMARK                         _______ _______ _______ _____ _____    ______ ____
ROOT
ATOM      1  N   UNL     1       5.276   5.018  18.247  0.00  0.00    +0.000 NA
ATOM      2  C   UNL     1       5.047   3.888  19.186  0.00  0.00    +0.000 C 
ATOM      3  C   UNL     1       3.828   3.051  18.815  0.00  0.00    +0.000 C 
ATOM      4  C   UNL     1       2.506   3.604  19.329  0.00  0.00    +0.000 C 
ATOM      5  C   UNL     1       2.127   4.942  18.714  0.00  0.00    +0.000 C 
ATOM      6  C   UNL     1       3.070   6.080  19.136  0.00  0.00    +0.000 C 
ATOM      7  C   UNL     1       4.343   6.191  18.277  0.00  0.00    +0.000 C 
ENDROOT
BRANCH   6   8
ATOM      8  C   UNL     1       2.307   7.404  19.102  0.00  0.00    +0.000 A 
ATOM      9  C   UNL     1       2.262   8.153  17.916  0.00  0.00    +0.000 A 
ATOM     10  C   UNL     1       1.623   9.394  17.882  0.00  0.00    +0.000 A 
ATOM     11  C   UNL     1       1.015   9.900  19.030  0.00  0.00    +0.000 A 
ATOM     12  C   UNL     1       1.030   9.157  20.207  0.00  0.00    +0.000 A 
ATOM     13  C   UNL     1       1.670   7.916  20.245  0.00  0.00    +0.000 A 
ENDBRANCH   6   8
BRANCH   1  15
ATOM     14  O   UNL     1       7.722   4.946  19.076  0.00  0.00    +0.000 OA
ATOM     15  S   UNL     1       6.930   5.423  17.961  0.00  0.00    +0.000 S 
ATOM     16  O   UNL     1       7.020   6.792  17.515  0.00  0.00    +0.000 OA
BRANCH  15  17
ATOM     17  C   UNL     1       7.335   4.393  16.560  0.00  0.00    +0.000 C 
BRANCH  17  18
ATOM     18  C   UNL     1       6.114   3.931  15.783  0.00  0.00    +0.000 C 
BRANCH  18  19
ATOM     19  C   UNL     1       5.827   4.835  14.608  0.00  0.00    +0.000 C 
ATOM     20  F   UNL     1       5.191   5.968  14.968  0.00  0.00    +0.000 F 
ATOM     21  F   UNL     1       6.977   5.193  13.994  0.00  0.00    +0.000 F 
ATOM     22  F   UNL     1       5.058   4.206  13.693  0.00  0.00    +0.000 F 
ENDBRANCH  18  19
ENDBRANCH  17  18
ENDBRANCH  15  17
ENDBRANCH   1  15
TORSDOF 5
ENDMDL
MODEL 8
REMARK VINA RESULT:      -8.1      4.843      7.021
REMARK  Name = 
REMARK  5 active torsions:
REMARK  status: ('A' for Active; 'I' for Inactive)
REMARK    1  A    between atoms: S_2  and  C_4
REMARK    2  A    between atoms: S_2  and  N_10
REMARK    3  A    between atoms: C_4  and  C_5
REMARK    4  A    between atoms: C_5  and  C_6
REMARK    5  A    between atoms: C_15  and  C_16
REMARK                            x       y       z     vdW  Elec       q    Type
REMARK                         _______ _______ _______ _____ _____    ______ ____
ROOT
ATOM      1  N   UNL     1       5.208   5.239  18.011  0.00  0.00    +0.000 NA
ATOM      2  C   UNL     1       4.795   3.935  18.594  0.00  0.00    +0.000 C 
ATOM      3  C   UNL     1       3.631   3.297  17.845  0.00  0.00    +0.000 C 
ATOM      4  C   UNL     1       2.258   3.799  18.273  0.00  0.00    +0.000 C 
ATOM      5  C   UNL     1       2.024   5.268  17.959  0.00  0.00    +0.000 C 
ATOM      6  C   UNL     1       2.917   6.203  18.789  0.00  0.00    +0.000 C 
ATOM      7  C   UNL     1       4.317   6.431  18.190  0.00  0.00    +0.000 C 
ENDROOT
BRANCH   6   8
ATOM      8  C   UNL     1       2.207   7.546  18.970  0.00  0.00    +0.000 A 
ATOM      9  C   UNL     1       1.706   7.905  20.230  0.00  0.00    +0.000 A 
ATOM     10  C   UNL     1       1.001   9.098  20.401  0.00  0.00    +0.000 A 
ATOM     11  C   UNL     1       0.793   9.950  19.318  0.00  0.00    +0.000 A 
ATOM     12  C   UNL     1       1.306   9.619  18.067  0.00  0.00    +0.000 A 
ATOM     13  C   UNL     1       2.010   8.426  17.892  0.00  0.00    +0.000 A 
ENDBRANCH   6   8
BRANCH   1  15
ATOM     14  O   UNL     1       7.402   5.136  19.372  0.00  0.00    +0.000 OA
ATOM     15  S   UNL     1       6.897   5.587  18.091  0.00  0.00    +0.000 S 
ATOM     16  O   UNL     1       7.134   6.934  17.630  0.00  0.00    +0.000 OA
BRANCH  15  17
ATOM     17  C   UNL     1       7.568   4.489  16.854  0.00  0.00    +0.000 C 
BRANCH  17  18
ATOM     18  C   UNL     1       7.258   4.926  15.433  0.00  0.00    +0.000 C 
BRANCH  18  19
ATOM     19  C   UNL     1       6.151   4.098  14.825  0.00  0.00    +0.000 C 
ATOM     20  F   UNL     1       4.975   4.756  14.780  0.00  0.00    +0.000 F 
ATOM     21  F   UNL     1       6.465   3.741  13.560  0.00  0.00    +0.000 F 
ATOM     22  F   UNL     1       5.958   2.962  15.530  0.00  0.00    +0.000 F 
ENDBRANCH  18  19
ENDBRANCH  17  18
ENDBRANCH  15  17
ENDBRANCH   1  15
TORSDOF 5
ENDMDL
MODEL 9
REMARK VINA RESULT:      -8.1      3.249      5.231
REMARK  Name = 
REMARK  5 active torsions:
REMARK  status: ('A' for Active; 'I' for Inactive)
REMARK    1  A    between atoms: S_2  and  C_4
REMARK    2  A    between atoms: S_2  and  N_10
REMARK    3  A    between atoms: C_4  and  C_5
REMARK    4  A    between atoms: C_5  and  C_6
REMARK    5  A    between atoms: C_15  and  C_16
REMARK                            x       y       z     vdW  Elec       q    Type
REMARK                         _______ _______ _______ _____ _____    ______ ____
ROOT
ATOM      1  N   UNL     1       4.348   3.966  18.027  0.00  0.00    +0.000 NA
ATOM      2  C   UNL     1       4.621   3.967  16.566  0.00  0.00    +0.000 C 
ATOM      3  C   UNL     1       5.683   4.986  16.165  0.00  0.00    +0.000 C 
ATOM      4  C   UNL     1       5.151   6.397  15.956  0.00  0.00    +0.000 C 
ATOM      5  C   UNL     1       4.612   7.037  17.225  0.00  0.00    +0.000 C 
ATOM      6  C   UNL     1       3.338   6.350  17.743  0.00  0.00    +0.000 C 
ATOM      7  C   UNL     1       3.604   5.120  18.630  0.00  0.00    +0.000 C 
ENDROOT
BRANCH   6   8
ATOM      8  C   UNL     1       2.495   7.368  18.511  0.00  0.00    +0.000 A 
ATOM      9  C   UNL     1       2.025   8.518  17.859  0.00  0.00    +0.000 A 
ATOM     10  C   UNL     1       1.306   9.490  18.559  0.00  0.00    +0.000 A 
ATOM     11  C   UNL     1       1.043   9.322  19.916  0.00  0.00    +0.000 A 
ATOM     12  C   UNL     1       1.482   8.175  20.572  0.00  0.00    +0.000 A 
ATOM     13  C   UNL     1       2.202   7.203  19.875  0.00  0.00    +0.000 A 
ENDBRANCH   6   8
BRANCH   1  15
ATOM     14  O   UNL     1       4.675   2.290  19.965  0.00  0.00    +0.000 OA
ATOM     15  S   UNL     1       3.964   2.429  18.711  0.00  0.00    +0.000 S 
ATOM     16  O   UNL     1       4.052   1.412  17.689  0.00  0.00    +0.000 OA
BRANCH  15  17
ATOM     17  C   UNL     1       2.235   2.614  19.112  0.00  0.00    +0.000 C 
BRANCH  17  18
ATOM     18  C   UNL     1       1.869   2.033  20.468  0.00  0.00    +0.000 C 
BRANCH  18  19
ATOM     19  C   UNL     1       1.458   3.112  21.442  0.00  0.00    +0.000 C 
ATOM     20  F   UNL     1       0.724   2.634  22.466  0.00  0.00    +0.000 F 
ATOM     21  F   UNL     1       2.548   3.715  21.969  0.00  0.00    +0.000 F 
ATOM     22  F   UNL     1       0.728   4.065  20.824  0.00  0.00    +0.000 F 
ENDBRANCH  18  19
ENDBRANCH  17  18
ENDBRANCH  15  17
ENDBRANCH   1  15
TORSDOF 5
ENDMDL
