MODEL 1
REMARK VINA RESULT:      -7.6      0.000      0.000
REMARK  Name = 
REMARK  10 active torsions:
REMARK  status: ('A' for Active; 'I' for Inactive)
REMARK    1  A    between atoms: C_1  and  C_2
REMARK    2  A    between atoms: C_2  and  C_3
REMARK    3  A    between atoms: C_3  and  S_4
REMARK    4  A    between atoms: S_4  and  C_5
REMARK    5  A    between atoms: C_5  and  C_6
REMARK    6  A    between atoms: C_10  and  N_11
REMARK    7  A    between atoms: C_12  and  C_13
REMARK    8  A    between atoms: C_15  and  C_16
REMARK    9  A    between atoms: C_19  and  O_20
REMARK   10  A    between atoms: O_20  and  C_21
REMARK                            x       y       z     vdW  Elec       q    Type
REMARK                         _______ _______ _______ _____ _____    ______ ____
ROOT
ATOM      1  C   UNL     1       6.762   5.175  16.083  0.00  0.00    +0.000 C 
ATOM      2  O   UNL     1       7.437   6.205  15.997  0.00  0.00    +0.000 OA
ATOM      3  N   UNL     1       5.846   5.000  17.096  0.00  0.00    +0.000 N 
ATOM      4  C   UNL     1       4.968   3.865  17.308  0.00  0.00    +0.000 C 
ATOM      5  C   UNL     1       3.666   4.505  17.799  0.00  0.00    +0.000 C 
ATOM      6  C   UNL     1       4.181   5.675  18.681  0.00  0.00    +0.000 C 
ATOM      7  C   UNL     1       5.535   6.063  18.042  0.00  0.00    +0.000 C 
ENDROOT
BRANCH   6   8
ATOM      8  C   UNL     1       3.190   6.821  18.770  0.00  0.00    +0.000 A 
ATOM      9  C   UNL     1       3.056   7.729  17.710  0.00  0.00    +0.000 A 
ATOM     10  C   UNL     1       2.182   8.817  17.814  0.00  0.00    +0.000 A 
ATOM     11  C   UNL     1       1.402   8.995  18.956  0.00  0.00    +0.000 A 
ATOM     12  C   UNL     1       1.531   8.101  20.016  0.00  0.00    +0.000 A 
ATOM     13  C   UNL     1       2.415   7.024  19.922  0.00  0.00    +0.000 A 
BRANCH  11  14
ATOM     14  O   UNL     1       0.580  10.089  18.956  0.00  0.00    +0.000 OA
ATOM     15  C   UNL     1      -0.377  10.117  20.012  0.00  0.00    +0.000 C 
ENDBRANCH  11  14
ENDBRANCH   6   8
BRANCH   5  16
ATOM     16  N   UNL     1       2.799   3.569  18.496  0.00  0.00    +0.000 N 
ATOM     17  C   UNL     1       1.452   3.514  18.188  0.00  0.00    +0.000 C 
ATOM     18  C   UNL     1       0.650   2.574  19.039  0.00  0.00    +0.000 C 
ATOM     19  O   UNL     1       0.945   4.149  17.270  0.00  0.00    +0.000 OA
ATOM     20  H   UNL     1       3.093   3.225  19.402  0.00  0.00    +0.000 HD
ENDBRANCH   5  16
BRANCH   1  21
ATOM     21  C   UNL     1       6.903   4.073  15.041  0.00  0.00    +0.000 C 
BRANCH  21  22
ATOM     22  S   UNL     1       5.632   4.223  13.738  0.00  0.00    +0.000 S 
BRANCH  22  23
ATOM     23  C   UNL     1       6.510   3.471  12.324  0.00  0.00    +0.000 C 
BRANCH  23  25
ATOM     24  C   UNL     1       6.382   1.274  11.079  0.00  0.00    +0.000 C 
ATOM     25  C   UNL     1       5.595   2.432  11.674  0.00  0.00    +0.000 C 
ENDBRANCH  23  25
ENDBRANCH  22  23
ENDBRANCH  21  22
ENDBRANCH   1  21
TORSDOF 7
ENDMDL
MODEL 2
REMARK VINA RESULT:      -7.5      0.735      1.274
REMARK  Name = 
REMARK  10 active torsions:
REMARK  status: ('A' for Active; 'I' for Inactive)
REMARK    1  A    between atoms: C_1  and  C_2
REMARK    2  A    between atoms: C_2  and  C_3
REMARK    3  A    between atoms: C_3  and  S_4
REMARK    4  A    between atoms: S_4  and  C_5
REMARK    5  A    between atoms: C_5  and  C_6
REMARK    6  A    between atoms: C_10  and  N_11
REMARK    7  A    between atoms: C_12  and  C_13
REMARK    8  A    between atoms: C_15  and  C_16
REMARK    9  A    between atoms: C_19  and  O_20
REMARK   10  A    between atoms: O_20  and  C_21
REMARK                            x       y       z     vdW  Elec       q    Type
REMARK                         _______ _______ _______ _____ _____    ______ ____
ROOT
ATOM      1  C   UNL     1       6.683   5.152  15.962  0.00  0.00    +0.000 C 
ATOM      2  O   UNL     1       7.375   6.168  15.856  0.00  0.00    +0.000 OA
ATOM      3  N   UNL     1       5.797   4.992  17.004  0.00  0.00    +0.000 N 
ATOM      4  C   UNL     1       4.905   3.874  17.243  0.00  0.00    +0.000 C 
ATOM      5  C   UNL     1       3.633   4.538  17.776  0.00  0.00    +0.000 C 
ATOM      6  C   UNL     1       4.199   5.695  18.644  0.00  0.00    +0.000 C 
ATOM      7  C   UNL     1       5.538   6.058  17.961  0.00  0.00    +0.000 C 
ENDROOT
BRANCH   6   8
ATOM      8  C   UNL     1       3.234   6.860  18.767  0.00  0.00    +0.000 A 
ATOM      9  C   UNL     1       2.456   7.020  19.923  0.00  0.00    +0.000 A 
ATOM     10  C   UNL     1       1.527   8.064  20.015  0.00  0.00    +0.000 A 
ATOM     11  C   UNL     1       1.386   8.982  18.976  0.00  0.00    +0.000 A 
ATOM     12  C   UNL     1       2.150   8.829  17.821  0.00  0.00    +0.000 A 
ATOM     13  C   UNL     1       3.066   7.779  17.720  0.00  0.00    +0.000 A 
BRANCH  11  14
ATOM     14  O   UNL     1       0.452   9.963  19.165  0.00  0.00    +0.000 OA
ATOM     15  C   UNL     1       0.752  10.880  20.214  0.00  0.00    +0.000 C 
ENDBRANCH  11  14
ENDBRANCH   6   8
BRANCH   5  16
ATOM     16  N   UNL     1       2.771   3.617  18.500  0.00  0.00    +0.000 N 
ATOM     17  C   UNL     1       1.424   3.542  18.191  0.00  0.00    +0.000 C 
ATOM     18  C   UNL     1       0.627   2.623  19.068  0.00  0.00    +0.000 C 
ATOM     19  O   UNL     1       0.915   4.146  17.252  0.00  0.00    +0.000 OA
ATOM     20  H   UNL     1       3.065   3.304  19.417  0.00  0.00    +0.000 HD
ENDBRANCH   5  16
BRANCH   1  21
ATOM     21  C   UNL     1       6.769   4.049  14.914  0.00  0.00    +0.000 C 
BRANCH  21  22
ATOM     22  S   UNL     1       7.161   4.728  13.264  0.00  0.00    +0.000 S 
BRANCH  22  23
ATOM     23  C   UNL     1       6.392   3.467  12.191  0.00  0.00    +0.000 C 
BRANCH  23  25
ATOM     24  C   UNL     1       4.118   3.148  11.131  0.00  0.00    +0.000 C 
ATOM     25  C   UNL     1       4.877   3.499  12.402  0.00  0.00    +0.000 C 
ENDBRANCH  23  25
ENDBRANCH  22  23
ENDBRANCH  21  22
ENDBRANCH   1  21
TORSDOF 7
ENDMDL
MODEL 3
REMARK VINA RESULT:      -7.0      1.081      1.114
REMARK  Name = 
REMARK  10 active torsions:
REMARK  status: ('A' for Active; 'I' for Inactive)
REMARK    1  A    between atoms: C_1  and  C_2
REMARK    2  A    between atoms: C_2  and  C_3
REMARK    3  A    between atoms: C_3  and  S_4
REMARK    4  A    between atoms: S_4  and  C_5
REMARK    5  A    between atoms: C_5  and  C_6
REMARK    6  A    between atoms: C_10  and  N_11
REMARK    7  A    between atoms: C_12  and  C_13
REMARK    8  A    between atoms: C_15  and  C_16
REMARK    9  A    between atoms: C_19  and  O_20
REMARK   10  A    between atoms: O_20  and  C_21
REMARK                            x       y       z     vdW  Elec       q    Type
REMARK                         _______ _______ _______ _____ _____    ______ ____
ROOT
ATOM      1  C   UNL     1       5.363   5.269  15.501  0.00  0.00    +0.000 C 
ATOM      2  O   UNL     1       5.905   6.250  14.986  0.00  0.00    +0.000 OA
ATOM      3  N   UNL     1       4.819   5.331  16.765  0.00  0.00    +0.000 N 
ATOM      4  C   UNL     1       4.130   4.277  17.485  0.00  0.00    +0.000 C 
ATOM      5  C   UNL     1       3.003   5.016  18.211  0.00  0.00    +0.000 C 
ATOM      6  C   UNL     1       3.683   6.354  18.609  0.00  0.00    +0.000 C 
ATOM      7  C   UNL     1       4.742   6.582  17.507  0.00  0.00    +0.000 C 
ENDROOT
BRANCH   6   8
ATOM      8  C   UNL     1       2.691   7.493  18.757  0.00  0.00    +0.000 A 
ATOM      9  C   UNL     1       2.467   8.383  17.697  0.00  0.00    +0.000 A 
ATOM     10  C   UNL     1       1.593   9.466  17.850  0.00  0.00    +0.000 A 
ATOM     11  C   UNL     1       0.902   9.656  19.046  0.00  0.00    +0.000 A 
ATOM     12  C   UNL     1       1.121   8.780  20.108  0.00  0.00    +0.000 A 
ATOM     13  C   UNL     1       2.006   7.709  19.962  0.00  0.00    +0.000 A 
BRANCH  11  14
ATOM     14  O   UNL     1       0.073  10.743  19.093  0.00  0.00    +0.000 OA
ATOM     15  C   UNL     1      -1.304  10.454  18.867  0.00  0.00    +0.000 C 
ENDBRANCH  11  14
ENDBRANCH   6   8
BRANCH   5  16
ATOM     16  N   UNL     1       2.461   4.265  19.333  0.00  0.00    +0.000 N 
ATOM     17  C   UNL     1       1.392   3.409  19.139  0.00  0.00    +0.000 C 
ATOM     18  C   UNL     1       0.868   2.764  20.388  0.00  0.00    +0.000 C 
ATOM     19  O   UNL     1       0.923   3.157  18.034  0.00  0.00    +0.000 OA
ATOM     20  H   UNL     1       2.625   4.615  20.269  0.00  0.00    +0.000 HD
ENDBRANCH   5  16
BRANCH   1  21
ATOM     21  C   UNL     1       5.251   3.958  14.733  0.00  0.00    +0.000 C 
BRANCH  21  22
ATOM     22  S   UNL     1       6.505   3.854  13.409  0.00  0.00    +0.000 S 
BRANCH  22  23
ATOM     23  C   UNL     1       5.459   3.369  11.993  0.00  0.00    +0.000 C 
BRANCH  23  25
ATOM     24  C   UNL     1       7.179   1.789  11.024  0.00  0.00    +0.000 C 
ATOM     25  C   UNL     1       5.784   1.923  11.615  0.00  0.00    +0.000 C 
ENDBRANCH  23  25
ENDBRANCH  22  23
ENDBRANCH  21  22
ENDBRANCH   1  21
TORSDOF 7
ENDMDL
MODEL 4
REMARK VINA RESULT:      -7.0      1.474      1.873
REMARK  Name = 
REMARK  10 active torsions:
REMARK  status: ('A' for Active; 'I' for Inactive)
REMARK    1  A    between atoms: C_1  and  C_2
REMARK    2  A    between atoms: C_2  and  C_3
REMARK    3  A    between atoms: C_3  and  S_4
REMARK    4  A    between atoms: S_4  and  C_5
REMARK    5  A    between atoms: C_5  and  C_6
REMARK    6  A    between atoms: C_10  and  N_11
REMARK    7  A    between atoms: C_12  and  C_13
REMARK    8  A    between atoms: C_15  and  C_16
REMARK    9  A    between atoms: C_19  and  O_20
REMARK   10  A    between atoms: O_20  and  C_21
REMARK                            x       y       z     vdW  Elec       q    Type
REMARK                         _______ _______ _______ _____ _____    ______ ____
ROOT
ATOM      1  C   UNL     1       5.450   5.343  15.892  0.00  0.00    +0.000 C 
ATOM      2  O   UNL     1       6.215   6.288  15.680  0.00  0.00    +0.000 OA
ATOM      3  N   UNL     1       4.648   5.306  17.011  0.00  0.00    +0.000 N 
ATOM      4  C   UNL     1       3.686   4.284  17.377  0.00  0.00    +0.000 C 
ATOM      5  C   UNL     1       2.528   5.081  17.981  0.00  0.00    +0.000 C 
ATOM      6  C   UNL     1       3.264   6.217  18.741  0.00  0.00    +0.000 C 
ATOM      7  C   UNL     1       4.565   6.430  17.933  0.00  0.00    +0.000 C 
ENDROOT
BRANCH   6   8
ATOM      8  C   UNL     1       2.418   7.469  18.887  0.00  0.00    +0.000 A 
ATOM      9  C   UNL     1       1.855   7.806  20.127  0.00  0.00    +0.000 A 
ATOM     10  C   UNL     1       1.030   8.930  20.250  0.00  0.00    +0.000 A 
ATOM     11  C   UNL     1       0.785   9.754  19.152  0.00  0.00    +0.000 A 
ATOM     12  C   UNL     1       1.335   9.425  17.916  0.00  0.00    +0.000 A 
ATOM     13  C   UNL     1       2.145   8.294  17.786  0.00  0.00    +0.000 A 
BRANCH  11  14
ATOM     14  O   UNL     1      -0.034  10.827  19.379  0.00  0.00    +0.000 OA
ATOM     15  C   UNL     1      -1.100  10.972  18.445  0.00  0.00    +0.000 C 
ENDBRANCH  11  14
ENDBRANCH   6   8
BRANCH   5  16
ATOM     16  N   UNL     1       1.656   4.272  18.818  0.00  0.00    +0.000 N 
ATOM     17  C   UNL     1       2.153   3.680  19.966  0.00  0.00    +0.000 C 
ATOM     18  C   UNL     1       1.180   2.799  20.692  0.00  0.00    +0.000 C 
ATOM     19  O   UNL     1       3.286   3.882  20.390  0.00  0.00    +0.000 OA
ATOM     20  H   UNL     1       0.825   3.871  18.400  0.00  0.00    +0.000 HD
ENDBRANCH   5  16
BRANCH   1  21
ATOM     21  C   UNL     1       5.349   4.195  14.895  0.00  0.00    +0.000 C 
BRANCH  21  22
ATOM     22  S   UNL     1       6.721   4.237  13.691  0.00  0.00    +0.000 S 
BRANCH  22  23
ATOM     23  C   UNL     1       6.007   3.245  12.334  0.00  0.00    +0.000 C 
BRANCH  23  25
ATOM     24  C   UNL     1       3.924   2.973  10.927  0.00  0.00    +0.000 C 
ATOM     25  C   UNL     1       4.619   3.794  12.003  0.00  0.00    +0.000 C 
ENDBRANCH  23  25
ENDBRANCH  22  23
ENDBRANCH  21  22
ENDBRANCH   1  21
TORSDOF 7
ENDMDL
MODEL 5
REMARK VINA RESULT:      -6.9      1.218      1.634
REMARK  Name = 
REMARK  10 active torsions:
REMARK  status: ('A' for Active; 'I' for Inactive)
REMARK    1  A    between atoms: C_1  and  C_2
REMARK    2  A    between atoms: C_2  and  C_3
REMARK    3  A    between atoms: C_3  and  S_4
REMARK    4  A    between atoms: S_4  and  C_5
REMARK    5  A    between atoms: C_5  and  C_6
REMARK    6  A    between atoms: C_10  and  N_11
REMARK    7  A    between atoms: C_12  and  C_13
REMARK    8  A    between atoms: C_15  and  C_16
REMARK    9  A    between atoms: C_19  and  O_20
REMARK   10  A    between atoms: O_20  and  C_21
REMARK                            x       y       z     vdW  Elec       q    Type
REMARK                         _______ _______ _______ _____ _____    ______ ____
ROOT
ATOM      1  C   UNL     1       6.803   5.122  17.485  0.00  0.00    +0.000 C 
ATOM      2  O   UNL     1       7.589   5.973  17.909  0.00  0.00    +0.000 OA
ATOM      3  N   UNL     1       5.540   4.983  18.017  0.00  0.00    +0.000 N 
ATOM      4  C   UNL     1       4.504   4.055  17.606  0.00  0.00    +0.000 C 
ATOM      5  C   UNL     1       3.217   4.874  17.731  0.00  0.00    +0.000 C 
ATOM      6  C   UNL     1       3.487   5.727  19.001  0.00  0.00    +0.000 C 
ATOM      7  C   UNL     1       5.022   5.907  19.016  0.00  0.00    +0.000 C 
ENDROOT
BRANCH   6   8
ATOM      8  C   UNL     1       2.713   7.033  19.004  0.00  0.00    +0.000 A 
ATOM      9  C   UNL     1       2.011   7.440  20.147  0.00  0.00    +0.000 A 
ATOM     10  C   UNL     1       1.253   8.617  20.133  0.00  0.00    +0.000 A 
ATOM     11  C   UNL     1       1.214   9.423  18.996  0.00  0.00    +0.000 A 
ATOM     12  C   UNL     1       1.904   9.025  17.854  0.00  0.00    +0.000 A 
ATOM     13  C   UNL     1       2.648   7.842  17.860  0.00  0.00    +0.000 A 
BRANCH  11  14
ATOM     14  O   UNL     1       0.445  10.551  19.087  0.00  0.00    +0.000 OA
ATOM     15  C   UNL     1      -0.500  10.546  20.153  0.00  0.00    +0.000 C 
ENDBRANCH  11  14
ENDBRANCH   6   8
BRANCH   5  16
ATOM     16  N   UNL     1       2.022   4.050  17.809  0.00  0.00    +0.000 N 
ATOM     17  C   UNL     1       1.903   3.097  18.805  0.00  0.00    +0.000 C 
ATOM     18  C   UNL     1       0.667   2.252  18.723  0.00  0.00    +0.000 C 
ATOM     19  O   UNL     1       2.717   2.969  19.714  0.00  0.00    +0.000 OA
ATOM     20  H   UNL     1       1.464   3.933  16.972  0.00  0.00    +0.000 HD
ENDBRANCH   5  16
BRANCH   1  21
ATOM     21  C   UNL     1       7.200   4.214  16.327  0.00  0.00    +0.000 C 
BRANCH  21  22
ATOM     22  S   UNL     1       6.893   5.018  14.716  0.00  0.00    +0.000 S 
BRANCH  22  23
ATOM     23  C   UNL     1       5.674   3.867  13.994  0.00  0.00    +0.000 C 
BRANCH  23  25
ATOM     24  C   UNL     1       4.871   3.143  11.708  0.00  0.00    +0.000 C 
ATOM     25  C   UNL     1       6.064   3.587  12.541  0.00  0.00    +0.000 C 
ENDBRANCH  23  25
ENDBRANCH  22  23
ENDBRANCH  21  22
ENDBRANCH   1  21
TORSDOF 7
ENDMDL
MODEL 6
REMARK VINA RESULT:      -6.9      1.266      1.352
REMARK  Name = 
REMARK  10 active torsions:
REMARK  status: ('A' for Active; 'I' for Inactive)
REMARK    1  A    between atoms: C_1  and  C_2
REMARK    2  A    between atoms: C_2  and  C_3
REMARK    3  A    between atoms: C_3  and  S_4
REMARK    4  A    between atoms: S_4  and  C_5
REMARK    5  A    between atoms: C_5  and  C_6
REMARK    6  A    between atoms: C_10  and  N_11
REMARK    7  A    between atoms: C_12  and  C_13
REMARK    8  A    between atoms: C_15  and  C_16
REMARK    9  A    between atoms: C_19  and  O_20
REMARK   10  A    between atoms: O_20  and  C_21
REMARK                            x       y       z     vdW  Elec       q    Type
REMARK                         _______ _______ _______ _____ _____    ______ ____
ROOT
ATOM      1  C   UNL     1       6.800   5.156  17.509  0.00  0.00    +0.000 C 
ATOM      2  O   UNL     1       7.570   6.019  17.939  0.00  0.00    +0.000 OA
ATOM      3  N   UNL     1       5.535   4.999  18.032  0.00  0.00    +0.000 N 
ATOM      4  C   UNL     1       4.517   4.055  17.614  0.00  0.00    +0.000 C 
ATOM      5  C   UNL     1       3.217   4.855  17.726  0.00  0.00    +0.000 C 
ATOM      6  C   UNL     1       3.463   5.714  18.997  0.00  0.00    +0.000 C 
ATOM      7  C   UNL     1       4.996   5.917  19.025  0.00  0.00    +0.000 C 
ENDROOT
BRANCH   6   8
ATOM      8  C   UNL     1       2.670   7.008  18.991  0.00  0.00    +0.000 A 
ATOM      9  C   UNL     1       2.628   7.812  17.843  0.00  0.00    +0.000 A 
ATOM     10  C   UNL     1       1.942   9.032  17.854  0.00  0.00    +0.000 A 
ATOM     11  C   UNL     1       1.256   9.450  18.994  0.00  0.00    +0.000 A 
ATOM     12  C   UNL     1       1.295   8.661  20.142  0.00  0.00    +0.000 A 
ATOM     13  C   UNL     1       1.993   7.451  20.138  0.00  0.00    +0.000 A 
BRANCH  11  14
ATOM     14  O   UNL     1       0.617  10.656  18.901  0.00  0.00    +0.000 OA
ATOM     15  C   UNL     1       0.081  11.145  20.128  0.00  0.00    +0.000 C 
ENDBRANCH  11  14
ENDBRANCH   6   8
BRANCH   5  16
ATOM     16  N   UNL     1       2.034   4.013  17.796  0.00  0.00    +0.000 N 
ATOM     17  C   UNL     1       1.870   3.137  18.854  0.00  0.00    +0.000 C 
ATOM     18  C   UNL     1       0.656   2.261  18.764  0.00  0.00    +0.000 C 
ATOM     19  O   UNL     1       2.629   3.096  19.817  0.00  0.00    +0.000 OA
ATOM     20  H   UNL     1       1.530   3.820  16.939  0.00  0.00    +0.000 HD
ENDBRANCH   5  16
BRANCH   1  21
ATOM     21  C   UNL     1       7.221   4.253  16.357  0.00  0.00    +0.000 C 
BRANCH  21  22
ATOM     22  S   UNL     1       6.880   5.033  14.742  0.00  0.00    +0.000 S 
BRANCH  22  23
ATOM     23  C   UNL     1       5.631   3.882  14.070  0.00  0.00    +0.000 C 
BRANCH  23  25
ATOM     24  C   UNL     1       4.771   3.298  11.765  0.00  0.00    +0.000 C 
ATOM     25  C   UNL     1       6.001   3.545  12.625  0.00  0.00    +0.000 C 
ENDBRANCH  23  25
ENDBRANCH  22  23
ENDBRANCH  21  22
ENDBRANCH   1  21
TORSDOF 7
ENDMDL
MODEL 7
REMARK VINA RESULT:      -6.9      1.493      1.612
REMARK  Name = 
REMARK  10 active torsions:
REMARK  status: ('A' for Active; 'I' for Inactive)
REMARK    1  A    between atoms: C_1  and  C_2
REMARK    2  A    between atoms: C_2  and  C_3
REMARK    3  A    between atoms: C_3  and  S_4
REMARK    4  A    between atoms: S_4  and  C_5
REMARK    5  A    between atoms: C_5  and  C_6
REMARK    6  A    between atoms: C_10  and  N_11
REMARK    7  A    between atoms: C_12  and  C_13
REMARK    8  A    between atoms: C_15  and  C_16
REMARK    9  A    between atoms: C_19  and  O_20
REMARK   10  A    between atoms: O_20  and  C_21
REMARK                            x       y       z     vdW  Elec       q    Type
REMARK                         _______ _______ _______ _____ _____    ______ ____
ROOT
ATOM      1  C   UNL     1       5.462   5.256  15.853  0.00  0.00    +0.000 C 
ATOM      2  O   UNL     1       6.235   6.193  15.637  0.00  0.00    +0.000 OA
ATOM      3  N   UNL     1       4.665   5.227  16.976  0.00  0.00    +0.000 N 
ATOM      4  C   UNL     1       3.695   4.215  17.347  0.00  0.00    +0.000 C 
ATOM      5  C   UNL     1       2.547   5.023  17.957  0.00  0.00    +0.000 C 
ATOM      6  C   UNL     1       3.299   6.152  18.713  0.00  0.00    +0.000 C 
ATOM      7  C   UNL     1       4.598   6.352  17.899  0.00  0.00    +0.000 C 
ENDROOT
BRANCH   6   8
ATOM      8  C   UNL     1       2.465   7.411  18.863  0.00  0.00    +0.000 A 
ATOM      9  C   UNL     1       2.317   8.298  17.787  0.00  0.00    +0.000 A 
ATOM     10  C   UNL     1       1.593   9.487  17.941  0.00  0.00    +0.000 A 
ATOM     11  C   UNL     1       0.977   9.790  19.154  0.00  0.00    +0.000 A 
ATOM     12  C   UNL     1       1.122   8.918  20.231  0.00  0.00    +0.000 A 
ATOM     13  C   UNL     1       1.858   7.740  20.085  0.00  0.00    +0.000 A 
BRANCH  11  14
ATOM     14  O   UNL     1       0.293  10.975  19.200  0.00  0.00    +0.000 OA
ATOM     15  C   UNL     1       0.849  11.952  20.076  0.00  0.00    +0.000 C 
ENDBRANCH  11  14
ENDBRANCH   6   8
BRANCH   5  16
ATOM     16  N   UNL     1       1.672   4.222  18.798  0.00  0.00    +0.000 N 
ATOM     17  C   UNL     1       2.105   3.800  20.043  0.00  0.00    +0.000 C 
ATOM     18  C   UNL     1       1.146   2.907  20.773  0.00  0.00    +0.000 C 
ATOM     19  O   UNL     1       3.171   4.151  20.539  0.00  0.00    +0.000 OA
ATOM     20  H   UNL     1       0.923   3.704  18.356  0.00  0.00    +0.000 HD
ENDBRANCH   5  16
BRANCH   1  21
ATOM     21  C   UNL     1       5.344   4.109  14.857  0.00  0.00    +0.000 C 
BRANCH  21  22
ATOM     22  S   UNL     1       6.663   4.186  13.596  0.00  0.00    +0.000 S 
BRANCH  22  23
ATOM     23  C   UNL     1       5.934   3.146  12.284  0.00  0.00    +0.000 C 
BRANCH  23  25
ATOM     24  C   UNL     1       3.735   2.933  11.053  0.00  0.00    +0.000 C 
ATOM     25  C   UNL     1       4.743   3.888  11.674  0.00  0.00    +0.000 C 
ENDBRANCH  23  25
ENDBRANCH  22  23
ENDBRANCH  21  22
ENDBRANCH   1  21
TORSDOF 7
ENDMDL
MODEL 8
REMARK VINA RESULT:      -6.7      3.210      5.483
REMARK  Name = 
REMARK  10 active torsions:
REMARK  status: ('A' for Active; 'I' for Inactive)
REMARK    1  A    between atoms: C_1  and  C_2
REMARK    2  A    between atoms: C_2  and  C_3
REMARK    3  A    between atoms: C_3  and  S_4
REMARK    4  A    between atoms: S_4  and  C_5
REMARK    5  A    between atoms: C_5  and  C_6
REMARK    6  A    between atoms: C_10  and  N_11
REMARK    7  A    between atoms: C_12  and  C_13
REMARK    8  A    between atoms: C_15  and  C_16
REMARK    9  A    between atoms: C_19  and  O_20
REMARK   10  A    between atoms: O_20  and  C_21
REMARK                            x       y       z     vdW  Elec       q    Type
REMARK                         _______ _______ _______ _____ _____    ______ ____
ROOT
ATOM      1  C   UNL     1       2.662   2.440  18.158  0.00  0.00    +0.000 C 
ATOM      2  O   UNL     1       1.449   2.233  18.083  0.00  0.00    +0.000 OA
ATOM      3  N   UNL     1       3.207   3.655  17.806  0.00  0.00    +0.000 N 
ATOM      4  C   UNL     1       4.601   4.051  17.868  0.00  0.00    +0.000 C 
ATOM      5  C   UNL     1       4.540   5.509  18.328  0.00  0.00    +0.000 C 
ATOM      6  C   UNL     1       3.280   6.039  17.591  0.00  0.00    +0.000 C 
ATOM      7  C   UNL     1       2.374   4.794  17.448  0.00  0.00    +0.000 C 
ENDROOT
BRANCH   6   8
ATOM      8  C   UNL     1       2.623   7.200  18.315  0.00  0.00    +0.000 A 
ATOM      9  C   UNL     1       2.333   7.112  19.684  0.00  0.00    +0.000 A 
ATOM     10  C   UNL     1       1.678   8.160  20.341  0.00  0.00    +0.000 A 
ATOM     11  C   UNL     1       1.337   9.325  19.654  0.00  0.00    +0.000 A 
ATOM     12  C   UNL     1       1.617   9.421  18.293  0.00  0.00    +0.000 A 
ATOM     13  C   UNL     1       2.255   8.369  17.631  0.00  0.00    +0.000 A 
BRANCH  11  14
ATOM     14  O   UNL     1       0.701  10.289  20.387  0.00  0.00    +0.000 OA
ATOM     15  C   UNL     1       0.324   9.888  21.702  0.00  0.00    +0.000 C 
ENDBRANCH  11  14
ENDBRANCH   6   8
BRANCH   5  16
ATOM     16  N   UNL     1       5.757   6.250  18.036  0.00  0.00    +0.000 N 
ATOM     17  C   UNL     1       6.862   6.115  18.858  0.00  0.00    +0.000 C 
ATOM     18  C   UNL     1       8.021   6.999  18.503  0.00  0.00    +0.000 C 
ATOM     19  O   UNL     1       6.918   5.313  19.785  0.00  0.00    +0.000 OA
ATOM     20  H   UNL     1       5.686   7.086  17.470  0.00  0.00    +0.000 HD
ENDBRANCH   5  16
BRANCH   1  21
ATOM     21  C   UNL     1       3.598   1.355  18.679  0.00  0.00    +0.000 C 
BRANCH  21  22
ATOM     22  S   UNL     1       4.359   1.840  20.266  0.00  0.00    +0.000 S 
BRANCH  22  23
ATOM     23  C   UNL     1       2.869   2.206  21.256  0.00  0.00    +0.000 C 
BRANCH  23  25
ATOM     24  C   UNL     1       1.210   4.088  20.938  0.00  0.00    +0.000 C 
ATOM     25  C   UNL     1       2.648   3.720  21.268  0.00  0.00    +0.000 C 
ENDBRANCH  23  25
ENDBRANCH  22  23
ENDBRANCH  21  22
ENDBRANCH   1  21
TORSDOF 7
ENDMDL
MODEL 9
REMARK VINA RESULT:      -6.6      1.310      1.508
REMARK  Name = 
REMARK  10 active torsions:
REMARK  status: ('A' for Active; 'I' for Inactive)
REMARK    1  A    between atoms: C_1  and  C_2
REMARK    2  A    between atoms: C_2  and  C_3
REMARK    3  A    between atoms: C_3  and  S_4
REMARK    4  A    between atoms: S_4  and  C_5
REMARK    5  A    between atoms: C_5  and  C_6
REMARK    6  A    between atoms: C_10  and  N_11
REMARK    7  A    between atoms: C_12  and  C_13
REMARK    8  A    between atoms: C_15  and  C_16
REMARK    9  A    between atoms: C_19  and  O_20
REMARK   10  A    between atoms: O_20  and  C_21
REMARK                            x       y       z     vdW  Elec       q    Type
REMARK                         _______ _______ _______ _____ _____    ______ ____
ROOT
ATOM      1  C   UNL     1       6.327   4.634  14.890  0.00  0.00    +0.000 C 
ATOM      2  O   UNL     1       6.906   5.672  14.559  0.00  0.00    +0.000 OA
ATOM      3  N   UNL     1       5.744   4.502  16.131  0.00  0.00    +0.000 N 
ATOM      4  C   UNL     1       5.011   3.363  16.647  0.00  0.00    +0.000 C 
ATOM      5  C   UNL     1       3.877   4.000  17.453  0.00  0.00    +0.000 C 
ATOM      6  C   UNL     1       4.571   5.237  18.086  0.00  0.00    +0.000 C 
ATOM      7  C   UNL     1       5.670   5.616  17.066  0.00  0.00    +0.000 C 
ENDROOT
BRANCH   6   8
ATOM      8  C   UNL     1       3.599   6.362  18.391  0.00  0.00    +0.000 A 
ATOM      9  C   UNL     1       3.424   7.416  17.484  0.00  0.00    +0.000 A 
ATOM     10  C   UNL     1       2.568   8.481  17.789  0.00  0.00    +0.000 A 
ATOM     11  C   UNL     1       1.848   8.493  18.983  0.00  0.00    +0.000 A 
ATOM     12  C   UNL     1       2.019   7.453  19.893  0.00  0.00    +0.000 A 
ATOM     13  C   UNL     1       2.885   6.397  19.598  0.00  0.00    +0.000 A 
BRANCH  11  14
ATOM     14  O   UNL     1       1.040   9.579  19.184  0.00  0.00    +0.000 OA
ATOM     15  C   UNL     1       1.303  10.687  18.328  0.00  0.00    +0.000 C 
ENDBRANCH  11  14
ENDBRANCH   6   8
BRANCH   5  16
ATOM     16  N   UNL     1       3.283   3.090  18.419  0.00  0.00    +0.000 N 
ATOM     17  C   UNL     1       1.907   3.028  18.556  0.00  0.00    +0.000 C 
ATOM     18  C   UNL     1       1.424   2.119  19.647  0.00  0.00    +0.000 C 
ATOM     19  O   UNL     1       1.130   3.633  17.824  0.00  0.00    +0.000 OA
ATOM     20  H   UNL     1       3.851   2.778  19.197  0.00  0.00    +0.000 HD
ENDBRANCH   5  16
BRANCH   1  21
ATOM     21  C   UNL     1       6.213   3.471  13.913  0.00  0.00    +0.000 C 
BRANCH  21  22
ATOM     22  S   UNL     1       6.126   4.058  12.186  0.00  0.00    +0.000 S 
BRANCH  22  23
ATOM     23  C   UNL     1       4.683   3.116  11.583  0.00  0.00    +0.000 C 
BRANCH  23  25
ATOM     24  C   UNL     1       3.094   3.536   9.661  0.00  0.00    +0.000 C 
ATOM     25  C   UNL     1       3.691   4.091  10.946  0.00  0.00    +0.000 C 
ENDBRANCH  23  25
ENDBRANCH  22  23
ENDBRANCH  21  22
ENDBRANCH   1  21
TORSDOF 7
ENDMDL
