MODEL 1
REMARK VINA RESULT:      -7.9      0.000      0.000
REMARK  Name = 
REMARK  4 active torsions:
REMARK  status: ('A' for Active; 'I' for Inactive)
REMARK    1  A    between atoms: N_7  and  C_8
REMARK    2  A    between atoms: C_8  and  C_9
REMARK    3  A    between atoms: C_17  and  C_18
REMARK    4  A    between atoms: C_25  and  C_26
REMARK                            x       y       z     vdW  Elec       q    Type
REMARK                         _______ _______ _______ _____ _____    ______ ____
ROOT
ATOM      1  S   UNL     1       2.833  13.656  20.072  0.00  0.00    +0.000 S 
ATOM      2  C   UNL     1       1.595  12.754  19.435  0.00  0.00    +0.000 C 
ATOM      3  N   UNL     1       0.343  12.772  19.971  0.00  0.00    +0.000 N 
ATOM      4  C   UNL     1      -0.737  12.085  19.462  0.00  0.00    +0.000 C 
ATOM      5  C   UNL     1      -0.520  11.192  18.485  0.00  0.00    +0.000 C 
ATOM      6  C   UNL     1      -1.592  10.374  17.834  0.00  0.00    +0.000 C 
ATOM      7  N   UNL     1      -2.969  10.580  18.257  0.00  0.00    +0.000 NA
ATOM      8  C   UNL     1      -3.210  11.574  19.303  0.00  0.00    +0.000 C 
ATOM      9  C   UNL     1      -2.072  12.294  20.005  0.00  0.00    +0.000 C 
ATOM     10  C   UNL     1      -2.345  13.123  21.041  0.00  0.00    +0.000 C 
ATOM     11  C   UNL     1       0.885  10.885  18.017  0.00  0.00    +0.000 C 
ATOM     12  N   UNL     1       1.779  11.976  18.338  0.00  0.00    +0.000 N 
ATOM     13  H   UNL     1       0.229  13.389  20.763  0.00  0.00    +0.000 HD
ATOM     14  H   UNL     1       2.722  11.937  17.978  0.00  0.00    +0.000 HD
ENDROOT
BRANCH  10  15
ATOM     15  C   UNL     1      -3.695  13.357  21.575  0.00  0.00    +0.000 A 
ATOM     16  C   UNL     1      -4.064  12.809  22.812  0.00  0.00    +0.000 A 
ATOM     17  C   UNL     1      -5.356  13.007  23.310  0.00  0.00    +0.000 A 
ATOM     18  C   UNL     1      -6.275  13.752  22.575  0.00  0.00    +0.000 A 
ATOM     19 CL   UNL     1      -7.863  14.000  23.192  0.00  0.00    +0.000 Cl
ATOM     20  C   UNL     1      -5.920  14.296  21.342  0.00  0.00    +0.000 A 
ATOM     21  C   UNL     1      -4.627  14.100  20.845  0.00  0.00    +0.000 A 
ENDBRANCH  10  15
BRANCH  11  22
ATOM     22  C   UNL     1       1.403   9.581  18.610  0.00  0.00    +0.000 A 
ATOM     23  C   UNL     1       2.109   8.664  17.816  0.00  0.00    +0.000 A 
ATOM     24  C   UNL     1       2.514   7.437  18.345  0.00  0.00    +0.000 A 
ATOM     25  C   UNL     1       2.221   7.118  19.673  0.00  0.00    +0.000 A 
ATOM     26 CL   UNL     1       2.687   5.591  20.312  0.00  0.00    +0.000 Cl
ATOM     27  C   UNL     1       1.541   8.023  20.480  0.00  0.00    +0.000 A 
ATOM     28  C   UNL     1       1.142   9.244  19.953  0.00  0.00    +0.000 A 
ENDBRANCH  11  22
BRANCH   7  29
ATOM     29  C   UNL     1      -3.895  10.823  17.136  0.00  0.00    +0.000 C 
BRANCH  29  30
ATOM     30  C   UNL     1      -5.222  11.451  17.497  0.00  0.00    +0.000 A 
ATOM     31  C   UNL     1      -6.015  10.922  18.525  0.00  0.00    +0.000 A 
ATOM     32  C   UNL     1      -7.209  11.549  18.890  0.00  0.00    +0.000 A 
ATOM     33  C   UNL     1      -7.615  12.714  18.241  0.00  0.00    +0.000 A 
ATOM     34  C   UNL     1      -6.831  13.253  17.223  0.00  0.00    +0.000 A 
ATOM     35  C   UNL     1      -5.643  12.624  16.852  0.00  0.00    +0.000 A 
ENDBRANCH  29  30
ENDBRANCH   7  29
TORSDOF 4
ENDMDL
MODEL 2
REMARK VINA RESULT:      -7.7      0.135      1.196
REMARK  Name = 
REMARK  4 active torsions:
REMARK  status: ('A' for Active; 'I' for Inactive)
REMARK    1  A    between atoms: N_7  and  C_8
REMARK    2  A    between atoms: C_8  and  C_9
REMARK    3  A    between atoms: C_17  and  C_18
REMARK    4  A    between atoms: C_25  and  C_26
REMARK                            x       y       z     vdW  Elec       q    Type
REMARK                         _______ _______ _______ _____ _____    ______ ____
ROOT
ATOM      1  S   UNL     1       2.836  13.658  20.006  0.00  0.00    +0.000 S 
ATOM      2  C   UNL     1       1.583  12.753  19.406  0.00  0.00    +0.000 C 
ATOM      3  N   UNL     1       0.345  12.770  19.976  0.00  0.00    +0.000 N 
ATOM      4  C   UNL     1      -0.747  12.080  19.499  0.00  0.00    +0.000 C 
ATOM      5  C   UNL     1      -0.555  11.184  18.519  0.00  0.00    +0.000 C 
ATOM      6  C   UNL     1      -1.643  10.363  17.900  0.00  0.00    +0.000 C 
ATOM      7  N   UNL     1      -3.009  10.569  18.359  0.00  0.00    +0.000 NA
ATOM      8  C   UNL     1      -3.222  11.565  19.409  0.00  0.00    +0.000 C 
ATOM      9  C   UNL     1      -2.067  12.289  20.077  0.00  0.00    +0.000 C 
ATOM     10  C   UNL     1      -2.313  13.121  21.118  0.00  0.00    +0.000 C 
ATOM     11  C   UNL     1       0.837  10.878  18.014  0.00  0.00    +0.000 C 
ATOM     12  N   UNL     1       1.738  11.971  18.307  0.00  0.00    +0.000 N 
ATOM     13  H   UNL     1       0.252  13.390  20.769  0.00  0.00    +0.000 HD
ATOM     14  H   UNL     1       2.671  11.933  17.922  0.00  0.00    +0.000 HD
ENDROOT
BRANCH  10  15
ATOM     15  C   UNL     1      -3.648  13.355  21.688  0.00  0.00    +0.000 A 
ATOM     16  C   UNL     1      -4.562  14.180  21.018  0.00  0.00    +0.000 A 
ATOM     17  C   UNL     1      -5.823  14.426  21.571  0.00  0.00    +0.000 A 
ATOM     18  C   UNL     1      -6.169  13.848  22.790  0.00  0.00    +0.000 A 
ATOM     19 CL   UNL     1      -7.724  14.146  23.466  0.00  0.00    +0.000 Cl
ATOM     20  C   UNL     1      -5.266  13.030  23.466  0.00  0.00    +0.000 A 
ATOM     21  C   UNL     1      -4.006  12.782  22.912  0.00  0.00    +0.000 A 
ENDBRANCH  10  15
BRANCH  11  22
ATOM     22  C   UNL     1       1.373   9.577  18.596  0.00  0.00    +0.000 A 
ATOM     23  C   UNL     1       2.103   8.682  17.799  0.00  0.00    +0.000 A 
ATOM     24  C   UNL     1       2.525   7.457  18.318  0.00  0.00    +0.000 A 
ATOM     25  C   UNL     1       2.225   7.117  19.639  0.00  0.00    +0.000 A 
ATOM     26 CL   UNL     1       2.713   5.591  20.264  0.00  0.00    +0.000 Cl
ATOM     27  C   UNL     1       1.522   7.999  20.449  0.00  0.00    +0.000 A 
ATOM     28  C   UNL     1       1.106   9.220  19.934  0.00  0.00    +0.000 A 
ENDBRANCH  11  22
BRANCH   7  29
ATOM     29  C   UNL     1      -3.965  10.806  17.264  0.00  0.00    +0.000 C 
BRANCH  29  30
ATOM     30  C   UNL     1      -5.239  11.529  17.641  0.00  0.00    +0.000 A 
ATOM     31  C   UNL     1      -5.706  12.612  16.883  0.00  0.00    +0.000 A 
ATOM     32  C   UNL     1      -6.916  13.230  17.206  0.00  0.00    +0.000 A 
ATOM     33  C   UNL     1      -7.675  12.766  18.279  0.00  0.00    +0.000 A 
ATOM     34  C   UNL     1      -7.226  11.685  19.034  0.00  0.00    +0.000 A 
ATOM     35  C   UNL     1      -6.013  11.071  18.718  0.00  0.00    +0.000 A 
ENDBRANCH  29  30
ENDBRANCH   7  29
TORSDOF 4
ENDMDL
MODEL 3
REMARK VINA RESULT:      -6.9      3.426      9.000
REMARK  Name = 
REMARK  4 active torsions:
REMARK  status: ('A' for Active; 'I' for Inactive)
REMARK    1  A    between atoms: N_7  and  C_8
REMARK    2  A    between atoms: C_8  and  C_9
REMARK    3  A    between atoms: C_17  and  C_18
REMARK    4  A    between atoms: C_25  and  C_26
REMARK                            x       y       z     vdW  Elec       q    Type
REMARK                         _______ _______ _______ _____ _____    ______ ____
ROOT
ATOM      1  S   UNL     1      -5.052  12.730  20.500  0.00  0.00    +0.000 S 
ATOM      2  C   UNL     1      -3.485  13.261  20.371  0.00  0.00    +0.000 C 
ATOM      3  N   UNL     1      -2.441  12.395  20.235  0.00  0.00    +0.000 N 
ATOM      4  C   UNL     1      -1.126  12.773  20.076  0.00  0.00    +0.000 C 
ATOM      5  C   UNL     1      -0.811  14.066  20.245  0.00  0.00    +0.000 C 
ATOM      6  C   UNL     1       0.571  14.624  20.104  0.00  0.00    +0.000 C 
ATOM      7  N   UNL     1       1.644  13.719  19.719  0.00  0.00    +0.000 NA
ATOM      8  C   UNL     1       1.296  12.314  19.507  0.00  0.00    +0.000 C 
ATOM      9  C   UNL     1      -0.102  11.784  19.773  0.00  0.00    +0.000 C 
ATOM     10  C   UNL     1      -0.343  10.455  19.666  0.00  0.00    +0.000 C 
ATOM     11  C   UNL     1      -1.856  15.065  20.687  0.00  0.00    +0.000 C 
ATOM     12  N   UNL     1      -3.185  14.585  20.375  0.00  0.00    +0.000 N 
ATOM     13  H   UNL     1      -2.702  11.420  20.198  0.00  0.00    +0.000 HD
ATOM     14  H   UNL     1      -3.962  15.213  20.521  0.00  0.00    +0.000 HD
ENDROOT
BRANCH  10  15
ATOM     15  C   UNL     1       0.683   9.455  19.335  0.00  0.00    +0.000 A 
ATOM     16  C   UNL     1       1.196   9.381  18.032  0.00  0.00    +0.000 A 
ATOM     17  C   UNL     1       2.152   8.413  17.709  0.00  0.00    +0.000 A 
ATOM     18  C   UNL     1       2.596   7.524  18.684  0.00  0.00    +0.000 A 
ATOM     19 CL   UNL     1       3.779   6.338  18.286  0.00  0.00    +0.000 Cl
ATOM     20  C   UNL     1       2.089   7.586  19.980  0.00  0.00    +0.000 A 
ATOM     21  C   UNL     1       1.134   8.555  20.306  0.00  0.00    +0.000 A 
ENDBRANCH  10  15
BRANCH  11  22
ATOM     22  C   UNL     1      -1.741  15.381  22.172  0.00  0.00    +0.000 A 
ATOM     23  C   UNL     1      -1.752  16.709  22.625  0.00  0.00    +0.000 A 
ATOM     24  C   UNL     1      -1.568  16.995  23.979  0.00  0.00    +0.000 A 
ATOM     25  C   UNL     1      -1.376  15.957  24.893  0.00  0.00    +0.000 A 
ATOM     26 CL   UNL     1      -1.112  16.313  26.554  0.00  0.00    +0.000 Cl
ATOM     27  C   UNL     1      -1.383  14.634  24.466  0.00  0.00    +0.000 A 
ATOM     28  C   UNL     1      -1.570  14.351  23.119  0.00  0.00    +0.000 A 
ENDBRANCH  11  22
BRANCH   7  29
ATOM     29  C   UNL     1       2.434  14.201  18.572  0.00  0.00    +0.000 C 
BRANCH  29  30
ATOM     30  C   UNL     1       3.878  14.547  18.860  0.00  0.00    +0.000 A 
ATOM     31  C   UNL     1       4.802  14.713  17.819  0.00  0.00    +0.000 A 
ATOM     32  C   UNL     1       6.116  15.094  18.096  0.00  0.00    +0.000 A 
ATOM     33  C   UNL     1       6.517  15.325  19.411  0.00  0.00    +0.000 A 
ATOM     34  C   UNL     1       5.605  15.172  20.453  0.00  0.00    +0.000 A 
ATOM     35  C   UNL     1       4.294  14.783  20.180  0.00  0.00    +0.000 A 
ENDBRANCH  29  30
ENDBRANCH   7  29
TORSDOF 4
ENDMDL
MODEL 4
REMARK VINA RESULT:      -6.8      3.467      8.933
REMARK  Name = 
REMARK  4 active torsions:
REMARK  status: ('A' for Active; 'I' for Inactive)
REMARK    1  A    between atoms: N_7  and  C_8
REMARK    2  A    between atoms: C_8  and  C_9
REMARK    3  A    between atoms: C_17  and  C_18
REMARK    4  A    between atoms: C_25  and  C_26
REMARK                            x       y       z     vdW  Elec       q    Type
REMARK                         _______ _______ _______ _____ _____    ______ ____
ROOT
ATOM      1  S   UNL     1      -5.002  12.865  20.576  0.00  0.00    +0.000 S 
ATOM      2  C   UNL     1      -3.427  13.363  20.427  0.00  0.00    +0.000 C 
ATOM      3  N   UNL     1      -2.404  12.476  20.272  0.00  0.00    +0.000 N 
ATOM      4  C   UNL     1      -1.083  12.826  20.096  0.00  0.00    +0.000 C 
ATOM      5  C   UNL     1      -0.737  14.111  20.268  0.00  0.00    +0.000 C 
ATOM      6  C   UNL     1       0.654  14.640  20.110  0.00  0.00    +0.000 C 
ATOM      7  N   UNL     1       1.702  13.714  19.705  0.00  0.00    +0.000 NA
ATOM      8  C   UNL     1       1.320  12.318  19.490  0.00  0.00    +0.000 C 
ATOM      9  C   UNL     1      -0.085  11.816  19.773  0.00  0.00    +0.000 C 
ATOM     10  C   UNL     1      -0.357  10.494  19.662  0.00  0.00    +0.000 C 
ATOM     11  C   UNL     1      -1.755  15.130  20.729  0.00  0.00    +0.000 C 
ATOM     12  N   UNL     1      -3.098  14.680  20.434  0.00  0.00    +0.000 N 
ATOM     13  H   UNL     1      -2.686  11.506  20.233  0.00  0.00    +0.000 HD
ATOM     14  H   UNL     1      -3.859  15.324  20.595  0.00  0.00    +0.000 HD
ENDROOT
BRANCH  10  15
ATOM     15  C   UNL     1       0.643   9.474  19.312  0.00  0.00    +0.000 A 
ATOM     16  C   UNL     1       1.118   8.592  20.293  0.00  0.00    +0.000 A 
ATOM     17  C   UNL     1       2.089   7.639  19.969  0.00  0.00    +0.000 A 
ATOM     18  C   UNL     1       2.583   7.567  18.668  0.00  0.00    +0.000 A 
ATOM     19 CL   UNL     1       3.773   6.389  18.270  0.00  0.00    +0.000 Cl
ATOM     20  C   UNL     1       2.121   8.442  17.688  0.00  0.00    +0.000 A 
ATOM     21  C   UNL     1       1.148   9.394  18.010  0.00  0.00    +0.000 A 
ENDBRANCH  10  15
BRANCH  11  22
ATOM     22  C   UNL     1      -1.611  15.435  22.215  0.00  0.00    +0.000 A 
ATOM     23  C   UNL     1      -1.289  16.728  22.653  0.00  0.00    +0.000 A 
ATOM     24  C   UNL     1      -1.083  16.983  24.010  0.00  0.00    +0.000 A 
ATOM     25  C   UNL     1      -1.202  15.950  24.941  0.00  0.00    +0.000 A 
ATOM     26 CL   UNL     1      -0.911  16.258  26.608  0.00  0.00    +0.000 Cl
ATOM     27  C   UNL     1      -1.542  14.667  24.528  0.00  0.00    +0.000 A 
ATOM     28  C   UNL     1      -1.751  14.415  23.179  0.00  0.00    +0.000 A 
ENDBRANCH  11  22
BRANCH   7  29
ATOM     29  C   UNL     1       2.486  14.185  18.550  0.00  0.00    +0.000 C 
BRANCH  29  30
ATOM     30  C   UNL     1       3.908  14.609  18.842  0.00  0.00    +0.000 A 
ATOM     31  C   UNL     1       4.340  14.827  20.157  0.00  0.00    +0.000 A 
ATOM     32  C   UNL     1       5.672  15.157  20.417  0.00  0.00    +0.000 A 
ATOM     33  C   UNL     1       6.585  15.261  19.369  0.00  0.00    +0.000 A 
ATOM     34  C   UNL     1       6.169  15.038  18.059  0.00  0.00    +0.000 A 
ATOM     35  C   UNL     1       4.838  14.716  17.796  0.00  0.00    +0.000 A 
ENDBRANCH  29  30
ENDBRANCH   7  29
TORSDOF 4
ENDMDL
MODEL 5
REMARK VINA RESULT:      -6.7      3.183      8.226
REMARK  Name = 
REMARK  4 active torsions:
REMARK  status: ('A' for Active; 'I' for Inactive)
REMARK    1  A    between atoms: N_7  and  C_8
REMARK    2  A    between atoms: C_8  and  C_9
REMARK    3  A    between atoms: C_17  and  C_18
REMARK    4  A    between atoms: C_25  and  C_26
REMARK                            x       y       z     vdW  Elec       q    Type
REMARK                         _______ _______ _______ _____ _____    ______ ____
ROOT
ATOM      1  S   UNL     1      -3.114  16.504  23.428  0.00  0.00    +0.000 S 
ATOM      2  C   UNL     1      -2.594  15.056  22.807  0.00  0.00    +0.000 C 
ATOM      3  N   UNL     1      -1.495  14.970  22.006  0.00  0.00    +0.000 N 
ATOM      4  C   UNL     1      -0.985  13.795  21.499  0.00  0.00    +0.000 C 
ATOM      5  C   UNL     1      -1.709  12.674  21.641  0.00  0.00    +0.000 C 
ATOM      6  C   UNL     1      -1.285  11.327  21.144  0.00  0.00    +0.000 C 
ATOM      7  N   UNL     1       0.013  11.207  20.497  0.00  0.00    +0.000 NA
ATOM      8  C   UNL     1       0.815  12.424  20.366  0.00  0.00    +0.000 C 
ATOM      9  C   UNL     1       0.287  13.783  20.789  0.00  0.00    +0.000 C 
ATOM     10  C   UNL     1       1.026  14.892  20.546  0.00  0.00    +0.000 C 
ATOM     11  C   UNL     1      -3.086  12.717  22.263  0.00  0.00    +0.000 C 
ATOM     12  N   UNL     1      -3.236  13.894  23.090  0.00  0.00    +0.000 N 
ATOM     13  H   UNL     1      -1.018  15.847  21.844  0.00  0.00    +0.000 HD
ATOM     14  H   UNL     1      -4.074  13.978  23.648  0.00  0.00    +0.000 HD
ENDROOT
BRANCH  10  15
ATOM     15  C   UNL     1       2.323  14.882  19.852  0.00  0.00    +0.000 A 
ATOM     16  C   UNL     1       3.513  14.831  20.592  0.00  0.00    +0.000 A 
ATOM     17  C   UNL     1       4.748  14.848  19.936  0.00  0.00    +0.000 A 
ATOM     18  C   UNL     1       4.793  14.914  18.546  0.00  0.00    +0.000 A 
ATOM     19 CL   UNL     1       6.315  14.929  17.739  0.00  0.00    +0.000 Cl
ATOM     20  C   UNL     1       3.616  14.971  17.802  0.00  0.00    +0.000 A 
ATOM     21  C   UNL     1       2.380  14.952  18.457  0.00  0.00    +0.000 A 
ENDBRANCH  10  15
BRANCH  11  22
ATOM     22  C   UNL     1      -4.182  12.669  21.206  0.00  0.00    +0.000 A 
ATOM     23  C   UNL     1      -5.534  12.752  21.572  0.00  0.00    +0.000 A 
ATOM     24  C   UNL     1      -6.536  12.629  20.607  0.00  0.00    +0.000 A 
ATOM     25  C   UNL     1      -6.195  12.427  19.268  0.00  0.00    +0.000 A 
ATOM     26 CL   UNL     1      -7.431  12.238  18.087  0.00  0.00    +0.000 Cl
ATOM     27  C   UNL     1      -4.861  12.363  18.884  0.00  0.00    +0.000 A 
ATOM     28  C   UNL     1      -3.865  12.489  19.844  0.00  0.00    +0.000 A 
ENDBRANCH  11  22
BRANCH   7  29
ATOM     29  C   UNL     1       0.851  10.133  21.059  0.00  0.00    +0.000 C 
BRANCH  29  30
ATOM     30  C   UNL     1       1.355   9.101  20.075  0.00  0.00    +0.000 A 
ATOM     31  C   UNL     1       1.480   9.404  18.712  0.00  0.00    +0.000 A 
ATOM     32  C   UNL     1       2.005   8.463  17.825  0.00  0.00    +0.000 A 
ATOM     33  C   UNL     1       2.420   7.216  18.291  0.00  0.00    +0.000 A 
ATOM     34  C   UNL     1       2.308   6.906  19.644  0.00  0.00    +0.000 A 
ATOM     35  C   UNL     1       1.777   7.843  20.531  0.00  0.00    +0.000 A 
ENDBRANCH  29  30
ENDBRANCH   7  29
TORSDOF 4
ENDMDL
MODEL 6
REMARK VINA RESULT:      -6.7      3.812      5.929
REMARK  Name = 
REMARK  4 active torsions:
REMARK  status: ('A' for Active; 'I' for Inactive)
REMARK    1  A    between atoms: N_7  and  C_8
REMARK    2  A    between atoms: C_8  and  C_9
REMARK    3  A    between atoms: C_17  and  C_18
REMARK    4  A    between atoms: C_25  and  C_26
REMARK                            x       y       z     vdW  Elec       q    Type
REMARK                         _______ _______ _______ _____ _____    ______ ____
ROOT
ATOM      1  S   UNL     1       0.150   9.428  22.823  0.00  0.00    +0.000 S 
ATOM      2  C   UNL     1       0.050  10.843  21.964  0.00  0.00    +0.000 C 
ATOM      3  N   UNL     1      -0.756  11.869  22.359  0.00  0.00    +0.000 N 
ATOM      4  C   UNL     1      -0.847  13.085  21.718  0.00  0.00    +0.000 C 
ATOM      5  C   UNL     1      -0.251  13.221  20.524  0.00  0.00    +0.000 C 
ATOM      6  C   UNL     1      -0.263  14.479  19.712  0.00  0.00    +0.000 C 
ATOM      7  N   UNL     1      -0.931  15.649  20.263  0.00  0.00    +0.000 NA
ATOM      8  C   UNL     1      -1.558  15.509  21.578  0.00  0.00    +0.000 C 
ATOM      9  C   UNL     1      -1.609  14.178  22.306  0.00  0.00    +0.000 C 
ATOM     10  C   UNL     1      -2.297  14.079  23.470  0.00  0.00    +0.000 C 
ATOM     11  C   UNL     1       0.427  12.044  19.860  0.00  0.00    +0.000 C 
ATOM     12  N   UNL     1       0.786  11.042  20.841  0.00  0.00    +0.000 N 
ATOM     13  H   UNL     1      -1.262  11.704  23.219  0.00  0.00    +0.000 HD
ATOM     14  H   UNL     1       1.344  10.258  20.535  0.00  0.00    +0.000 HD
ENDROOT
BRANCH  10  15
ATOM     15  C   UNL     1      -3.046  15.187  24.080  0.00  0.00    +0.000 A 
ATOM     16  C   UNL     1      -4.435  15.273  23.906  0.00  0.00    +0.000 A 
ATOM     17  C   UNL     1      -5.147  16.341  24.463  0.00  0.00    +0.000 A 
ATOM     18  C   UNL     1      -4.473  17.319  25.191  0.00  0.00    +0.000 A 
ATOM     19 CL   UNL     1      -5.352  18.629  25.880  0.00  0.00    +0.000 Cl
ATOM     20  C   UNL     1      -3.092  17.245  25.364  0.00  0.00    +0.000 A 
ATOM     21  C   UNL     1      -2.380  16.176  24.810  0.00  0.00    +0.000 A 
ENDBRANCH  10  15
BRANCH  11  22
ATOM     22  C   UNL     1      -0.445  11.433  18.771  0.00  0.00    +0.000 A 
ATOM     23  C   UNL     1      -1.542  12.136  18.253  0.00  0.00    +0.000 A 
ATOM     24  C   UNL     1      -2.383  11.541  17.311  0.00  0.00    +0.000 A 
ATOM     25  C   UNL     1      -2.131  10.238  16.876  0.00  0.00    +0.000 A 
ATOM     26 CL   UNL     1      -3.190   9.492  15.744  0.00  0.00    +0.000 Cl
ATOM     27  C   UNL     1      -1.037   9.533  17.362  0.00  0.00    +0.000 A 
ATOM     28  C   UNL     1      -0.199  10.128  18.296  0.00  0.00    +0.000 A 
ENDBRANCH  11  22
BRANCH   7  29
ATOM     29  C   UNL     1      -0.093  16.861  20.253  0.00  0.00    +0.000 C 
BRANCH  29  30
ATOM     30  C   UNL     1       0.634  17.153  18.959  0.00  0.00    +0.000 A 
ATOM     31  C   UNL     1       0.084  18.015  18.001  0.00  0.00    +0.000 A 
ATOM     32  C   UNL     1       0.795  18.325  16.839  0.00  0.00    +0.000 A 
ATOM     33  C   UNL     1       2.063  17.787  16.630  0.00  0.00    +0.000 A 
ATOM     34  C   UNL     1       2.624  16.935  17.579  0.00  0.00    +0.000 A 
ATOM     35  C   UNL     1       1.913  16.618  18.736  0.00  0.00    +0.000 A 
ENDBRANCH  29  30
ENDBRANCH   7  29
TORSDOF 4
ENDMDL
MODEL 7
REMARK VINA RESULT:      -6.6      3.491      8.885
REMARK  Name = 
REMARK  4 active torsions:
REMARK  status: ('A' for Active; 'I' for Inactive)
REMARK    1  A    between atoms: N_7  and  C_8
REMARK    2  A    between atoms: C_8  and  C_9
REMARK    3  A    between atoms: C_17  and  C_18
REMARK    4  A    between atoms: C_25  and  C_26
REMARK                            x       y       z     vdW  Elec       q    Type
REMARK                         _______ _______ _______ _____ _____    ______ ____
ROOT
ATOM      1  S   UNL     1      -4.981  12.740  20.832  0.00  0.00    +0.000 S 
ATOM      2  C   UNL     1      -3.433  13.270  20.558  0.00  0.00    +0.000 C 
ATOM      3  N   UNL     1      -2.398  12.404  20.374  0.00  0.00    +0.000 N 
ATOM      4  C   UNL     1      -1.102  12.779  20.096  0.00  0.00    +0.000 C 
ATOM      5  C   UNL     1      -0.782  14.079  20.190  0.00  0.00    +0.000 C 
ATOM      6  C   UNL     1       0.581  14.635  19.917  0.00  0.00    +0.000 C 
ATOM      7  N   UNL     1       1.626  13.719  19.485  0.00  0.00    +0.000 NA
ATOM      8  C   UNL     1       1.270  12.306  19.355  0.00  0.00    +0.000 C 
ATOM      9  C   UNL     1      -0.098  11.782  19.752  0.00  0.00    +0.000 C 
ATOM     10  C   UNL     1      -0.339  10.449  19.715  0.00  0.00    +0.000 C 
ATOM     11  C   UNL     1      -1.796  15.091  20.674  0.00  0.00    +0.000 C 
ATOM     12  N   UNL     1      -3.142  14.594  20.488  0.00  0.00    +0.000 N 
ATOM     13  H   UNL     1      -2.654  11.426  20.395  0.00  0.00    +0.000 HD
ATOM     14  H   UNL     1      -3.909  15.225  20.671  0.00  0.00    +0.000 HD
ENDROOT
BRANCH  10  15
ATOM     15  C   UNL     1       0.664   9.441  19.344  0.00  0.00    +0.000 A 
ATOM     16  C   UNL     1       1.147   8.544  20.307  0.00  0.00    +0.000 A 
ATOM     17  C   UNL     1       2.122   7.601  19.963  0.00  0.00    +0.000 A 
ATOM     18  C   UNL     1       2.611   7.555  18.660  0.00  0.00    +0.000 A 
ATOM     19 CL   UNL     1       3.806   6.390  18.236  0.00  0.00    +0.000 Cl
ATOM     20  C   UNL     1       2.141   8.445  17.696  0.00  0.00    +0.000 A 
ATOM     21  C   UNL     1       1.165   9.387  18.039  0.00  0.00    +0.000 A 
ENDBRANCH  10  15
BRANCH  11  22
ATOM     22  C   UNL     1      -1.565  15.465  22.132  0.00  0.00    +0.000 A 
ATOM     23  C   UNL     1      -1.314  14.476  23.095  0.00  0.00    +0.000 A 
ATOM     24  C   UNL     1      -1.180  14.818  24.441  0.00  0.00    +0.000 A 
ATOM     25  C   UNL     1      -1.291  16.153  24.837  0.00  0.00    +0.000 A 
ATOM     26 CL   UNL     1      -1.164  16.568  26.501  0.00  0.00    +0.000 Cl
ATOM     27  C   UNL     1      -1.519  17.148  23.896  0.00  0.00    +0.000 A 
ATOM     28  C   UNL     1      -1.648  16.807  22.556  0.00  0.00    +0.000 A 
ENDBRANCH  11  22
BRANCH   7  29
ATOM     29  C   UNL     1       2.319  14.158  18.261  0.00  0.00    +0.000 C 
BRANCH  29  30
ATOM     30  C   UNL     1       3.561  14.996  18.467  0.00  0.00    +0.000 A 
ATOM     31  C   UNL     1       3.514  16.187  19.204  0.00  0.00    +0.000 A 
ATOM     32  C   UNL     1       4.681  16.919  19.440  0.00  0.00    +0.000 A 
ATOM     33  C   UNL     1       5.904  16.462  18.952  0.00  0.00    +0.000 A 
ATOM     34  C   UNL     1       5.965  15.275  18.225  0.00  0.00    +0.000 A 
ATOM     35  C   UNL     1       4.799  14.547  17.982  0.00  0.00    +0.000 A 
ENDBRANCH  29  30
ENDBRANCH   7  29
TORSDOF 4
ENDMDL
MODEL 8
REMARK VINA RESULT:      -6.6      3.130      9.604
REMARK  Name = 
REMARK  4 active torsions:
REMARK  status: ('A' for Active; 'I' for Inactive)
REMARK    1  A    between atoms: N_7  and  C_8
REMARK    2  A    between atoms: C_8  and  C_9
REMARK    3  A    between atoms: C_17  and  C_18
REMARK    4  A    between atoms: C_25  and  C_26
REMARK                            x       y       z     vdW  Elec       q    Type
REMARK                         _______ _______ _______ _____ _____    ______ ____
ROOT
ATOM      1  S   UNL     1       2.544  13.493  17.919  0.00  0.00    +0.000 S 
ATOM      2  C   UNL     1       1.972  12.078  18.570  0.00  0.00    +0.000 C 
ATOM      3  N   UNL     1       2.383  10.860  18.118  0.00  0.00    +0.000 N 
ATOM      4  C   UNL     1       1.983   9.652  18.646  0.00  0.00    +0.000 C 
ATOM      5  C   UNL     1       0.985   9.650  19.543  0.00  0.00    +0.000 C 
ATOM      6  C   UNL     1       0.446   8.419  20.203  0.00  0.00    +0.000 C 
ATOM      7  N   UNL     1       1.063   7.139  19.885  0.00  0.00    +0.000 NA
ATOM      8  C   UNL     1       2.170   7.145  18.928  0.00  0.00    +0.000 C 
ATOM      9  C   UNL     1       2.602   8.409  18.207  0.00  0.00    +0.000 C 
ATOM     10  C   UNL     1       3.558   8.339  17.250  0.00  0.00    +0.000 C 
ATOM     11  C   UNL     1       0.261  10.929  19.897  0.00  0.00    +0.000 C 
ATOM     12  N   UNL     1       1.083  12.081  19.596  0.00  0.00    +0.000 N 
ATOM     13  H   UNL     1       3.073  10.893  17.379  0.00  0.00    +0.000 HD
ATOM     14  H   UNL     1       0.752  12.989  19.891  0.00  0.00    +0.000 HD
ENDROOT
BRANCH  10  15
ATOM     15  C   UNL     1       4.204   7.089  16.821  0.00  0.00    +0.000 A 
ATOM     16  C   UNL     1       4.930   7.050  15.623  0.00  0.00    +0.000 A 
ATOM     17  C   UNL     1       5.522   5.856  15.199  0.00  0.00    +0.000 A 
ATOM     18  C   UNL     1       5.389   4.705  15.971  0.00  0.00    +0.000 A 
ATOM     19 CL   UNL     1       6.124   3.237  15.451  0.00  0.00    +0.000 Cl
ATOM     20  C   UNL     1       4.664   4.731  17.161  0.00  0.00    +0.000 A 
ATOM     21  C   UNL     1       4.074   5.926  17.586  0.00  0.00    +0.000 A 
ENDBRANCH  10  15
BRANCH  11  22
ATOM     22  C   UNL     1      -1.080  11.032  19.183  0.00  0.00    +0.000 A 
ATOM     23  C   UNL     1      -1.317  10.321  17.997  0.00  0.00    +0.000 A 
ATOM     24  C   UNL     1      -2.519  10.479  17.306  0.00  0.00    +0.000 A 
ATOM     25  C   UNL     1      -3.498  11.346  17.796  0.00  0.00    +0.000 A 
ATOM     26 CL   UNL     1      -4.963  11.569  16.924  0.00  0.00    +0.000 Cl
ATOM     27  C   UNL     1      -3.290  12.043  18.981  0.00  0.00    +0.000 A 
ATOM     28  C   UNL     1      -2.095  11.881  19.669  0.00  0.00    +0.000 A 
ENDBRANCH  11  22
BRANCH   7  29
ATOM     29  C   UNL     1       1.458   6.368  21.077  0.00  0.00    +0.000 C 
BRANCH  29  30
ATOM     30  C   UNL     1       1.555   4.870  20.894  0.00  0.00    +0.000 A 
ATOM     31  C   UNL     1       0.708   4.194  20.005  0.00  0.00    +0.000 A 
ATOM     32  C   UNL     1       0.851   2.820  19.799  0.00  0.00    +0.000 A 
ATOM     33  C   UNL     1       1.846   2.112  20.471  0.00  0.00    +0.000 A 
ATOM     34  C   UNL     1       2.699   2.773  21.351  0.00  0.00    +0.000 A 
ATOM     35  C   UNL     1       2.554   4.144  21.563  0.00  0.00    +0.000 A 
ENDBRANCH  29  30
ENDBRANCH   7  29
TORSDOF 4
ENDMDL
MODEL 9
REMARK VINA RESULT:      -6.6      3.535      6.377
REMARK  Name = 
REMARK  4 active torsions:
REMARK  status: ('A' for Active; 'I' for Inactive)
REMARK    1  A    between atoms: N_7  and  C_8
REMARK    2  A    between atoms: C_8  and  C_9
REMARK    3  A    between atoms: C_17  and  C_18
REMARK    4  A    between atoms: C_25  and  C_26
REMARK                            x       y       z     vdW  Elec       q    Type
REMARK                         _______ _______ _______ _____ _____    ______ ____
ROOT
ATOM      1  S   UNL     1       1.488  18.415  17.982  0.00  0.00    +0.000 S 
ATOM      2  C   UNL     1       1.635  16.775  18.181  0.00  0.00    +0.000 C 
ATOM      3  N   UNL     1       0.915  16.096  19.117  0.00  0.00    +0.000 N 
ATOM      4  C   UNL     1       0.957  14.731  19.300  0.00  0.00    +0.000 C 
ATOM      5  C   UNL     1       1.896  14.030  18.647  0.00  0.00    +0.000 C 
ATOM      6  C   UNL     1       2.063  12.546  18.745  0.00  0.00    +0.000 C 
ATOM      7  N   UNL     1       1.125  11.799  19.570  0.00  0.00    +0.000 NA
ATOM      8  C   UNL     1       0.083  12.560  20.260  0.00  0.00    +0.000 C 
ATOM      9  C   UNL     1       0.030  14.076  20.213  0.00  0.00    +0.000 C 
ATOM     10  C   UNL     1      -0.889  14.736  20.958  0.00  0.00    +0.000 C 
ATOM     11  C   UNL     1       2.936  14.732  17.803  0.00  0.00    +0.000 C 
ATOM     12  N   UNL     1       2.469  16.040  17.401  0.00  0.00    +0.000 N 
ATOM     13  H   UNL     1       0.276  16.665  19.656  0.00  0.00    +0.000 HD
ATOM     14  H   UNL     1       3.030  16.561  16.742  0.00  0.00    +0.000 HD
ENDROOT
BRANCH  10  15
ATOM     15  C   UNL     1      -1.844  14.077  21.862  0.00  0.00    +0.000 A 
ATOM     16  C   UNL     1      -3.125  13.741  21.403  0.00  0.00    +0.000 A 
ATOM     17  C   UNL     1      -4.045  13.138  22.268  0.00  0.00    +0.000 A 
ATOM     18  C   UNL     1      -3.683  12.872  23.587  0.00  0.00    +0.000 A 
ATOM     19 CL   UNL     1      -4.814  12.124  24.649  0.00  0.00    +0.000 Cl
ATOM     20  C   UNL     1      -2.414  13.207  24.054  0.00  0.00    +0.000 A 
ATOM     21  C   UNL     1      -1.493  13.808  23.188  0.00  0.00    +0.000 A 
ENDBRANCH  10  15
BRANCH  11  22
ATOM     22  C   UNL     1       4.269  14.845  18.532  0.00  0.00    +0.000 A 
ATOM     23  C   UNL     1       4.313  15.129  19.905  0.00  0.00    +0.000 A 
ATOM     24  C   UNL     1       5.537  15.308  20.551  0.00  0.00    +0.000 A 
ATOM     25  C   UNL     1       6.729  15.199  19.831  0.00  0.00    +0.000 A 
ATOM     26 CL   UNL     1       8.235  15.456  20.620  0.00  0.00    +0.000 Cl
ATOM     27  C   UNL     1       6.706  14.896  18.475  0.00  0.00    +0.000 A 
ATOM     28  C   UNL     1       5.487  14.715  17.835  0.00  0.00    +0.000 A 
ENDBRANCH  11  22
BRANCH   7  29
ATOM     29  C   UNL     1       0.508  10.658  18.870  0.00  0.00    +0.000 C 
BRANCH  29  30
ATOM     30  C   UNL     1       1.169   9.315  19.083  0.00  0.00    +0.000 A 
ATOM     31  C   UNL     1       1.913   8.707  18.063  0.00  0.00    +0.000 A 
ATOM     32  C   UNL     1       2.570   7.496  18.293  0.00  0.00    +0.000 A 
ATOM     33  C   UNL     1       2.499   6.888  19.545  0.00  0.00    +0.000 A 
ATOM     34  C   UNL     1       1.769   7.486  20.570  0.00  0.00    +0.000 A 
ATOM     35  C   UNL     1       1.106   8.692  20.339  0.00  0.00    +0.000 A 
ENDBRANCH  29  30
ENDBRANCH   7  29
TORSDOF 4
ENDMDL
