MODEL 1
REMARK VINA RESULT:      -8.5      0.000      0.000
REMARK  Name = 
REMARK  2 active torsions:
REMARK  status: ('A' for Active; 'I' for Inactive)
REMARK    1  A    between atoms: C_2  and  C_15
REMARK    2  A    between atoms: C_7  and  C_8
REMARK                            x       y       z     vdW  Elec       q    Type
REMARK                         _______ _______ _______ _____ _____    ______ ____
ROOT
ATOM      1  O   UNL     1       2.191   8.168  18.575  0.00  0.00    +0.000 OA
ATOM      2  C   UNL     1       1.882   7.851  19.717  0.00  0.00    +0.000 C 
ATOM      3  N   UNL     1       2.141   6.651  20.325  0.00  0.00    +0.000 N 
ATOM      4  C   UNL     1       2.892   5.663  19.757  0.00  0.00    +0.000 A 
ATOM      5  N   UNL     1       3.063   4.456  20.251  0.00  0.00    +0.000 NA
ATOM      6  N   UNL     1       3.930   3.806  19.401  0.00  0.00    +0.000 NA
ATOM      7  C   UNL     1       4.256   4.676  18.463  0.00  0.00    +0.000 A 
ATOM      8  O   UNL     1       3.608   5.876  18.615  0.00  0.00    +0.000 OA
ATOM      9  H   UNL     1       1.775   6.429  21.239  0.00  0.00    +0.000 HD
ENDROOT
BRANCH   2  10
ATOM     10  C   UNL     1       1.065   8.811  20.516  0.00  0.00    +0.000 A 
ATOM     11  C   UNL     1       1.129   8.681  21.914  0.00  0.00    +0.000 A 
ATOM     12  C   UNL     1       0.387   9.527  22.742  0.00  0.00    +0.000 A 
ATOM     13  C   UNL     1      -0.432  10.501  22.178  0.00  0.00    +0.000 A 
ATOM     14 CL   UNL     1      -1.358  11.533  23.194  0.00  0.00    +0.000 Cl
ATOM     15  C   UNL     1      -0.511  10.641  20.794  0.00  0.00    +0.000 A 
ATOM     16  C   UNL     1       0.234   9.797  19.959  0.00  0.00    +0.000 A 
ATOM     17 CL   UNL     1       0.038  10.017  18.258  0.00  0.00    +0.000 Cl
ENDBRANCH   2  10
BRANCH   7  18
ATOM     18  C   UNL     1       5.230   4.553  17.394  0.00  0.00    +0.000 A 
ATOM     19  C   UNL     1       4.883   4.339  16.057  0.00  0.00    +0.000 A 
ATOM     20  C   UNL     1       5.878   4.305  15.078  0.00  0.00    +0.000 A 
ATOM     21  C   UNL     1       7.196   4.479  15.467  0.00  0.00    +0.000 A 
ATOM     22  N   UNL     1       7.576   4.668  16.747  0.00  0.00    +0.000 NA
ATOM     23  C   UNL     1       6.587   4.702  17.675  0.00  0.00    +0.000 A 
ENDBRANCH   7  18
TORSDOF 2
ENDMDL
MODEL 2
REMARK VINA RESULT:      -8.1      0.682      1.095
REMARK  Name = 
REMARK  2 active torsions:
REMARK  status: ('A' for Active; 'I' for Inactive)
REMARK    1  A    between atoms: C_2  and  C_15
REMARK    2  A    between atoms: C_7  and  C_8
REMARK                            x       y       z     vdW  Elec       q    Type
REMARK                         _______ _______ _______ _____ _____    ______ ____
ROOT
ATOM      1  O   UNL     1       2.144   8.348  18.858  0.00  0.00    +0.000 OA
ATOM      2  C   UNL     1       1.718   8.012  19.956  0.00  0.00    +0.000 C 
ATOM      3  N   UNL     1       1.871   6.785  20.546  0.00  0.00    +0.000 N 
ATOM      4  C   UNL     1       2.633   5.782  20.018  0.00  0.00    +0.000 A 
ATOM      5  N   UNL     1       2.709   4.556  20.488  0.00  0.00    +0.000 NA
ATOM      6  N   UNL     1       3.625   3.894  19.700  0.00  0.00    +0.000 NA
ATOM      7  C   UNL     1       4.070   4.775  18.824  0.00  0.00    +0.000 A 
ATOM      8  O   UNL     1       3.459   5.996  18.954  0.00  0.00    +0.000 OA
ATOM      9  H   UNL     1       1.414   6.553  21.415  0.00  0.00    +0.000 HD
ENDROOT
BRANCH   2  10
ATOM     10  C   UNL     1       0.870   8.983  20.707  0.00  0.00    +0.000 A 
ATOM     11  C   UNL     1       0.900   8.892  22.110  0.00  0.00    +0.000 A 
ATOM     12  C   UNL     1       0.127   9.751  22.895  0.00  0.00    +0.000 A 
ATOM     13  C   UNL     1      -0.690  10.698  22.284  0.00  0.00    +0.000 A 
ATOM     14 CL   UNL     1      -1.654  11.745  23.247  0.00  0.00    +0.000 Cl
ATOM     15  C   UNL     1      -0.737  10.798  20.895  0.00  0.00    +0.000 A 
ATOM     16  C   UNL     1       0.040   9.941  20.102  0.00  0.00    +0.000 A 
ATOM     17 CL   UNL     1      -0.117  10.110  18.392  0.00  0.00    +0.000 Cl
ENDBRANCH   2  10
BRANCH   7  18
ATOM     18  C   UNL     1       5.133   4.641  17.845  0.00  0.00    +0.000 A 
ATOM     19  C   UNL     1       6.486   4.809  18.149  0.00  0.00    +0.000 A 
ATOM     20  C   UNL     1       7.453   4.592  17.164  0.00  0.00    +0.000 A 
ATOM     21  C   UNL     1       7.034   4.220  15.898  0.00  0.00    +0.000 A 
ATOM     22  N   UNL     1       5.739   4.065  15.556  0.00  0.00    +0.000 NA
ATOM     23  C   UNL     1       4.823   4.278  16.535  0.00  0.00    +0.000 A 
ENDBRANCH   7  18
TORSDOF 2
ENDMDL
MODEL 3
REMARK VINA RESULT:      -8.0      1.175      1.239
REMARK  Name = 
REMARK  2 active torsions:
REMARK  status: ('A' for Active; 'I' for Inactive)
REMARK    1  A    between atoms: C_2  and  C_15
REMARK    2  A    between atoms: C_7  and  C_8
REMARK                            x       y       z     vdW  Elec       q    Type
REMARK                         _______ _______ _______ _____ _____    ______ ____
ROOT
ATOM      1  O   UNL     1       1.713   8.731  18.537  0.00  0.00    +0.000 OA
ATOM      2  C   UNL     1       1.581   8.463  19.726  0.00  0.00    +0.000 C 
ATOM      3  N   UNL     1       1.971   7.305  20.344  0.00  0.00    +0.000 N 
ATOM      4  C   UNL     1       2.674   6.314  19.721  0.00  0.00    +0.000 A 
ATOM      5  N   UNL     1       2.961   5.141  20.241  0.00  0.00    +0.000 NA
ATOM      6  N   UNL     1       3.724   4.477  19.305  0.00  0.00    +0.000 NA
ATOM      7  C   UNL     1       3.878   5.308  18.292  0.00  0.00    +0.000 A 
ATOM      8  O   UNL     1       3.212   6.491  18.479  0.00  0.00    +0.000 OA
ATOM      9  H   UNL     1       1.747   7.118  21.310  0.00  0.00    +0.000 HD
ENDROOT
BRANCH   2  10
ATOM     10  C   UNL     1       0.848   9.436  20.588  0.00  0.00    +0.000 A 
ATOM     11  C   UNL     1       0.182   8.907  21.707  0.00  0.00    +0.000 A 
ATOM     12  C   UNL     1      -0.542   9.741  22.564  0.00  0.00    +0.000 A 
ATOM     13  C   UNL     1      -0.614  11.106  22.300  0.00  0.00    +0.000 A 
ATOM     14 CL   UNL     1      -1.518  12.131  23.343  0.00  0.00    +0.000 Cl
ATOM     15  C   UNL     1       0.035  11.646  21.192  0.00  0.00    +0.000 A 
ATOM     16  C   UNL     1       0.765  10.814  20.331  0.00  0.00    +0.000 A 
ATOM     17 CL   UNL     1       1.498  11.566  18.962  0.00  0.00    +0.000 Cl
ENDBRANCH   2  10
BRANCH   7  18
ATOM     18  C   UNL     1       4.695   5.162  17.101  0.00  0.00    +0.000 A 
ATOM     19  C   UNL     1       5.135   3.929  16.615  0.00  0.00    +0.000 A 
ATOM     20  C   UNL     1       5.858   3.870  15.420  0.00  0.00    +0.000 A 
ATOM     21  C   UNL     1       6.126   5.052  14.751  0.00  0.00    +0.000 A 
ATOM     22  N   UNL     1       5.737   6.264  15.194  0.00  0.00    +0.000 NA
ATOM     23  C   UNL     1       5.032   6.290  16.353  0.00  0.00    +0.000 A 
ENDBRANCH   7  18
TORSDOF 2
ENDMDL
MODEL 4
REMARK VINA RESULT:      -7.9      1.918      2.167
REMARK  Name = 
REMARK  2 active torsions:
REMARK  status: ('A' for Active; 'I' for Inactive)
REMARK    1  A    between atoms: C_2  and  C_15
REMARK    2  A    between atoms: C_7  and  C_8
REMARK                            x       y       z     vdW  Elec       q    Type
REMARK                         _______ _______ _______ _____ _____    ______ ____
ROOT
ATOM      1  O   UNL     1       2.111   9.255  17.194  0.00  0.00    +0.000 OA
ATOM      2  C   UNL     1       1.735   9.228  18.360  0.00  0.00    +0.000 C 
ATOM      3  N   UNL     1       1.917   8.201  19.248  0.00  0.00    +0.000 N 
ATOM      4  C   UNL     1       2.655   7.085  18.973  0.00  0.00    +0.000 A 
ATOM      5  N   UNL     1       2.754   6.027  19.747  0.00  0.00    +0.000 NA
ATOM      6  N   UNL     1       3.633   5.169  19.124  0.00  0.00    +0.000 NA
ATOM      7  C   UNL     1       4.036   5.781  18.027  0.00  0.00    +0.000 A 
ATOM      8  O   UNL     1       3.431   6.999  17.854  0.00  0.00    +0.000 OA
ATOM      9  H   UNL     1       1.500   8.213  20.167  0.00  0.00    +0.000 HD
ENDROOT
BRANCH   2  10
ATOM     10  C   UNL     1       0.921  10.373  18.863  0.00  0.00    +0.000 A 
ATOM     11  C   UNL     1      -0.312  10.056  19.458  0.00  0.00    +0.000 A 
ATOM     12  C   UNL     1      -1.148  11.065  19.944  0.00  0.00    +0.000 A 
ATOM     13  C   UNL     1      -0.762  12.397  19.829  0.00  0.00    +0.000 A 
ATOM     14 CL   UNL     1      -1.795  13.640  20.411  0.00  0.00    +0.000 Cl
ATOM     15  C   UNL     1       0.455  12.730  19.236  0.00  0.00    +0.000 A 
ATOM     16  C   UNL     1       1.299  11.721  18.750  0.00  0.00    +0.000 A 
ATOM     17 CL   UNL     1       2.764  12.233  17.994  0.00  0.00    +0.000 Cl
ENDBRANCH   2  10
BRANCH   7  18
ATOM     18  C   UNL     1       5.054   5.380  17.072  0.00  0.00    +0.000 A 
ATOM     19  C   UNL     1       4.927   4.271  16.232  0.00  0.00    +0.000 A 
ATOM     20  C   UNL     1       5.921   3.995  15.290  0.00  0.00    +0.000 A 
ATOM     21  C   UNL     1       7.020   4.835  15.222  0.00  0.00    +0.000 A 
ATOM     22  N   UNL     1       7.191   5.904  16.026  0.00  0.00    +0.000 NA
ATOM     23  C   UNL     1       6.207   6.150  16.927  0.00  0.00    +0.000 A 
ENDBRANCH   7  18
TORSDOF 2
ENDMDL
MODEL 5
REMARK VINA RESULT:      -7.9      1.812      1.969
REMARK  Name = 
REMARK  2 active torsions:
REMARK  status: ('A' for Active; 'I' for Inactive)
REMARK    1  A    between atoms: C_2  and  C_15
REMARK    2  A    between atoms: C_7  and  C_8
REMARK                            x       y       z     vdW  Elec       q    Type
REMARK                         _______ _______ _______ _____ _____    ______ ____
ROOT
ATOM      1  O   UNL     1       1.881   9.219  17.272  0.00  0.00    +0.000 OA
ATOM      2  C   UNL     1       1.525   9.195  18.444  0.00  0.00    +0.000 C 
ATOM      3  N   UNL     1       1.768   8.191  19.345  0.00  0.00    +0.000 N 
ATOM      4  C   UNL     1       2.552   7.106  19.075  0.00  0.00    +0.000 A 
ATOM      5  N   UNL     1       2.712   6.067  19.865  0.00  0.00    +0.000 NA
ATOM      6  N   UNL     1       3.620   5.240  19.241  0.00  0.00    +0.000 NA
ATOM      7  C   UNL     1       3.978   5.852  18.128  0.00  0.00    +0.000 A 
ATOM      8  O   UNL     1       3.315   7.038  17.946  0.00  0.00    +0.000 OA
ATOM      9  H   UNL     1       1.365   8.200  20.270  0.00  0.00    +0.000 HD
ENDROOT
BRANCH   2  10
ATOM     10  C   UNL     1       0.667  10.309  18.942  0.00  0.00    +0.000 A 
ATOM     11  C   UNL     1       1.191  11.088  19.988  0.00  0.00    +0.000 A 
ATOM     12  C   UNL     1       0.452  12.144  20.528  0.00  0.00    +0.000 A 
ATOM     13  C   UNL     1      -0.819  12.422  20.032  0.00  0.00    +0.000 A 
ATOM     14 CL   UNL     1      -1.736  13.710  20.704  0.00  0.00    +0.000 Cl
ATOM     15  C   UNL     1      -1.356  11.657  18.999  0.00  0.00    +0.000 A 
ATOM     16  C   UNL     1      -0.617  10.598  18.452  0.00  0.00    +0.000 A 
ATOM     17 CL   UNL     1      -1.382   9.680  17.206  0.00  0.00    +0.000 Cl
ENDBRANCH   2  10
BRANCH   7  18
ATOM     18  C   UNL     1       4.998   5.482  17.163  0.00  0.00    +0.000 A 
ATOM     19  C   UNL     1       4.860   4.421  16.265  0.00  0.00    +0.000 A 
ATOM     20  C   UNL     1       5.859   4.176  15.319  0.00  0.00    +0.000 A 
ATOM     21  C   UNL     1       6.973   4.998  15.306  0.00  0.00    +0.000 A 
ATOM     22  N   UNL     1       7.155   6.021  16.166  0.00  0.00    +0.000 NA
ATOM     23  C   UNL     1       6.166   6.238  17.070  0.00  0.00    +0.000 A 
ENDBRANCH   7  18
TORSDOF 2
ENDMDL
MODEL 6
REMARK VINA RESULT:      -7.7      3.498      8.687
REMARK  Name = 
REMARK  2 active torsions:
REMARK  status: ('A' for Active; 'I' for Inactive)
REMARK    1  A    between atoms: C_2  and  C_15
REMARK    2  A    between atoms: C_7  and  C_8
REMARK                            x       y       z     vdW  Elec       q    Type
REMARK                         _______ _______ _______ _____ _____    ______ ____
ROOT
ATOM      1  O   UNL     1       1.292   8.999  18.772  0.00  0.00    +0.000 OA
ATOM      2  C   UNL     1       1.812   8.157  19.494  0.00  0.00    +0.000 C 
ATOM      3  N   UNL     1       1.816   8.154  20.864  0.00  0.00    +0.000 N 
ATOM      4  C   UNL     1       1.128   9.056  21.624  0.00  0.00    +0.000 A 
ATOM      5  N   UNL     1       1.201   9.162  22.933  0.00  0.00    +0.000 NA
ATOM      6  N   UNL     1       0.312  10.150  23.294  0.00  0.00    +0.000 NA
ATOM      7  C   UNL     1      -0.268  10.555  22.181  0.00  0.00    +0.000 A 
ATOM      8  O   UNL     1       0.224   9.916  21.071  0.00  0.00    +0.000 OA
ATOM      9  H   UNL     1       2.343   7.474  21.392  0.00  0.00    +0.000 HD
ENDROOT
BRANCH   2  10
ATOM     10  C   UNL     1       2.602   7.069  18.848  0.00  0.00    +0.000 A 
ATOM     11  C   UNL     1       3.466   7.451  17.807  0.00  0.00    +0.000 A 
ATOM     12  C   UNL     1       4.234   6.497  17.134  0.00  0.00    +0.000 A 
ATOM     13  C   UNL     1       4.135   5.155  17.490  0.00  0.00    +0.000 A 
ATOM     14 CL   UNL     1       5.067   3.978  16.653  0.00  0.00    +0.000 Cl
ATOM     15  C   UNL     1       3.279   4.758  18.515  0.00  0.00    +0.000 A 
ATOM     16  C   UNL     1       2.509   5.711  19.195  0.00  0.00    +0.000 A 
ATOM     17 CL   UNL     1       1.446   5.120  20.420  0.00  0.00    +0.000 Cl
ENDBRANCH   2  10
BRANCH   7  18
ATOM     18  C   UNL     1      -1.368  11.486  22.003  0.00  0.00    +0.000 A 
ATOM     19  C   UNL     1      -2.205  11.896  23.043  0.00  0.00    +0.000 A 
ATOM     20  C   UNL     1      -3.196  12.851  22.803  0.00  0.00    +0.000 A 
ATOM     21  C   UNL     1      -3.325  13.363  21.522  0.00  0.00    +0.000 A 
ATOM     22  N   UNL     1      -2.551  12.981  20.486  0.00  0.00    +0.000 NA
ATOM     23  C   UNL     1      -1.594  12.056  20.751  0.00  0.00    +0.000 A 
ENDBRANCH   7  18
TORSDOF 2
ENDMDL
MODEL 7
REMARK VINA RESULT:      -7.7      3.560      8.698
REMARK  Name = 
REMARK  2 active torsions:
REMARK  status: ('A' for Active; 'I' for Inactive)
REMARK    1  A    between atoms: C_2  and  C_15
REMARK    2  A    between atoms: C_7  and  C_8
REMARK                            x       y       z     vdW  Elec       q    Type
REMARK                         _______ _______ _______ _____ _____    ______ ____
ROOT
ATOM      1  O   UNL     1       1.273   8.998  18.806  0.00  0.00    +0.000 OA
ATOM      2  C   UNL     1       1.788   8.158  19.534  0.00  0.00    +0.000 C 
ATOM      3  N   UNL     1       1.788   8.162  20.904  0.00  0.00    +0.000 N 
ATOM      4  C   UNL     1       1.103   9.072  21.658  0.00  0.00    +0.000 A 
ATOM      5  N   UNL     1       1.173   9.185  22.966  0.00  0.00    +0.000 NA
ATOM      6  N   UNL     1       0.287  10.179  23.319  0.00  0.00    +0.000 NA
ATOM      7  C   UNL     1      -0.289  10.580  22.202  0.00  0.00    +0.000 A 
ATOM      8  O   UNL     1       0.204   9.933  21.097  0.00  0.00    +0.000 OA
ATOM      9  H   UNL     1       2.311   7.483  21.437  0.00  0.00    +0.000 HD
ENDROOT
BRANCH   2  10
ATOM     10  C   UNL     1       2.574   7.062  18.897  0.00  0.00    +0.000 A 
ATOM     11  C   UNL     1       3.418   7.429  17.834  0.00  0.00    +0.000 A 
ATOM     12  C   UNL     1       4.182   6.467  17.167  0.00  0.00    +0.000 A 
ATOM     13  C   UNL     1       4.098   5.132  17.550  0.00  0.00    +0.000 A 
ATOM     14 CL   UNL     1       5.024   3.945  16.721  0.00  0.00    +0.000 Cl
ATOM     15  C   UNL     1       3.262   4.750  18.598  0.00  0.00    +0.000 A 
ATOM     16  C   UNL     1       2.497   5.711  19.272  0.00  0.00    +0.000 A 
ATOM     17 CL   UNL     1       1.459   5.137  20.527  0.00  0.00    +0.000 Cl
ENDBRANCH   2  10
BRANCH   7  18
ATOM     18  C   UNL     1      -1.384  11.515  22.016  0.00  0.00    +0.000 A 
ATOM     19  C   UNL     1      -1.690  12.108  20.788  0.00  0.00    +0.000 A 
ATOM     20  C   UNL     1      -2.805  12.942  20.678  0.00  0.00    +0.000 A 
ATOM     21  C   UNL     1      -3.578  13.165  21.806  0.00  0.00    +0.000 A 
ATOM     22  N   UNL     1      -3.308  12.628  23.012  0.00  0.00    +0.000 NA
ATOM     23  C   UNL     1      -2.222  11.818  23.088  0.00  0.00    +0.000 A 
ENDBRANCH   7  18
TORSDOF 2
ENDMDL
MODEL 8
REMARK VINA RESULT:      -7.6      1.514      1.946
REMARK  Name = 
REMARK  2 active torsions:
REMARK  status: ('A' for Active; 'I' for Inactive)
REMARK    1  A    between atoms: C_2  and  C_15
REMARK    2  A    between atoms: C_7  and  C_8
REMARK                            x       y       z     vdW  Elec       q    Type
REMARK                         _______ _______ _______ _____ _____    ______ ____
ROOT
ATOM      1  O   UNL     1       2.081   8.682  17.442  0.00  0.00    +0.000 OA
ATOM      2  C   UNL     1       1.833   8.565  18.636  0.00  0.00    +0.000 C 
ATOM      3  N   UNL     1       2.198   7.519  19.442  0.00  0.00    +0.000 N 
ATOM      4  C   UNL     1       3.001   6.493  19.034  0.00  0.00    +0.000 A 
ATOM      5  N   UNL     1       3.275   5.414  19.734  0.00  0.00    +0.000 NA
ATOM      6  N   UNL     1       4.159   4.675  18.979  0.00  0.00    +0.000 NA
ATOM      7  C   UNL     1       4.389   5.373  17.884  0.00  0.00    +0.000 A 
ATOM      8  O   UNL     1       3.662   6.535  17.840  0.00  0.00    +0.000 OA
ATOM      9  H   UNL     1       1.879   7.449  20.397  0.00  0.00    +0.000 HD
ENDROOT
BRANCH   2  10
ATOM     10  C   UNL     1       0.975   9.602  19.280  0.00  0.00    +0.000 A 
ATOM     11  C   UNL     1       0.408  10.567  18.429  0.00  0.00    +0.000 A 
ATOM     12  C   UNL     1      -0.398  11.585  18.945  0.00  0.00    +0.000 A 
ATOM     13  C   UNL     1      -0.632  11.653  20.316  0.00  0.00    +0.000 A 
ATOM     14 CL   UNL     1      -1.610  12.913  20.955  0.00  0.00    +0.000 Cl
ATOM     15  C   UNL     1      -0.074  10.708  21.175  0.00  0.00    +0.000 A 
ATOM     16  C   UNL     1       0.733   9.682  20.661  0.00  0.00    +0.000 A 
ATOM     17 CL   UNL     1       1.416   8.585  21.806  0.00  0.00    +0.000 Cl
ENDBRANCH   2  10
BRANCH   7  18
ATOM     18  C   UNL     1       5.334   5.116  16.812  0.00  0.00    +0.000 A 
ATOM     19  C   UNL     1       5.118   4.172  15.805  0.00  0.00    +0.000 A 
ATOM     20  C   UNL     1       6.045   4.037  14.768  0.00  0.00    +0.000 A 
ATOM     21  C   UNL     1       7.169   4.847  14.776  0.00  0.00    +0.000 A 
ATOM     22  N   UNL     1       7.425   5.756  15.738  0.00  0.00    +0.000 NA
ATOM     23  C   UNL     1       6.504   5.869  16.728  0.00  0.00    +0.000 A 
ENDBRANCH   7  18
TORSDOF 2
ENDMDL
MODEL 9
REMARK VINA RESULT:      -7.6      1.179      1.266
REMARK  Name = 
REMARK  2 active torsions:
REMARK  status: ('A' for Active; 'I' for Inactive)
REMARK    1  A    between atoms: C_2  and  C_15
REMARK    2  A    between atoms: C_7  and  C_8
REMARK                            x       y       z     vdW  Elec       q    Type
REMARK                         _______ _______ _______ _____ _____    ______ ____
ROOT
ATOM      1  O   UNL     1       1.639   8.775  18.607  0.00  0.00    +0.000 OA
ATOM      2  C   UNL     1       1.508   8.522  19.799  0.00  0.00    +0.000 C 
ATOM      3  N   UNL     1       1.872   7.359  20.426  0.00  0.00    +0.000 N 
ATOM      4  C   UNL     1       2.545   6.345  19.808  0.00  0.00    +0.000 A 
ATOM      5  N   UNL     1       2.805   5.169  20.337  0.00  0.00    +0.000 NA
ATOM      6  N   UNL     1       3.545   4.478  19.403  0.00  0.00    +0.000 NA
ATOM      7  C   UNL     1       3.714   5.295  18.381  0.00  0.00    +0.000 A 
ATOM      8  O   UNL     1       3.080   6.497  18.561  0.00  0.00    +0.000 OA
ATOM      9  H   UNL     1       1.649   7.187  21.395  0.00  0.00    +0.000 HD
ENDROOT
BRANCH   2  10
ATOM     10  C   UNL     1       0.806   9.521  20.656  0.00  0.00    +0.000 A 
ATOM     11  C   UNL     1       0.138   9.020  21.788  0.00  0.00    +0.000 A 
ATOM     12  C   UNL     1      -0.559   9.880  22.641  0.00  0.00    +0.000 A 
ATOM     13  C   UNL     1      -0.602  11.243  22.362  0.00  0.00    +0.000 A 
ATOM     14 CL   UNL     1      -1.472  12.301  23.401  0.00  0.00    +0.000 Cl
ATOM     15  C   UNL     1       0.049  11.756  21.242  0.00  0.00    +0.000 A 
ATOM     16  C   UNL     1       0.752  10.897  20.385  0.00  0.00    +0.000 A 
ATOM     17 CL   UNL     1       1.490  11.617  19.000  0.00  0.00    +0.000 Cl
ENDBRANCH   2  10
BRANCH   7  18
ATOM     18  C   UNL     1       4.520   5.118  17.187  0.00  0.00    +0.000 A 
ATOM     19  C   UNL     1       4.921   6.174  16.365  0.00  0.00    +0.000 A 
ATOM     20  C   UNL     1       5.756   5.926  15.272  0.00  0.00    +0.000 A 
ATOM     21  C   UNL     1       6.160   4.624  15.031  0.00  0.00    +0.000 A 
ATOM     22  N   UNL     1       5.782   3.574  15.787  0.00  0.00    +0.000 NA
ATOM     23  C   UNL     1       4.975   3.845  16.843  0.00  0.00    +0.000 A 
ENDBRANCH   7  18
TORSDOF 2
ENDMDL
