MODEL 1
REMARK VINA RESULT:      -7.9      0.000      0.000
REMARK  Name = 
REMARK  9 active torsions:
REMARK  status: ('A' for Active; 'I' for Inactive)
REMARK    1  A    between atoms: C_1  and  O_2
REMARK    2  A    between atoms: O_2  and  C_3
REMARK    3  A    between atoms: C_6  and  C_7
REMARK    4  A    between atoms: C_7  and  N_8
REMARK    5  A    between atoms: N_11  and  C_12
REMARK    6  A    between atoms: C_12  and  C_13
REMARK    7  A    between atoms: C_12  and  C_19
REMARK    8  A    between atoms: C_19  and  O_20
REMARK    9  A    between atoms: C_19  and  C_21
REMARK                            x       y       z     vdW  Elec       q    Type
REMARK                         _______ _______ _______ _____ _____    ______ ____
ROOT
ATOM      1  C   UNL     1       4.300   4.540  17.589  0.00  0.00    +0.000 C 
ENDROOT
BRANCH   1   5
ATOM      2  N   UNL     1       2.054   7.556  18.736  0.00  0.00    +0.000 NA
ATOM      3  C   UNL     1       2.516   6.991  17.462  0.00  0.00    +0.000 C 
ATOM      4  C   UNL     1       4.066   6.967  17.495  0.00  0.00    +0.000 C 
ATOM      5  N   UNL     1       4.524   5.840  18.330  0.00  0.00    +0.000 NA
ATOM      6  C   UNL     1       4.033   6.125  19.720  0.00  0.00    +0.000 C 
ATOM      7  C   UNL     1       2.553   6.682  19.842  0.00  0.00    +0.000 C 
BRANCH   2   8
ATOM      8  C   UNL     1       2.109   9.044  18.523  0.00  0.00    +0.000 C 
BRANCH   8  12
ATOM      9  C   UNL     1      -1.266  11.656  18.761  0.00  0.00    +0.000 A 
ATOM     10  C   UNL     1      -1.370  10.457  18.014  0.00  0.00    +0.000 A 
ATOM     11  C   UNL     1      -0.258   9.636  17.821  0.00  0.00    +0.000 A 
ATOM     12  C   UNL     1       0.977  10.008  18.345  0.00  0.00    +0.000 A 
ATOM     13  C   UNL     1       1.090  11.236  19.041  0.00  0.00    +0.000 A 
ATOM     14  C   UNL     1      -0.021  12.053  19.237  0.00  0.00    +0.000 A 
BRANCH   9  16
ATOM     15  C   UNL     1      -3.657  11.937  18.980  0.00  0.00    +0.000 C 
ATOM     16  O   UNL     1      -2.357  12.387  19.100  0.00  0.00    +0.000 OA
ENDBRANCH   9  16
ENDBRANCH   8  12
ENDBRANCH   2   8
ENDBRANCH   1   5
BRANCH   1  17
ATOM     17  C   UNL     1       5.293   4.505  16.415  0.00  0.00    +0.000 A 
ATOM     18  C   UNL     1       6.596   5.029  16.542  0.00  0.00    +0.000 A 
ATOM     19  C   UNL     1       7.434   5.124  15.422  0.00  0.00    +0.000 A 
ATOM     20  C   UNL     1       6.981   4.700  14.172  0.00  0.00    +0.000 A 
ATOM     21  C   UNL     1       5.696   4.171  14.037  0.00  0.00    +0.000 A 
ATOM     22  C   UNL     1       4.856   4.070  15.149  0.00  0.00    +0.000 A 
ENDBRANCH   1  17
BRANCH   1  23
ATOM     23  C   UNL     1       4.403   3.194  18.385  0.00  0.00    +0.000 C 
BRANCH  23  24
ATOM     24  C   UNL     1       3.199   3.063  19.352  0.00  0.00    +0.000 A 
ATOM     25  C   UNL     1       3.427   2.713  20.705  0.00  0.00    +0.000 A 
ATOM     26  C   UNL     1       2.377   2.643  21.625  0.00  0.00    +0.000 A 
ATOM     27  C   UNL     1       1.072   2.902  21.216  0.00  0.00    +0.000 A 
ATOM     28  C   UNL     1       0.812   3.229  19.887  0.00  0.00    +0.000 A 
ATOM     29  C   UNL     1       1.858   3.315  18.952  0.00  0.00    +0.000 A 
ATOM     30 CL   UNL     1       1.431   3.739  17.298  0.00  0.00    +0.000 Cl
ENDBRANCH  23  24
BRANCH  23  31
ATOM     31  O   UNL     1       5.600   3.114  19.115  0.00  0.00    +0.000 OA
ATOM     32  H   UNL     1       5.447   3.521  20.006  0.00  0.00    +0.000 HD
ENDBRANCH  23  31
ENDBRANCH   1  23
TORSDOF 8
ENDMDL
MODEL 2
REMARK VINA RESULT:      -7.7      0.704      1.289
REMARK  Name = 
REMARK  9 active torsions:
REMARK  status: ('A' for Active; 'I' for Inactive)
REMARK    1  A    between atoms: C_1  and  O_2
REMARK    2  A    between atoms: O_2  and  C_3
REMARK    3  A    between atoms: C_6  and  C_7
REMARK    4  A    between atoms: C_7  and  N_8
REMARK    5  A    between atoms: N_11  and  C_12
REMARK    6  A    between atoms: C_12  and  C_13
REMARK    7  A    between atoms: C_12  and  C_19
REMARK    8  A    between atoms: C_19  and  O_20
REMARK    9  A    between atoms: C_19  and  C_21
REMARK                            x       y       z     vdW  Elec       q    Type
REMARK                         _______ _______ _______ _____ _____    ______ ____
ROOT
ATOM      1  C   UNL     1       4.195   4.718  17.570  0.00  0.00    +0.000 C 
ENDROOT
BRANCH   1   5
ATOM      2  N   UNL     1       1.985   7.813  18.569  0.00  0.00    +0.000 NA
ATOM      3  C   UNL     1       2.537   7.248  17.331  0.00  0.00    +0.000 C 
ATOM      4  C   UNL     1       4.075   7.155  17.504  0.00  0.00    +0.000 C 
ATOM      5  N   UNL     1       4.405   5.995  18.355  0.00  0.00    +0.000 NA
ATOM      6  C   UNL     1       3.802   6.279  19.699  0.00  0.00    +0.000 C 
ATOM      7  C   UNL     1       2.342   6.900  19.698  0.00  0.00    +0.000 C 
BRANCH   2   8
ATOM      8  C   UNL     1       2.124   9.300  18.391  0.00  0.00    +0.000 C 
BRANCH   8  12
ATOM      9  C   UNL     1      -0.770  12.214  19.576  0.00  0.00    +0.000 A 
ATOM     10  C   UNL     1       0.406  12.637  18.910  0.00  0.00    +0.000 A 
ATOM     11  C   UNL     1       1.423  11.730  18.608  0.00  0.00    +0.000 A 
ATOM     12  C   UNL     1       1.296  10.397  18.987  0.00  0.00    +0.000 A 
ATOM     13  C   UNL     1       0.146   9.990  19.706  0.00  0.00    +0.000 A 
ATOM     14  C   UNL     1      -0.870  10.894  20.003  0.00  0.00    +0.000 A 
BRANCH   9  16
ATOM     15  C   UNL     1      -3.098  12.602  20.102  0.00  0.00    +0.000 C 
ATOM     16  O   UNL     1      -1.838  13.035  19.739  0.00  0.00    +0.000 OA
ENDBRANCH   9  16
ENDBRANCH   8  12
ENDBRANCH   2   8
ENDBRANCH   1   5
BRANCH   1  17
ATOM     17  C   UNL     1       5.148   4.758  16.364  0.00  0.00    +0.000 A 
ATOM     18  C   UNL     1       4.763   4.246  15.108  0.00  0.00    +0.000 A 
ATOM     19  C   UNL     1       5.694   4.156  14.064  0.00  0.00    +0.000 A 
ATOM     20  C   UNL     1       7.012   4.573  14.264  0.00  0.00    +0.000 A 
ATOM     21  C   UNL     1       7.400   5.090  15.501  0.00  0.00    +0.000 A 
ATOM     22  C   UNL     1       6.478   5.186  16.545  0.00  0.00    +0.000 A 
ENDBRANCH   1  17
BRANCH   1  23
ATOM     23  C   UNL     1       4.363   3.346  18.309  0.00  0.00    +0.000 C 
BRANCH  23  24
ATOM     24  C   UNL     1       3.204   3.149  19.320  0.00  0.00    +0.000 A 
ATOM     25  C   UNL     1       3.496   2.724  20.639  0.00  0.00    +0.000 A 
ATOM     26  C   UNL     1       2.489   2.592  21.599  0.00  0.00    +0.000 A 
ATOM     27  C   UNL     1       1.165   2.863  21.266  0.00  0.00    +0.000 A 
ATOM     28  C   UNL     1       0.843   3.264  19.971  0.00  0.00    +0.000 A 
ATOM     29  C   UNL     1       1.845   3.412  18.996  0.00  0.00    +0.000 A 
ATOM     30 CL   UNL     1       1.341   3.927  17.391  0.00  0.00    +0.000 Cl
ENDBRANCH  23  24
BRANCH  23  31
ATOM     31  O   UNL     1       5.591   3.268  18.984  0.00  0.00    +0.000 OA
ATOM     32  H   UNL     1       6.179   2.645  18.487  0.00  0.00    +0.000 HD
ENDBRANCH  23  31
ENDBRANCH   1  23
TORSDOF 8
ENDMDL
MODEL 3
REMARK VINA RESULT:      -7.5      1.205      1.447
REMARK  Name = 
REMARK  9 active torsions:
REMARK  status: ('A' for Active; 'I' for Inactive)
REMARK    1  A    between atoms: C_1  and  O_2
REMARK    2  A    between atoms: O_2  and  C_3
REMARK    3  A    between atoms: C_6  and  C_7
REMARK    4  A    between atoms: C_7  and  N_8
REMARK    5  A    between atoms: N_11  and  C_12
REMARK    6  A    between atoms: C_12  and  C_13
REMARK    7  A    between atoms: C_12  and  C_19
REMARK    8  A    between atoms: C_19  and  O_20
REMARK    9  A    between atoms: C_19  and  C_21
REMARK                            x       y       z     vdW  Elec       q    Type
REMARK                         _______ _______ _______ _____ _____    ______ ____
ROOT
ATOM      1  C   UNL     1       4.244   4.526  17.665  0.00  0.00    +0.000 C 
ENDROOT
BRANCH   1   5
ATOM      2  N   UNL     1       1.985   7.571  18.709  0.00  0.00    +0.000 NA
ATOM      3  C   UNL     1       2.498   7.000  17.458  0.00  0.00    +0.000 C 
ATOM      4  C   UNL     1       4.044   6.957  17.562  0.00  0.00    +0.000 C 
ATOM      5  N   UNL     1       4.449   5.824  18.418  0.00  0.00    +0.000 NA
ATOM      6  C   UNL     1       3.898   6.115  19.783  0.00  0.00    +0.000 C 
ATOM      7  C   UNL     1       2.421   6.690  19.837  0.00  0.00    +0.000 C 
BRANCH   2   8
ATOM      8  C   UNL     1       2.069   9.058  18.500  0.00  0.00    +0.000 C 
BRANCH   8  12
ATOM      9  C   UNL     1       0.146  12.358  20.417  0.00  0.00    +0.000 A 
ATOM     10  C   UNL     1      -0.196  11.039  20.803  0.00  0.00    +0.000 A 
ATOM     11  C   UNL     1       0.327   9.937  20.124  0.00  0.00    +0.000 A 
ATOM     12  C   UNL     1       1.175  10.132  19.037  0.00  0.00    +0.000 A 
ATOM     13  C   UNL     1       1.466  11.453  18.617  0.00  0.00    +0.000 A 
ATOM     14  C   UNL     1       0.947  12.552  19.297  0.00  0.00    +0.000 A 
BRANCH   9  16
ATOM     15  C   UNL     1       0.676  14.267  21.802  0.00  0.00    +0.000 C 
ATOM     16  O   UNL     1      -0.217  13.438  21.154  0.00  0.00    +0.000 OA
ENDBRANCH   9  16
ENDBRANCH   8  12
ENDBRANCH   2   8
ENDBRANCH   1   5
BRANCH   1  17
ATOM     17  C   UNL     1       5.246   4.508  16.500  0.00  0.00    +0.000 A 
ATOM     18  C   UNL     1       6.570   4.965  16.666  0.00  0.00    +0.000 A 
ATOM     19  C   UNL     1       7.424   5.081  15.560  0.00  0.00    +0.000 A 
ATOM     20  C   UNL     1       6.965   4.744  14.285  0.00  0.00    +0.000 A 
ATOM     21  C   UNL     1       5.659   4.282  14.111  0.00  0.00    +0.000 A 
ATOM     22  C   UNL     1       4.804   4.160  15.209  0.00  0.00    +0.000 A 
ENDBRANCH   1  17
BRANCH   1  23
ATOM     23  C   UNL     1       4.352   3.176  18.454  0.00  0.00    +0.000 C 
BRANCH  23  24
ATOM     24  C   UNL     1       3.160   3.045  19.436  0.00  0.00    +0.000 A 
ATOM     25  C   UNL     1       3.405   2.690  20.785  0.00  0.00    +0.000 A 
ATOM     26  C   UNL     1       2.368   2.620  21.718  0.00  0.00    +0.000 A 
ATOM     27  C   UNL     1       1.058   2.884  21.328  0.00  0.00    +0.000 A 
ATOM     28  C   UNL     1       0.781   3.216  20.004  0.00  0.00    +0.000 A 
ATOM     29  C   UNL     1       1.815   3.302  19.055  0.00  0.00    +0.000 A 
ATOM     30 CL   UNL     1       1.367   3.733  17.409  0.00  0.00    +0.000 Cl
ENDBRANCH  23  24
BRANCH  23  31
ATOM     31  O   UNL     1       5.558   3.088  19.168  0.00  0.00    +0.000 OA
ATOM     32  H   UNL     1       6.273   3.500  18.619  0.00  0.00    +0.000 HD
ENDBRANCH  23  31
ENDBRANCH   1  23
TORSDOF 8
ENDMDL
MODEL 4
REMARK VINA RESULT:      -7.5      3.581     10.137
REMARK  Name = 
REMARK  9 active torsions:
REMARK  status: ('A' for Active; 'I' for Inactive)
REMARK    1  A    between atoms: C_1  and  O_2
REMARK    2  A    between atoms: O_2  and  C_3
REMARK    3  A    between atoms: C_6  and  C_7
REMARK    4  A    between atoms: C_7  and  N_8
REMARK    5  A    between atoms: N_11  and  C_12
REMARK    6  A    between atoms: C_12  and  C_13
REMARK    7  A    between atoms: C_12  and  C_19
REMARK    8  A    between atoms: C_19  and  O_20
REMARK    9  A    between atoms: C_19  and  C_21
REMARK                            x       y       z     vdW  Elec       q    Type
REMARK                         _______ _______ _______ _____ _____    ______ ____
ROOT
ATOM      1  C   UNL     1      -1.643  12.162  21.266  0.00  0.00    +0.000 C 
ENDROOT
BRANCH   1   5
ATOM      2  N   UNL     1       0.769   9.319  20.017  0.00  0.00    +0.000 NA
ATOM      3  C   UNL     1      -0.466   9.403  20.807  0.00  0.00    +0.000 C 
ATOM      4  C   UNL     1      -0.192  10.345  22.007  0.00  0.00    +0.000 C 
ATOM      5  N   UNL     1      -0.215  11.747  21.547  0.00  0.00    +0.000 NA
ATOM      6  C   UNL     1       0.921  11.887  20.577  0.00  0.00    +0.000 C 
ATOM      7  C   UNL     1       1.118  10.695  19.549  0.00  0.00    +0.000 C 
BRANCH   2   8
ATOM      8  C   UNL     1       1.576   8.252  20.706  0.00  0.00    +0.000 C 
BRANCH   8  12
ATOM      9  C   UNL     1       2.162   4.501  18.744  0.00  0.00    +0.000 A 
ATOM     10  C   UNL     1       1.696   4.517  20.081  0.00  0.00    +0.000 A 
ATOM     11  C   UNL     1       1.599   5.715  20.790  0.00  0.00    +0.000 A 
ATOM     12  C   UNL     1       1.989   6.909  20.189  0.00  0.00    +0.000 A 
ATOM     13  C   UNL     1       2.511   6.881  18.873  0.00  0.00    +0.000 A 
ATOM     14  C   UNL     1       2.603   5.686  18.165  0.00  0.00    +0.000 A 
BRANCH   9  16
ATOM     15  C   UNL     1       3.218   2.608  17.671  0.00  0.00    +0.000 C 
ATOM     16  O   UNL     1       2.115   3.379  17.981  0.00  0.00    +0.000 OA
ENDBRANCH   9  16
ENDBRANCH   8  12
ENDBRANCH   2   8
ENDBRANCH   1   5
BRANCH   1  17
ATOM     17  C   UNL     1      -2.126  12.989  22.468  0.00  0.00    +0.000 A 
ATOM     18  C   UNL     1      -1.301  13.964  23.065  0.00  0.00    +0.000 A 
ATOM     19  C   UNL     1      -1.699  14.602  24.248  0.00  0.00    +0.000 A 
ATOM     20  C   UNL     1      -2.919  14.272  24.844  0.00  0.00    +0.000 A 
ATOM     21  C   UNL     1      -3.746  13.314  24.256  0.00  0.00    +0.000 A 
ATOM     22  C   UNL     1      -3.359  12.678  23.075  0.00  0.00    +0.000 A 
ENDBRANCH   1  17
BRANCH   1  23
ATOM     23  C   UNL     1      -1.949  12.951  19.946  0.00  0.00    +0.000 C 
BRANCH  23  24
ATOM     24  C   UNL     1      -2.514  11.983  18.876  0.00  0.00    +0.000 A 
ATOM     25  C   UNL     1      -1.629  11.370  17.955  0.00  0.00    +0.000 A 
ATOM     26  C   UNL     1      -2.087  10.445  17.013  0.00  0.00    +0.000 A 
ATOM     27  C   UNL     1      -3.439  10.121  16.951  0.00  0.00    +0.000 A 
ATOM     28  C   UNL     1      -4.339  10.723  17.829  0.00  0.00    +0.000 A 
ATOM     29  C   UNL     1      -3.893  11.647  18.791  0.00  0.00    +0.000 A 
ATOM     30 CL   UNL     1      -5.103  12.349  19.858  0.00  0.00    +0.000 Cl
ENDBRANCH  23  24
BRANCH  23  31
ATOM     31  O   UNL     1      -0.803  13.586  19.444  0.00  0.00    +0.000 OA
ATOM     32  H   UNL     1      -1.050  14.509  19.180  0.00  0.00    +0.000 HD
ENDBRANCH  23  31
ENDBRANCH   1  23
TORSDOF 8
ENDMDL
MODEL 5
REMARK VINA RESULT:      -7.4      1.656      4.622
REMARK  Name = 
REMARK  9 active torsions:
REMARK  status: ('A' for Active; 'I' for Inactive)
REMARK    1  A    between atoms: C_1  and  O_2
REMARK    2  A    between atoms: O_2  and  C_3
REMARK    3  A    between atoms: C_6  and  C_7
REMARK    4  A    between atoms: C_7  and  N_8
REMARK    5  A    between atoms: N_11  and  C_12
REMARK    6  A    between atoms: C_12  and  C_13
REMARK    7  A    between atoms: C_12  and  C_19
REMARK    8  A    between atoms: C_19  and  O_20
REMARK    9  A    between atoms: C_19  and  C_21
REMARK                            x       y       z     vdW  Elec       q    Type
REMARK                         _______ _______ _______ _____ _____    ______ ____
ROOT
ATOM      1  C   UNL     1       4.021   5.164  19.025  0.00  0.00    +0.000 C 
ENDROOT
BRANCH   1   5
ATOM      2  N   UNL     1       2.567   8.739  18.274  0.00  0.00    +0.000 NA
ATOM      3  C   UNL     1       2.181   7.576  19.083  0.00  0.00    +0.000 C 
ATOM      4  C   UNL     1       2.087   6.354  18.133  0.00  0.00    +0.000 C 
ATOM      5  N   UNL     1       3.445   5.870  17.817  0.00  0.00    +0.000 NA
ATOM      6  C   UNL     1       4.123   6.985  17.076  0.00  0.00    +0.000 C 
ATOM      7  C   UNL     1       3.891   8.449  17.642  0.00  0.00    +0.000 C 
BRANCH   2   8
ATOM      8  C   UNL     1       1.267   9.243  17.709  0.00  0.00    +0.000 C 
BRANCH   8  12
ATOM      9  C   UNL     1      -1.959  11.550  19.301  0.00  0.00    +0.000 A 
ATOM     10  C   UNL     1      -0.803  11.340  20.092  0.00  0.00    +0.000 A 
ATOM     11  C   UNL     1       0.222  10.501  19.651  0.00  0.00    +0.000 A 
ATOM     12  C   UNL     1       0.099   9.840  18.431  0.00  0.00    +0.000 A 
ATOM     13  C   UNL     1      -1.085  10.007  17.672  0.00  0.00    +0.000 A 
ATOM     14  C   UNL     1      -2.104  10.847  18.110  0.00  0.00    +0.000 A 
BRANCH   9  16
ATOM     15  C   UNL     1      -2.711  13.452  20.591  0.00  0.00    +0.000 C 
ATOM     16  O   UNL     1      -2.893  12.480  19.628  0.00  0.00    +0.000 OA
ENDBRANCH   9  16
ENDBRANCH   8  12
ENDBRANCH   2   8
ENDBRANCH   1   5
BRANCH   1  17
ATOM     17  C   UNL     1       3.009   4.090  19.455  0.00  0.00    +0.000 A 
ATOM     18  C   UNL     1       2.430   3.211  18.516  0.00  0.00    +0.000 A 
ATOM     19  C   UNL     1       1.401   2.340  18.901  0.00  0.00    +0.000 A 
ATOM     20  C   UNL     1       0.942   2.340  20.220  0.00  0.00    +0.000 A 
ATOM     21  C   UNL     1       1.513   3.200  21.158  0.00  0.00    +0.000 A 
ATOM     22  C   UNL     1       2.542   4.068  20.784  0.00  0.00    +0.000 A 
ENDBRANCH   1  17
BRANCH   1  23
ATOM     23  C   UNL     1       5.440   4.509  18.905  0.00  0.00    +0.000 C 
BRANCH  23  24
ATOM     24  C   UNL     1       5.913   4.548  17.430  0.00  0.00    +0.000 A 
ATOM     25  C   UNL     1       5.322   3.673  16.486  0.00  0.00    +0.000 A 
ATOM     26  C   UNL     1       5.675   3.716  15.135  0.00  0.00    +0.000 A 
ATOM     27  C   UNL     1       6.638   4.619  14.692  0.00  0.00    +0.000 A 
ATOM     28  C   UNL     1       7.253   5.479  15.599  0.00  0.00    +0.000 A 
ATOM     29  C   UNL     1       6.901   5.457  16.960  0.00  0.00    +0.000 A 
ATOM     30 CL   UNL     1       7.729   6.584  18.027  0.00  0.00    +0.000 Cl
ENDBRANCH  23  24
BRANCH  23  31
ATOM     31  O   UNL     1       5.440   3.182  19.361  0.00  0.00    +0.000 OA
ATOM     32  H   UNL     1       6.301   3.011  19.822  0.00  0.00    +0.000 HD
ENDBRANCH  23  31
ENDBRANCH   1  23
TORSDOF 8
ENDMDL
MODEL 6
REMARK VINA RESULT:      -7.2      1.901      2.180
REMARK  Name = 
REMARK  9 active torsions:
REMARK  status: ('A' for Active; 'I' for Inactive)
REMARK    1  A    between atoms: C_1  and  O_2
REMARK    2  A    between atoms: O_2  and  C_3
REMARK    3  A    between atoms: C_6  and  C_7
REMARK    4  A    between atoms: C_7  and  N_8
REMARK    5  A    between atoms: N_11  and  C_12
REMARK    6  A    between atoms: C_12  and  C_13
REMARK    7  A    between atoms: C_12  and  C_19
REMARK    8  A    between atoms: C_19  and  O_20
REMARK    9  A    between atoms: C_19  and  C_21
REMARK                            x       y       z     vdW  Elec       q    Type
REMARK                         _______ _______ _______ _____ _____    ______ ____
ROOT
ATOM      1  C   UNL     1       4.384   4.574  17.048  0.00  0.00    +0.000 C 
ENDROOT
BRANCH   1   5
ATOM      2  N   UNL     1       2.222   6.950  19.316  0.00  0.00    +0.000 NA
ATOM      3  C   UNL     1       2.300   6.614  17.889  0.00  0.00    +0.000 C 
ATOM      4  C   UNL     1       3.749   6.901  17.419  0.00  0.00    +0.000 C 
ATOM      5  N   UNL     1       4.640   5.816  17.875  0.00  0.00    +0.000 NA
ATOM      6  C   UNL     1       4.620   5.863  19.374  0.00  0.00    +0.000 C 
ATOM      7  C   UNL     1       3.204   6.094  20.052  0.00  0.00    +0.000 C 
BRANCH   2   8
ATOM      8  C   UNL     1       1.963   8.431  19.334  0.00  0.00    +0.000 C 
BRANCH   8  12
ATOM      9  C   UNL     1      -0.381  10.992  21.827  0.00  0.00    +0.000 A 
ATOM     10  C   UNL     1      -0.280   9.616  22.148  0.00  0.00    +0.000 A 
ATOM     11  C   UNL     1       0.383   8.730  21.297  0.00  0.00    +0.000 A 
ATOM     12  C   UNL     1       0.931   9.194  20.105  0.00  0.00    +0.000 A 
ATOM     13  C   UNL     1       0.776  10.559  19.759  0.00  0.00    +0.000 A 
ATOM     14  C   UNL     1       0.118  11.443  20.610  0.00  0.00    +0.000 A 
BRANCH   9  16
ATOM     15  C   UNL     1      -2.148  11.844  23.240  0.00  0.00    +0.000 C 
ATOM     16  O   UNL     1      -0.876  11.900  22.705  0.00  0.00    +0.000 OA
ENDBRANCH   9  16
ENDBRANCH   8  12
ENDBRANCH   2   8
ENDBRANCH   1   5
BRANCH   1  17
ATOM     17  C   UNL     1       5.430   4.549  15.922  0.00  0.00    +0.000 A 
ATOM     18  C   UNL     1       6.652   5.241  16.042  0.00  0.00    +0.000 A 
ATOM     19  C   UNL     1       7.527   5.331  14.950  0.00  0.00    +0.000 A 
ATOM     20  C   UNL     1       7.189   4.734  13.733  0.00  0.00    +0.000 A 
ATOM     21  C   UNL     1       5.985   4.039  13.606  0.00  0.00    +0.000 A 
ATOM     22  C   UNL     1       5.111   3.942  14.691  0.00  0.00    +0.000 A 
ENDBRANCH   1  17
BRANCH   1  23
ATOM     23  C   UNL     1       4.376   3.182  17.769  0.00  0.00    +0.000 C 
BRANCH  23  24
ATOM     24  C   UNL     1       3.054   3.009  18.559  0.00  0.00    +0.000 A 
ATOM     25  C   UNL     1       1.823   3.323  17.935  0.00  0.00    +0.000 A 
ATOM     26  C   UNL     1       0.604   3.124  18.590  0.00  0.00    +0.000 A 
ATOM     27  C   UNL     1       0.582   2.625  19.889  0.00  0.00    +0.000 A 
ATOM     28  C   UNL     1       1.778   2.326  20.539  0.00  0.00    +0.000 A 
ATOM     29  C   UNL     1       3.012   2.509  19.890  0.00  0.00    +0.000 A 
ATOM     30 CL   UNL     1       4.466   2.098  20.790  0.00  0.00    +0.000 Cl
ENDBRANCH  23  24
BRANCH  23  31
ATOM     31  O   UNL     1       5.465   3.044  18.643  0.00  0.00    +0.000 OA
ATOM     32  H   UNL     1       5.113   2.839  19.547  0.00  0.00    +0.000 HD
ENDBRANCH  23  31
ENDBRANCH   1  23
TORSDOF 8
ENDMDL
MODEL 7
REMARK VINA RESULT:      -7.2      1.225      1.895
REMARK  Name = 
REMARK  9 active torsions:
REMARK  status: ('A' for Active; 'I' for Inactive)
REMARK    1  A    between atoms: C_1  and  O_2
REMARK    2  A    between atoms: O_2  and  C_3
REMARK    3  A    between atoms: C_6  and  C_7
REMARK    4  A    between atoms: C_7  and  N_8
REMARK    5  A    between atoms: N_11  and  C_12
REMARK    6  A    between atoms: C_12  and  C_13
REMARK    7  A    between atoms: C_12  and  C_19
REMARK    8  A    between atoms: C_19  and  O_20
REMARK    9  A    between atoms: C_19  and  C_21
REMARK                            x       y       z     vdW  Elec       q    Type
REMARK                         _______ _______ _______ _____ _____    ______ ____
ROOT
ATOM      1  C   UNL     1       4.301   4.784  17.038  0.00  0.00    +0.000 C 
ENDROOT
BRANCH   1   5
ATOM      2  N   UNL     1       2.098   7.269  19.143  0.00  0.00    +0.000 NA
ATOM      3  C   UNL     1       2.276   6.937  17.724  0.00  0.00    +0.000 C 
ATOM      4  C   UNL     1       3.773   7.142  17.379  0.00  0.00    +0.000 C 
ATOM      5  N   UNL     1       4.558   6.004  17.896  0.00  0.00    +0.000 NA
ATOM      6  C   UNL     1       4.415   6.042  19.389  0.00  0.00    +0.000 C 
ATOM      7  C   UNL     1       2.963   6.352  19.949  0.00  0.00    +0.000 C 
BRANCH   2   8
ATOM      8  C   UNL     1       1.925   8.763  19.156  0.00  0.00    +0.000 C 
BRANCH   8  12
ATOM      9  C   UNL     1      -1.238  11.609  19.558  0.00  0.00    +0.000 A 
ATOM     10  C   UNL     1      -0.500  11.227  20.705  0.00  0.00    +0.000 A 
ATOM     11  C   UNL     1       0.464  10.220  20.634  0.00  0.00    +0.000 A 
ATOM     12  C   UNL     1       0.688   9.561  19.428  0.00  0.00    +0.000 A 
ATOM     13  C   UNL     1      -0.094   9.905  18.297  0.00  0.00    +0.000 A 
ATOM     14  C   UNL     1      -1.052  10.913  18.369  0.00  0.00    +0.000 A 
BRANCH   9  16
ATOM     15  C   UNL     1      -3.246  12.754  20.267  0.00  0.00    +0.000 C 
ATOM     16  O   UNL     1      -2.061  12.688  19.561  0.00  0.00    +0.000 OA
ENDBRANCH   9  16
ENDBRANCH   8  12
ENDBRANCH   2   8
ENDBRANCH   1   5
BRANCH   1  17
ATOM     17  C   UNL     1       5.313   4.816  15.881  0.00  0.00    +0.000 A 
ATOM     18  C   UNL     1       5.081   4.106  14.684  0.00  0.00    +0.000 A 
ATOM     19  C   UNL     1       6.078   4.026  13.703  0.00  0.00    +0.000 A 
ATOM     20  C   UNL     1       7.311   4.649  13.907  0.00  0.00    +0.000 A 
ATOM     21  C   UNL     1       7.548   5.361  15.084  0.00  0.00    +0.000 A 
ATOM     22  C   UNL     1       6.558   5.449  16.064  0.00  0.00    +0.000 A 
ENDBRANCH   1  17
BRANCH   1  23
ATOM     23  C   UNL     1       4.339   3.370  17.712  0.00  0.00    +0.000 C 
BRANCH  23  24
ATOM     24  C   UNL     1       3.044   3.144  18.532  0.00  0.00    +0.000 A 
ATOM     25  C   UNL     1       1.791   3.477  17.961  0.00  0.00    +0.000 A 
ATOM     26  C   UNL     1       0.595   3.234  18.640  0.00  0.00    +0.000 A 
ATOM     27  C   UNL     1       0.616   2.671  19.913  0.00  0.00    +0.000 A 
ATOM     28  C   UNL     1       1.833   2.351  20.511  0.00  0.00    +0.000 A 
ATOM     29  C   UNL     1       3.045   2.578  19.836  0.00  0.00    +0.000 A 
ATOM     30 CL   UNL     1       4.529   2.137  20.672  0.00  0.00    +0.000 Cl
ENDBRANCH  23  24
BRANCH  23  31
ATOM     31  O   UNL     1       5.455   3.226  18.552  0.00  0.00    +0.000 OA
ATOM     32  H   UNL     1       5.198   3.525  19.462  0.00  0.00    +0.000 HD
ENDBRANCH  23  31
ENDBRANCH   1  23
TORSDOF 8
ENDMDL
MODEL 8
REMARK VINA RESULT:      -7.2      3.609     10.414
REMARK  Name = 
REMARK  9 active torsions:
REMARK  status: ('A' for Active; 'I' for Inactive)
REMARK    1  A    between atoms: C_1  and  O_2
REMARK    2  A    between atoms: O_2  and  C_3
REMARK    3  A    between atoms: C_6  and  C_7
REMARK    4  A    between atoms: C_7  and  N_8
REMARK    5  A    between atoms: N_11  and  C_12
REMARK    6  A    between atoms: C_12  and  C_13
REMARK    7  A    between atoms: C_12  and  C_19
REMARK    8  A    between atoms: C_19  and  O_20
REMARK    9  A    between atoms: C_19  and  C_21
REMARK                            x       y       z     vdW  Elec       q    Type
REMARK                         _______ _______ _______ _____ _____    ______ ____
ROOT
ATOM      1  C   UNL     1      -1.795  12.324  21.373  0.00  0.00    +0.000 C 
ENDROOT
BRANCH   1   5
ATOM      2  N   UNL     1       0.591   9.625  19.796  0.00  0.00    +0.000 NA
ATOM      3  C   UNL     1      -0.570   9.631  20.695  0.00  0.00    +0.000 C 
ATOM      4  C   UNL     1      -0.221  10.535  21.905  0.00  0.00    +0.000 C 
ATOM      5  N   UNL     1      -0.333  11.953  21.509  0.00  0.00    +0.000 NA
ATOM      6  C   UNL     1       0.705  12.173  20.448  0.00  0.00    +0.000 C 
ATOM      7  C   UNL     1       0.849  11.031  19.357  0.00  0.00    +0.000 C 
BRANCH   2   8
ATOM      8  C   UNL     1       1.493   8.564  20.365  0.00  0.00    +0.000 C 
BRANCH   8  12
ATOM      9  C   UNL     1       3.393   4.969  19.048  0.00  0.00    +0.000 A 
ATOM     10  C   UNL     1       3.352   6.089  18.180  0.00  0.00    +0.000 A 
ATOM     11  C   UNL     1       2.645   7.240  18.531  0.00  0.00    +0.000 A 
ATOM     12  C   UNL     1       1.948   7.284  19.735  0.00  0.00    +0.000 A 
ATOM     13  C   UNL     1       1.942   6.141  20.572  0.00  0.00    +0.000 A 
ATOM     14  C   UNL     1       2.651   4.995  20.223  0.00  0.00    +0.000 A 
BRANCH   9  16
ATOM     15  C   UNL     1       4.449   2.902  19.724  0.00  0.00    +0.000 C 
ATOM     16  O   UNL     1       4.200   3.905  18.808  0.00  0.00    +0.000 OA
ENDBRANCH   9  16
ENDBRANCH   8  12
ENDBRANCH   2   8
ENDBRANCH   1   5
BRANCH   1  17
ATOM     17  C   UNL     1      -2.210  13.035  22.671  0.00  0.00    +0.000 A 
ATOM     18  C   UNL     1      -3.482  12.829  23.244  0.00  0.00    +0.000 A 
ATOM     19  C   UNL     1      -3.898  13.596  24.342  0.00  0.00    +0.000 A 
ATOM     20  C   UNL     1      -3.051  14.572  24.873  0.00  0.00    +0.000 A 
ATOM     21  C   UNL     1      -1.787  14.777  24.318  0.00  0.00    +0.000 A 
ATOM     22  C   UNL     1      -1.364  14.014  23.228  0.00  0.00    +0.000 A 
ENDBRANCH   1  17
BRANCH   1  23
ATOM     23  C   UNL     1      -2.237  13.196  20.148  0.00  0.00    +0.000 C 
BRANCH  23  24
ATOM     24  C   UNL     1      -2.794  12.282  19.027  0.00  0.00    +0.000 A 
ATOM     25  C   UNL     1      -1.930  11.836  17.998  0.00  0.00    +0.000 A 
ATOM     26  C   UNL     1      -2.375  10.963  17.002  0.00  0.00    +0.000 A 
ATOM     27  C   UNL     1      -3.697  10.526  16.995  0.00  0.00    +0.000 A 
ATOM     28  C   UNL     1      -4.578  10.964  17.982  0.00  0.00    +0.000 A 
ATOM     29  C   UNL     1      -4.143  11.833  18.998  0.00  0.00    +0.000 A 
ATOM     30 CL   UNL     1      -5.328  12.326  20.201  0.00  0.00    +0.000 Cl
ENDBRANCH  23  24
BRANCH  23  31
ATOM     31  O   UNL     1      -1.172  13.958  19.643  0.00  0.00    +0.000 OA
ATOM     32  H   UNL     1      -0.517  14.098  20.374  0.00  0.00    +0.000 HD
ENDBRANCH  23  31
ENDBRANCH   1  23
TORSDOF 8
ENDMDL
MODEL 9
REMARK VINA RESULT:      -7.0      1.139      1.443
REMARK  Name = 
REMARK  9 active torsions:
REMARK  status: ('A' for Active; 'I' for Inactive)
REMARK    1  A    between atoms: C_1  and  O_2
REMARK    2  A    between atoms: O_2  and  C_3
REMARK    3  A    between atoms: C_6  and  C_7
REMARK    4  A    between atoms: C_7  and  N_8
REMARK    5  A    between atoms: N_11  and  C_12
REMARK    6  A    between atoms: C_12  and  C_13
REMARK    7  A    between atoms: C_12  and  C_19
REMARK    8  A    between atoms: C_19  and  O_20
REMARK    9  A    between atoms: C_19  and  C_21
REMARK                            x       y       z     vdW  Elec       q    Type
REMARK                         _______ _______ _______ _____ _____    ______ ____
ROOT
ATOM      1  C   UNL     1       4.395   4.647  17.152  0.00  0.00    +0.000 C 
ENDROOT
BRANCH   1   5
ATOM      2  N   UNL     1       2.176   7.529  18.646  0.00  0.00    +0.000 NA
ATOM      3  C   UNL     1       2.527   7.033  17.309  0.00  0.00    +0.000 C 
ATOM      4  C   UNL     1       4.072   7.066  17.188  0.00  0.00    +0.000 C 
ATOM      5  N   UNL     1       4.648   5.924  17.924  0.00  0.00    +0.000 NA
ATOM      6  C   UNL     1       4.290   6.134  19.367  0.00  0.00    +0.000 C 
ATOM      7  C   UNL     1       2.812   6.630  19.658  0.00  0.00    +0.000 C 
BRANCH   2   8
ATOM      8  C   UNL     1       2.161   9.025  18.493  0.00  0.00    +0.000 C 
BRANCH   8  12
ATOM      9  C   UNL     1      -1.309  11.310  19.497  0.00  0.00    +0.000 A 
ATOM     10  C   UNL     1      -1.339  10.472  18.355  0.00  0.00    +0.000 A 
ATOM     11  C   UNL     1      -0.192   9.798  17.933  0.00  0.00    +0.000 A 
ATOM     12  C   UNL     1       1.005   9.969  18.623  0.00  0.00    +0.000 A 
ATOM     13  C   UNL     1       1.045  10.855  19.728  0.00  0.00    +0.000 A 
ATOM     14  C   UNL     1      -0.101  11.523  20.151  0.00  0.00    +0.000 A 
BRANCH   9  16
ATOM     15  C   UNL     1      -2.583  13.183  20.344  0.00  0.00    +0.000 C 
ATOM     16  O   UNL     1      -2.439  11.848  20.022  0.00  0.00    +0.000 OA
ENDBRANCH   9  16
ENDBRANCH   8  12
ENDBRANCH   2   8
ENDBRANCH   1   5
BRANCH   1  17
ATOM     17  C   UNL     1       5.428   4.586  16.015  0.00  0.00    +0.000 A 
ATOM     18  C   UNL     1       6.702   5.175  16.150  0.00  0.00    +0.000 A 
ATOM     19  C   UNL     1       7.573   5.240  15.054  0.00  0.00    +0.000 A 
ATOM     20  C   UNL     1       7.181   4.721  13.818  0.00  0.00    +0.000 A 
ATOM     21  C   UNL     1       5.925   4.129  13.676  0.00  0.00    +0.000 A 
ATOM     22  C   UNL     1       5.053   4.056  14.764  0.00  0.00    +0.000 A 
ENDBRANCH   1  17
BRANCH   1  23
ATOM     23  C   UNL     1       4.408   3.285  17.928  0.00  0.00    +0.000 C 
BRANCH  23  24
ATOM     24  C   UNL     1       3.081   3.114  18.709  0.00  0.00    +0.000 A 
ATOM     25  C   UNL     1       1.861   3.499  18.102  0.00  0.00    +0.000 A 
ATOM     26  C   UNL     1       0.636   3.307  18.747  0.00  0.00    +0.000 A 
ATOM     27  C   UNL     1       0.596   2.742  20.018  0.00  0.00    +0.000 A 
ATOM     28  C   UNL     1       1.780   2.371  20.651  0.00  0.00    +0.000 A 
ATOM     29  C   UNL     1       3.020   2.548  20.012  0.00  0.00    +0.000 A 
ATOM     30 CL   UNL     1       4.460   2.045  20.890  0.00  0.00    +0.000 Cl
ENDBRANCH  23  24
BRANCH  23  31
ATOM     31  O   UNL     1       5.489   3.207  18.820  0.00  0.00    +0.000 OA
ATOM     32  H   UNL     1       5.342   2.431  19.419  0.00  0.00    +0.000 HD
ENDBRANCH  23  31
ENDBRANCH   1  23
TORSDOF 8
ENDMDL
