MODEL 1
REMARK VINA RESULT:      -7.0      0.000      0.000
REMARK  Name = 
REMARK  2 active torsions:
REMARK  status: ('A' for Active; 'I' for Inactive)
REMARK    1  A    between atoms: N_1  and  C_2
REMARK    2  A    between atoms: C_12  and  C_13
REMARK                            x       y       z     vdW  Elec       q    Type
REMARK                         _______ _______ _______ _____ _____    ______ ____
ROOT
ATOM      1  C   UNL     1       3.665   3.262  18.998  0.00  0.00    +0.000 A 
ATOM      2  N   UNL     1       3.420   2.447  20.036  0.00  0.00    +0.000 NA
ATOM      3  C   UNL     1       2.746   2.938  21.087  0.00  0.00    +0.000 A 
ATOM      4  N   UNL     1       2.275   4.179  21.250  0.00  0.00    +0.000 NA
ATOM      5  C   UNL     1       2.536   5.012  20.208  0.00  0.00    +0.000 A 
ATOM      6  C   UNL     1       3.237   4.589  19.080  0.00  0.00    +0.000 A 
ATOM      7  S   UNL     1       3.435   5.867  17.951  0.00  0.00    +0.000 S 
ATOM      8  C   UNL     1       2.572   6.952  18.931  0.00  0.00    +0.000 A 
ATOM      9  N   UNL     1       2.376   8.220  18.520  0.00  0.00    +0.000 NA
ATOM     10  C   UNL     1       1.632   8.961  19.375  0.00  0.00    +0.000 A 
ATOM     11  C   UNL     1       1.093   8.541  20.590  0.00  0.00    +0.000 A 
ATOM     12  C   UNL     1       1.371   7.223  20.976  0.00  0.00    +0.000 A 
ATOM     13  C   UNL     1       2.126   6.386  20.116  0.00  0.00    +0.000 A 
ENDROOT
BRANCH  11  14
ATOM     14  C   UNL     1       0.259   9.457  21.386  0.00  0.00    +0.000 A 
ATOM     15  C   UNL     1      -0.240   9.285  22.668  0.00  0.00    +0.000 A 
ATOM     16  C   UNL     1      -0.931  10.432  23.157  0.00  0.00    +0.000 A 
ATOM     17  C   UNL     1      -0.961  11.446  22.228  0.00  0.00    +0.000 A 
ATOM     18  S   UNL     1      -0.160  11.012  20.784  0.00  0.00    +0.000 S 
ENDBRANCH  11  14
BRANCH   1  19
ATOM     19  N   UNL     1       4.314   2.733  17.898  0.00  0.00    +0.000 N 
ATOM     20  H   UNL     1       4.034   1.791  17.664  0.00  0.00    +0.000 HD
ATOM     21  H   UNL     1       5.275   3.007  17.741  0.00  0.00    +0.000 HD
ENDBRANCH   1  19
TORSDOF 2
ENDMDL
MODEL 2
REMARK VINA RESULT:      -6.9      5.064      7.790
REMARK  Name = 
REMARK  2 active torsions:
REMARK  status: ('A' for Active; 'I' for Inactive)
REMARK    1  A    between atoms: N_1  and  C_2
REMARK    2  A    between atoms: C_12  and  C_13
REMARK                            x       y       z     vdW  Elec       q    Type
REMARK                         _______ _______ _______ _____ _____    ______ ____
ROOT
ATOM      1  C   UNL     1       2.121   3.049  20.498  0.00  0.00    +0.000 A 
ATOM      2  N   UNL     1       0.959   2.682  19.935  0.00  0.00    +0.000 NA
ATOM      3  C   UNL     1       0.882   2.649  18.596  0.00  0.00    +0.000 A 
ATOM      4  N   UNL     1       1.840   2.951  17.713  0.00  0.00    +0.000 NA
ATOM      5  C   UNL     1       3.013   3.340  18.280  0.00  0.00    +0.000 A 
ATOM      6  C   UNL     1       3.179   3.412  19.662  0.00  0.00    +0.000 A 
ATOM      7  S   UNL     1       4.753   3.959  20.075  0.00  0.00    +0.000 S 
ATOM      8  C   UNL     1       5.215   4.063  18.445  0.00  0.00    +0.000 A 
ATOM      9  N   UNL     1       6.460   4.461  18.122  0.00  0.00    +0.000 NA
ATOM     10  C   UNL     1       6.707   4.452  16.791  0.00  0.00    +0.000 A 
ATOM     11  C   UNL     1       5.817   4.095  15.781  0.00  0.00    +0.000 A 
ATOM     12  C   UNL     1       4.525   3.731  16.184  0.00  0.00    +0.000 A 
ATOM     13  C   UNL     1       4.207   3.697  17.565  0.00  0.00    +0.000 A 
ENDROOT
BRANCH  11  14
ATOM     14  C   UNL     1       6.256   4.089  14.374  0.00  0.00    +0.000 A 
ATOM     15  C   UNL     1       5.725   3.390  13.302  0.00  0.00    +0.000 A 
ATOM     16  C   UNL     1       6.354   3.707  12.062  0.00  0.00    +0.000 A 
ATOM     17  C   UNL     1       7.363   4.628  12.221  0.00  0.00    +0.000 A 
ATOM     18  S   UNL     1       7.544   5.101  13.851  0.00  0.00    +0.000 S 
ENDBRANCH  11  14
BRANCH   1  19
ATOM     19  N   UNL     1       2.206   3.031  21.878  0.00  0.00    +0.000 N 
ATOM     20  H   UNL     1       1.320   2.902  22.347  0.00  0.00    +0.000 HD
ATOM     21  H   UNL     1       2.906   3.615  22.315  0.00  0.00    +0.000 HD
ENDBRANCH   1  19
TORSDOF 2
ENDMDL
MODEL 3
REMARK VINA RESULT:      -6.8      4.979      6.871
REMARK  Name = 
REMARK  2 active torsions:
REMARK  status: ('A' for Active; 'I' for Inactive)
REMARK    1  A    between atoms: N_1  and  C_2
REMARK    2  A    between atoms: C_12  and  C_13
REMARK                            x       y       z     vdW  Elec       q    Type
REMARK                         _______ _______ _______ _____ _____    ______ ____
ROOT
ATOM      1  C   UNL     1       7.578   5.074  13.445  0.00  0.00    +0.000 A 
ATOM      2  N   UNL     1       7.093   4.293  12.467  0.00  0.00    +0.000 NA
ATOM      3  C   UNL     1       6.008   3.548  12.726  0.00  0.00    +0.000 A 
ATOM      4  N   UNL     1       5.322   3.469  13.872  0.00  0.00    +0.000 NA
ATOM      5  C   UNL     1       5.821   4.246  14.870  0.00  0.00    +0.000 A 
ATOM      6  C   UNL     1       6.950   5.044  14.693  0.00  0.00    +0.000 A 
ATOM      7  S   UNL     1       7.354   5.884  16.134  0.00  0.00    +0.000 S 
ATOM      8  C   UNL     1       6.030   5.224  16.967  0.00  0.00    +0.000 A 
ATOM      9  N   UNL     1       5.807   5.561  18.251  0.00  0.00    +0.000 NA
ATOM     10  C   UNL     1       4.691   5.000  18.776  0.00  0.00    +0.000 A 
ATOM     11  C   UNL     1       3.810   4.136  18.129  0.00  0.00    +0.000 A 
ATOM     12  C   UNL     1       4.125   3.795  16.807  0.00  0.00    +0.000 A 
ATOM     13  C   UNL     1       5.267   4.365  16.190  0.00  0.00    +0.000 A 
ENDROOT
BRANCH  11  14
ATOM     14  C   UNL     1       2.607   3.648  18.825  0.00  0.00    +0.000 A 
ATOM     15  C   UNL     1       1.548   2.911  18.317  0.00  0.00    +0.000 A 
ATOM     16  C   UNL     1       0.601   2.534  19.313  0.00  0.00    +0.000 A 
ATOM     17  C   UNL     1       0.949   3.009  20.556  0.00  0.00    +0.000 A 
ATOM     18  S   UNL     1       2.406   3.899  20.514  0.00  0.00    +0.000 S 
ENDBRANCH  11  14
BRANCH   1  19
ATOM     19  N   UNL     1       8.665   5.876  13.155  0.00  0.00    +0.000 N 
ATOM     20  H   UNL     1       9.333   5.458  12.521  0.00  0.00    +0.000 HD
ATOM     21  H   UNL     1       9.007   6.490  13.882  0.00  0.00    +0.000 HD
ENDBRANCH   1  19
TORSDOF 2
ENDMDL
MODEL 4
REMARK VINA RESULT:      -6.8      5.073      7.794
REMARK  Name = 
REMARK  2 active torsions:
REMARK  status: ('A' for Active; 'I' for Inactive)
REMARK    1  A    between atoms: N_1  and  C_2
REMARK    2  A    between atoms: C_12  and  C_13
REMARK                            x       y       z     vdW  Elec       q    Type
REMARK                         _______ _______ _______ _____ _____    ______ ____
ROOT
ATOM      1  C   UNL     1       2.169   3.055  20.314  0.00  0.00    +0.000 A 
ATOM      2  N   UNL     1       1.009   2.806  19.688  0.00  0.00    +0.000 NA
ATOM      3  C   UNL     1       0.970   2.913  18.351  0.00  0.00    +0.000 A 
ATOM      4  N   UNL     1       1.967   3.257  17.528  0.00  0.00    +0.000 NA
ATOM      5  C   UNL     1       3.139   3.527  18.161  0.00  0.00    +0.000 A 
ATOM      6  C   UNL     1       3.268   3.449  19.547  0.00  0.00    +0.000 A 
ATOM      7  S   UNL     1       4.852   3.873  20.052  0.00  0.00    +0.000 S 
ATOM      8  C   UNL     1       5.366   4.121  18.453  0.00  0.00    +0.000 A 
ATOM      9  N   UNL     1       6.637   4.487  18.204  0.00  0.00    +0.000 NA
ATOM     10  C   UNL     1       6.924   4.602  16.886  0.00  0.00    +0.000 A 
ATOM     11  C   UNL     1       6.048   4.394  15.822  0.00  0.00    +0.000 A 
ATOM     12  C   UNL     1       4.729   4.055  16.154  0.00  0.00    +0.000 A 
ATOM     13  C   UNL     1       4.369   3.896  17.516  0.00  0.00    +0.000 A 
ENDROOT
BRANCH  11  14
ATOM     14  C   UNL     1       6.527   4.511  14.434  0.00  0.00    +0.000 A 
ATOM     15  C   UNL     1       7.517   5.337  13.924  0.00  0.00    +0.000 A 
ATOM     16  C   UNL     1       7.779   5.107  12.542  0.00  0.00    +0.000 A 
ATOM     17  C   UNL     1       6.969   4.122  12.025  0.00  0.00    +0.000 A 
ATOM     18  S   UNL     1       5.907   3.486  13.200  0.00  0.00    +0.000 S 
ENDBRANCH  11  14
BRANCH   1  19
ATOM     19  N   UNL     1       2.213   2.892  21.686  0.00  0.00    +0.000 N 
ATOM     20  H   UNL     1       3.052   2.440  22.024  0.00  0.00    +0.000 HD
ATOM     21  H   UNL     1       1.342   2.722  22.169  0.00  0.00    +0.000 HD
ENDBRANCH   1  19
TORSDOF 2
ENDMDL
MODEL 5
REMARK VINA RESULT:      -6.7      3.000      6.883
REMARK  Name = 
REMARK  2 active torsions:
REMARK  status: ('A' for Active; 'I' for Inactive)
REMARK    1  A    between atoms: N_1  and  C_2
REMARK    2  A    between atoms: C_12  and  C_13
REMARK                            x       y       z     vdW  Elec       q    Type
REMARK                         _______ _______ _______ _____ _____    ______ ____
ROOT
ATOM      1  C   UNL     1      -0.205  11.527  21.911  0.00  0.00    +0.000 A 
ATOM      2  N   UNL     1      -0.451  10.894  23.069  0.00  0.00    +0.000 NA
ATOM      3  C   UNL     1      -0.095   9.605  23.179  0.00  0.00    +0.000 A 
ATOM      4  N   UNL     1       0.488   8.835  22.254  0.00  0.00    +0.000 NA
ATOM      5  C   UNL     1       0.723   9.468  21.074  0.00  0.00    +0.000 A 
ATOM      6  C   UNL     1       0.377  10.802  20.868  0.00  0.00    +0.000 A 
ATOM      7  S   UNL     1       0.770  11.312  19.277  0.00  0.00    +0.000 S 
ATOM      8  C   UNL     1       1.422   9.794  18.883  0.00  0.00    +0.000 A 
ATOM      9  N   UNL     1       1.942   9.583  17.659  0.00  0.00    +0.000 NA
ATOM     10  C   UNL     1       2.470   8.346  17.497  0.00  0.00    +0.000 A 
ATOM     11  C   UNL     1       2.502   7.324  18.444  0.00  0.00    +0.000 A 
ATOM     12  C   UNL     1       1.905   7.598  19.681  0.00  0.00    +0.000 A 
ATOM     13  C   UNL     1       1.354   8.881  19.925  0.00  0.00    +0.000 A 
ENDROOT
BRANCH  11  14
ATOM     14  C   UNL     1       3.160   6.044  18.129  0.00  0.00    +0.000 A 
ATOM     15  C   UNL     1       2.590   4.790  17.971  0.00  0.00    +0.000 A 
ATOM     16  C   UNL     1       3.530   3.795  17.573  0.00  0.00    +0.000 A 
ATOM     17  C   UNL     1       4.800   4.310  17.455  0.00  0.00    +0.000 A 
ATOM     18  S   UNL     1       4.850   5.976  17.821  0.00  0.00    +0.000 S 
ENDBRANCH  11  14
BRANCH   1  19
ATOM     19  N   UNL     1      -0.530  12.867  21.823  0.00  0.00    +0.000 N 
ATOM     20  H   UNL     1      -1.502  13.047  21.613  0.00  0.00    +0.000 HD
ATOM     21  H   UNL     1       0.169  13.499  21.458  0.00  0.00    +0.000 HD
ENDBRANCH   1  19
TORSDOF 2
ENDMDL
MODEL 6
REMARK VINA RESULT:      -6.7      1.669      1.966
REMARK  Name = 
REMARK  2 active torsions:
REMARK  status: ('A' for Active; 'I' for Inactive)
REMARK    1  A    between atoms: N_1  and  C_2
REMARK    2  A    between atoms: C_12  and  C_13
REMARK                            x       y       z     vdW  Elec       q    Type
REMARK                         _______ _______ _______ _____ _____    ______ ____
ROOT
ATOM      1  C   UNL     1       3.910   2.949  19.984  0.00  0.00    +0.000 A 
ATOM      2  N   UNL     1       3.242   2.528  21.069  0.00  0.00    +0.000 NA
ATOM      3  C   UNL     1       2.346   3.357  21.627  0.00  0.00    +0.000 A 
ATOM      4  N   UNL     1       2.023   4.596  21.237  0.00  0.00    +0.000 NA
ATOM      5  C   UNL     1       2.710   5.031  20.148  0.00  0.00    +0.000 A 
ATOM      6  C   UNL     1       3.665   4.240  19.511  0.00  0.00    +0.000 A 
ATOM      7  S   UNL     1       4.382   5.068  18.189  0.00  0.00    +0.000 S 
ATOM      8  C   UNL     1       3.413   6.440  18.440  0.00  0.00    +0.000 A 
ATOM      9  N   UNL     1       3.532   7.506  17.626  0.00  0.00    +0.000 NA
ATOM     10  C   UNL     1       2.666   8.508  17.909  0.00  0.00    +0.000 A 
ATOM     11  C   UNL     1       1.720   8.527  18.933  0.00  0.00    +0.000 A 
ATOM     12  C   UNL     1       1.679   7.402  19.768  0.00  0.00    +0.000 A 
ATOM     13  C   UNL     1       2.543   6.308  19.512  0.00  0.00    +0.000 A 
ENDROOT
BRANCH  11  14
ATOM     14  C   UNL     1       0.813   9.678  19.081  0.00  0.00    +0.000 A 
ATOM     15  C   UNL     1      -0.186  10.112  18.222  0.00  0.00    +0.000 A 
ATOM     16  C   UNL     1      -0.930  11.212  18.742  0.00  0.00    +0.000 A 
ATOM     17  C   UNL     1      -0.468  11.603  19.978  0.00  0.00    +0.000 A 
ATOM     18  S   UNL     1       0.848  10.649  20.499  0.00  0.00    +0.000 S 
ENDBRANCH  11  14
BRANCH   1  19
ATOM     19  N   UNL     1       4.793   2.069  19.386  0.00  0.00    +0.000 N 
ATOM     20  H   UNL     1       4.444   1.643  18.538  0.00  0.00    +0.000 HD
ATOM     21  H   UNL     1       5.400   1.529  19.987  0.00  0.00    +0.000 HD
ENDBRANCH   1  19
TORSDOF 2
ENDMDL
MODEL 7
REMARK VINA RESULT:      -6.6      2.890      6.845
REMARK  Name = 
REMARK  2 active torsions:
REMARK  status: ('A' for Active; 'I' for Inactive)
REMARK    1  A    between atoms: N_1  and  C_2
REMARK    2  A    between atoms: C_12  and  C_13
REMARK                            x       y       z     vdW  Elec       q    Type
REMARK                         _______ _______ _______ _____ _____    ______ ____
ROOT
ATOM      1  C   UNL     1      -0.230  11.482  21.728  0.00  0.00    +0.000 A 
ATOM      2  N   UNL     1      -0.466  10.958  22.941  0.00  0.00    +0.000 NA
ATOM      3  C   UNL     1      -0.064   9.701  23.181  0.00  0.00    +0.000 A 
ATOM      4  N   UNL     1       0.557   8.865  22.342  0.00  0.00    +0.000 NA
ATOM      5  C   UNL     1       0.782   9.387  21.107  0.00  0.00    +0.000 A 
ATOM      6  C   UNL     1       0.390  10.680  20.767  0.00  0.00    +0.000 A 
ATOM      7  S   UNL     1       0.783  11.044  19.136  0.00  0.00    +0.000 S 
ATOM      8  C   UNL     1       1.494   9.520  18.899  0.00  0.00    +0.000 A 
ATOM      9  N   UNL     1       2.036   9.209  17.707  0.00  0.00    +0.000 NA
ATOM     10  C   UNL     1       2.610   7.982  17.673  0.00  0.00    +0.000 A 
ATOM     11  C   UNL     1       2.668   7.061  18.716  0.00  0.00    +0.000 A 
ATOM     12  C   UNL     1       2.047   7.433  19.916  0.00  0.00    +0.000 A 
ATOM     13  C   UNL     1       1.448   8.713  20.026  0.00  0.00    +0.000 A 
ENDROOT
BRANCH  11  14
ATOM     14  C   UNL     1       3.375   5.782  18.535  0.00  0.00    +0.000 A 
ATOM     15  C   UNL     1       4.668   5.445  18.905  0.00  0.00    +0.000 A 
ATOM     16  C   UNL     1       4.982   4.076  18.655  0.00  0.00    +0.000 A 
ATOM     17  C   UNL     1       3.927   3.406  18.082  0.00  0.00    +0.000 A 
ATOM     18  S   UNL     1       2.574   4.422  17.852  0.00  0.00    +0.000 S 
ENDBRANCH  11  14
BRANCH   1  19
ATOM     19  N   UNL     1      -0.602  12.795  21.505  0.00  0.00    +0.000 N 
ATOM     20  H   UNL     1       0.010  13.299  20.878  0.00  0.00    +0.000 HD
ATOM     21  H   UNL     1      -1.036  13.298  22.267  0.00  0.00    +0.000 HD
ENDBRANCH   1  19
TORSDOF 2
ENDMDL
MODEL 8
REMARK VINA RESULT:      -6.5      2.459      3.488
REMARK  Name = 
REMARK  2 active torsions:
REMARK  status: ('A' for Active; 'I' for Inactive)
REMARK    1  A    between atoms: N_1  and  C_2
REMARK    2  A    between atoms: C_12  and  C_13
REMARK                            x       y       z     vdW  Elec       q    Type
REMARK                         _______ _______ _______ _____ _____    ______ ____
ROOT
ATOM      1  C   UNL     1       5.098   4.633  17.922  0.00  0.00    +0.000 A 
ATOM      2  N   UNL     1       5.631   4.883  16.716  0.00  0.00    +0.000 NA
ATOM      3  C   UNL     1       5.248   5.993  16.067  0.00  0.00    +0.000 A 
ATOM      4  N   UNL     1       4.368   6.916  16.473  0.00  0.00    +0.000 NA
ATOM      5  C   UNL     1       3.814   6.657  17.687  0.00  0.00    +0.000 A 
ATOM      6  C   UNL     1       4.146   5.523  18.426  0.00  0.00    +0.000 A 
ATOM      7  S   UNL     1       3.266   5.455  19.897  0.00  0.00    +0.000 S 
ATOM      8  C   UNL     1       2.484   6.927  19.572  0.00  0.00    +0.000 A 
ATOM      9  N   UNL     1       1.606   7.433  20.459  0.00  0.00    +0.000 NA
ATOM     10  C   UNL     1       1.095   8.634  20.096  0.00  0.00    +0.000 A 
ATOM     11  C   UNL     1       1.381   9.343  18.932  0.00  0.00    +0.000 A 
ATOM     12  C   UNL     1       2.271   8.739  18.033  0.00  0.00    +0.000 A 
ATOM     13  C   UNL     1       2.860   7.492  18.363  0.00  0.00    +0.000 A 
ENDROOT
BRANCH  11  14
ATOM     14  C   UNL     1       0.778  10.667  18.704  0.00  0.00    +0.000 A 
ATOM     15  C   UNL     1      -0.555  10.990  18.497  0.00  0.00    +0.000 A 
ATOM     16  C   UNL     1      -0.781  12.395  18.409  0.00  0.00    +0.000 A 
ATOM     17  C   UNL     1       0.387  13.110  18.530  0.00  0.00    +0.000 A 
ATOM     18  S   UNL     1       1.740  12.092  18.750  0.00  0.00    +0.000 S 
ENDBRANCH  11  14
BRANCH   1  19
ATOM     19  N   UNL     1       5.536   3.514  18.604  0.00  0.00    +0.000 N 
ATOM     20  H   UNL     1       5.440   3.576  19.609  0.00  0.00    +0.000 HD
ATOM     21  H   UNL     1       6.322   3.006  18.223  0.00  0.00    +0.000 HD
ENDBRANCH   1  19
TORSDOF 2
ENDMDL
MODEL 9
REMARK VINA RESULT:      -6.3      2.130      3.299
REMARK  Name = 
REMARK  2 active torsions:
REMARK  status: ('A' for Active; 'I' for Inactive)
REMARK    1  A    between atoms: N_1  and  C_2
REMARK    2  A    between atoms: C_12  and  C_13
REMARK                            x       y       z     vdW  Elec       q    Type
REMARK                         _______ _______ _______ _____ _____    ______ ____
ROOT
ATOM      1  C   UNL     1       5.379   4.470  16.321  0.00  0.00    +0.000 A 
ATOM      2  N   UNL     1       5.727   5.402  15.419  0.00  0.00    +0.000 NA
ATOM      3  C   UNL     1       5.228   6.640  15.557  0.00  0.00    +0.000 A 
ATOM      4  N   UNL     1       4.393   7.086  16.502  0.00  0.00    +0.000 NA
ATOM      5  C   UNL     1       4.026   6.140  17.407  0.00  0.00    +0.000 A 
ATOM      6  C   UNL     1       4.488   4.827  17.335  0.00  0.00    +0.000 A 
ATOM      7  S   UNL     1       3.830   3.863  18.593  0.00  0.00    +0.000 S 
ATOM      8  C   UNL     1       2.974   5.178  19.242  0.00  0.00    +0.000 A 
ATOM      9  N   UNL     1       2.220   5.012  20.345  0.00  0.00    +0.000 NA
ATOM     10  C   UNL     1       1.633   6.152  20.780  0.00  0.00    +0.000 A 
ATOM     11  C   UNL     1       1.732   7.415  20.198  0.00  0.00    +0.000 A 
ATOM     12  C   UNL     1       2.498   7.507  19.029  0.00  0.00    +0.000 A 
ATOM     13  C   UNL     1       3.159   6.356  18.532  0.00  0.00    +0.000 A 
ENDROOT
BRANCH  11  14
ATOM     14  C   UNL     1       1.069   8.572  20.824  0.00  0.00    +0.000 A 
ATOM     15  C   UNL     1       0.714   8.756  22.152  0.00  0.00    +0.000 A 
ATOM     16  C   UNL     1       0.173  10.050  22.411  0.00  0.00    +0.000 A 
ATOM     17  C   UNL     1       0.110  10.816  21.271  0.00  0.00    +0.000 A 
ATOM     18  S   UNL     1       0.700   9.978  19.905  0.00  0.00    +0.000 S 
ENDBRANCH  11  14
BRANCH   1  19
ATOM     19  N   UNL     1       5.938   3.212  16.200  0.00  0.00    +0.000 N 
ATOM     20  H   UNL     1       6.195   2.960  15.255  0.00  0.00    +0.000 HD
ATOM     21  H   UNL     1       5.607   2.487  16.822  0.00  0.00    +0.000 HD
ENDBRANCH   1  19
TORSDOF 2
ENDMDL
