MODEL 1
REMARK VINA RESULT:      -8.0      0.000      0.000
REMARK  Name = 
REMARK  8 active torsions:
REMARK  status: ('A' for Active; 'I' for Inactive)
REMARK    1  A    between atoms: C_1  and  C_2
REMARK    2  A    between atoms: C_2  and  C_3
REMARK    3  A    between atoms: C_2  and  C_4
REMARK    4  A    between atoms: C_4  and  C_5
REMARK    5  A    between atoms: C_11  and  C_12
REMARK    6  A    between atoms: N_18  and  C_19
REMARK    7  A    between atoms: C_19  and  C_20
REMARK    8  A    between atoms: C_19  and  C_21
REMARK                            x       y       z     vdW  Elec       q    Type
REMARK                         _______ _______ _______ _____ _____    ______ ____
ROOT
ATOM      1  C   UNL     1       2.392   4.979  20.289  0.00  0.00    +0.000 C 
ATOM      2  C   UNL     1       2.326   6.452  20.811  0.00  0.00    +0.000 C 
ATOM      3  N   UNL     1       1.897   7.130  19.625  0.00  0.00    +0.000 N 
ATOM      4  C   UNL     1       2.311   6.479  18.500  0.00  0.00    +0.000 C 
ATOM      5  N   UNL     1       2.459   7.189  17.428  0.00  0.00    +0.000 NA
ATOM      6  C   UNL     1       1.993   8.540  17.818  0.00  0.00    +0.000 C 
ATOM      7  C   UNL     1       1.973   8.542  19.367  0.00  0.00    +0.000 C 
ATOM      8  N   UNL     1       2.644   5.179  18.860  0.00  0.00    +0.000 N 
ENDROOT
BRANCH   7   9
ATOM      9  C   UNL     1       0.797   9.263  20.052  0.00  0.00    +0.000 C 
ATOM     10  C   UNL     1       0.397  10.580  19.359  0.00  0.00    +0.000 C 
ATOM     11  C   UNL     1      -0.697  11.329  20.081  0.00  0.00    +0.000 C 
ATOM     12  C   UNL     1      -0.294  11.555  21.540  0.00  0.00    +0.000 C 
ATOM     13  C   UNL     1      -0.010  10.269  22.255  0.00  0.00    +0.000 C 
ATOM     14  C   UNL     1       1.116   9.510  21.555  0.00  0.00    +0.000 C 
ENDBRANCH   7   9
BRANCH   8  15
ATOM     15  C   UNL     1       3.430   4.251  18.053  0.00  0.00    +0.000 C 
ATOM     16  C   UNL     1       2.705   3.932  16.731  0.00  0.00    +0.000 C 
BRANCH  15  17
ATOM     17  C   UNL     1       4.867   4.730  17.799  0.00  0.00    +0.000 C 
ATOM     18  C   UNL     1       5.894   3.875  17.208  0.00  0.00    +0.000 C 
ATOM     19  C   UNL     1       6.824   5.100  17.217  0.00  0.00    +0.000 C 
ATOM     20  C   UNL     1       5.800   6.719  17.754  0.00  0.00    +0.000 C 
ATOM     21  C   UNL     1       6.309   6.998  16.482  0.00  0.00    +0.000 C 
ATOM     22  C   UNL     1       7.563   7.194  17.818  0.00  0.00    +0.000 C 
ATOM     23  C   UNL     1       7.409   5.874  19.041  0.00  0.00    +0.000 C 
ATOM     24  C   UNL     1       7.971   4.833  18.159  0.00  0.00    +0.000 C 
ATOM     25  C   UNL     1       5.805   5.139  19.350  0.00  0.00    +0.000 C 
ATOM     26  C   UNL     1       4.918   5.951  16.357  0.00  0.00    +0.000 C 
ENDBRANCH  15  17
ENDBRANCH   8  15
BRANCH   1  27
ATOM     27  C   UNL     1       1.041   4.272  20.543  0.00  0.00    +0.000 C 
BRANCH  27  29
ATOM     28  C   UNL     1       1.167   1.927  19.513  0.00  0.00    +0.000 C 
ATOM     29  C   UNL     1       1.159   2.750  20.803  0.00  0.00    +0.000 C 
ATOM     30  C   UNL     1       2.424   2.439  21.607  0.00  0.00    +0.000 C 
ENDBRANCH  27  29
ENDBRANCH   1  27
TORSDOF 5
ENDMDL
MODEL 2
REMARK VINA RESULT:      -7.8      3.024      9.658
REMARK  Name = 
REMARK  8 active torsions:
REMARK  status: ('A' for Active; 'I' for Inactive)
REMARK    1  A    between atoms: C_1  and  C_2
REMARK    2  A    between atoms: C_2  and  C_3
REMARK    3  A    between atoms: C_2  and  C_4
REMARK    4  A    between atoms: C_4  and  C_5
REMARK    5  A    between atoms: C_11  and  C_12
REMARK    6  A    between atoms: N_18  and  C_19
REMARK    7  A    between atoms: C_19  and  C_20
REMARK    8  A    between atoms: C_19  and  C_21
REMARK                            x       y       z     vdW  Elec       q    Type
REMARK                         _______ _______ _______ _____ _____    ______ ____
ROOT
ATOM      1  C   UNL     1      -0.402  11.203  18.843  0.00  0.00    +0.000 C 
ATOM      2  C   UNL     1       0.611  10.051  18.535  0.00  0.00    +0.000 C 
ATOM      3  N   UNL     1       0.743   9.466  19.836  0.00  0.00    +0.000 N 
ATOM      4  C   UNL     1       0.535  10.387  20.821  0.00  0.00    +0.000 C 
ATOM      5  N   UNL     1       1.102  10.167  21.964  0.00  0.00    +0.000 NA
ATOM      6  C   UNL     1       1.741   8.841  21.805  0.00  0.00    +0.000 C 
ATOM      7  C   UNL     1       1.785   8.581  20.278  0.00  0.00    +0.000 C 
ATOM      8  N   UNL     1      -0.135  11.467  20.258  0.00  0.00    +0.000 N 
ENDROOT
BRANCH   7   9
ATOM      9  C   UNL     1       1.489   7.146  19.803  0.00  0.00    +0.000 C 
ATOM     10  C   UNL     1       1.583   6.095  20.926  0.00  0.00    +0.000 C 
ATOM     11  C   UNL     1       1.377   4.680  20.441  0.00  0.00    +0.000 C 
ATOM     12  C   UNL     1       2.350   4.378  19.300  0.00  0.00    +0.000 C 
ATOM     13  C   UNL     1       2.190   5.330  18.153  0.00  0.00    +0.000 C 
ATOM     14  C   UNL     1       2.423   6.765  18.618  0.00  0.00    +0.000 C 
ENDBRANCH   7   9
BRANCH   8  15
ATOM     15  C   UNL     1      -0.265  12.791  20.859  0.00  0.00    +0.000 C 
ATOM     16  C   UNL     1      -0.133  13.890  19.788  0.00  0.00    +0.000 C 
BRANCH  15  17
ATOM     17  C   UNL     1      -1.552  12.964  21.679  0.00  0.00    +0.000 C 
ATOM     18  C   UNL     1      -2.236  11.845  22.325  0.00  0.00    +0.000 C 
ATOM     19  C   UNL     1      -3.201  12.875  22.936  0.00  0.00    +0.000 C 
ATOM     20  C   UNL     1      -2.560  14.717  22.541  0.00  0.00    +0.000 C 
ATOM     21  C   UNL     1      -2.607  14.624  23.935  0.00  0.00    +0.000 C 
ATOM     22  C   UNL     1      -4.264  14.902  23.174  0.00  0.00    +0.000 C 
ATOM     23  C   UNL     1      -4.449  13.924  21.668  0.00  0.00    +0.000 C 
ATOM     24  C   UNL     1      -4.582  12.638  22.380  0.00  0.00    +0.000 C 
ATOM     25  C   UNL     1      -3.006  13.544  20.677  0.00  0.00    +0.000 C 
ATOM     26  C   UNL     1      -1.186  13.814  23.326  0.00  0.00    +0.000 C 
ENDBRANCH  15  17
ENDBRANCH   8  15
BRANCH   1  27
ATOM     27  C   UNL     1      -1.847  10.705  18.611  0.00  0.00    +0.000 C 
BRANCH  27  29
ATOM     28  C   UNL     1      -2.429  10.294  16.148  0.00  0.00    +0.000 C 
ATOM     29  C   UNL     1      -2.514  11.262  17.329  0.00  0.00    +0.000 C 
ATOM     30  C   UNL     1      -3.982  11.607  17.595  0.00  0.00    +0.000 C 
ENDBRANCH  27  29
ENDBRANCH   1  27
TORSDOF 5
ENDMDL
MODEL 3
REMARK VINA RESULT:      -7.6      7.299      9.328
REMARK  Name = 
REMARK  8 active torsions:
REMARK  status: ('A' for Active; 'I' for Inactive)
REMARK    1  A    between atoms: C_1  and  C_2
REMARK    2  A    between atoms: C_2  and  C_3
REMARK    3  A    between atoms: C_2  and  C_4
REMARK    4  A    between atoms: C_4  and  C_5
REMARK    5  A    between atoms: C_11  and  C_12
REMARK    6  A    between atoms: N_18  and  C_19
REMARK    7  A    between atoms: C_19  and  C_20
REMARK    8  A    between atoms: C_19  and  C_21
REMARK                            x       y       z     vdW  Elec       q    Type
REMARK                         _______ _______ _______ _____ _____    ______ ____
ROOT
ATOM      1  C   UNL     1       7.000  15.325  21.134  0.00  0.00    +0.000 C 
ATOM      2  C   UNL     1       5.543  15.889  21.046  0.00  0.00    +0.000 C 
ATOM      3  N   UNL     1       5.102  15.281  19.826  0.00  0.00    +0.000 N 
ATOM      4  C   UNL     1       6.145  15.052  18.977  0.00  0.00    +0.000 C 
ATOM      5  N   UNL     1       5.877  15.005  17.712  0.00  0.00    +0.000 NA
ATOM      6  C   UNL     1       4.403  15.131  17.646  0.00  0.00    +0.000 C 
ATOM      7  C   UNL     1       3.970  15.671  19.032  0.00  0.00    +0.000 C 
ATOM      8  N   UNL     1       7.317  15.093  19.723  0.00  0.00    +0.000 N 
ENDROOT
BRANCH   7   9
ATOM      9  C   UNL     1       2.680  15.090  19.639  0.00  0.00    +0.000 C 
ATOM     10  C   UNL     1       2.668  13.550  19.698  0.00  0.00    +0.000 C 
ATOM     11  C   UNL     1       1.368  12.979  20.214  0.00  0.00    +0.000 C 
ATOM     12  C   UNL     1       0.201  13.525  19.389  0.00  0.00    +0.000 C 
ATOM     13  C   UNL     1       0.138  15.022  19.416  0.00  0.00    +0.000 C 
ATOM     14  C   UNL     1       1.434  15.618  18.871  0.00  0.00    +0.000 C 
ENDBRANCH   7   9
BRANCH   8  15
ATOM     15  C   UNL     1       8.665  15.225  19.178  0.00  0.00    +0.000 C 
ATOM     16  C   UNL     1       9.500  16.205  20.024  0.00  0.00    +0.000 C 
BRANCH  15  17
ATOM     17  C   UNL     1       9.388  13.880  19.008  0.00  0.00    +0.000 C 
ATOM     18  C   UNL     1       8.713  12.673  18.534  0.00  0.00    +0.000 C 
ATOM     19  C   UNL     1      10.085  11.980  18.555  0.00  0.00    +0.000 C 
ATOM     20  C   UNL     1      11.510  13.315  18.939  0.00  0.00    +0.000 C 
ATOM     21  C   UNL     1      11.834  12.762  17.696  0.00  0.00    +0.000 C 
ATOM     22  C   UNL     1      12.297  11.674  19.110  0.00  0.00    +0.000 C 
ATOM     23  C   UNL     1      11.011  11.689  20.378  0.00  0.00    +0.000 C 
ATOM     24  C   UNL     1      10.061  10.883  19.589  0.00  0.00    +0.000 C 
ATOM     25  C   UNL     1      10.010  13.157  20.603  0.00  0.00    +0.000 C 
ATOM     26  C   UNL     1      10.550  13.931  17.518  0.00  0.00    +0.000 C 
ENDBRANCH  15  17
ENDBRANCH   8  15
BRANCH   1  27
ATOM     27  C   UNL     1       7.006  14.013  21.950  0.00  0.00    +0.000 C 
BRANCH  27  29
ATOM     28  C   UNL     1       8.338  12.883  23.827  0.00  0.00    +0.000 C 
ATOM     29  C   UNL     1       7.612  14.149  23.369  0.00  0.00    +0.000 C 
ATOM     30  C   UNL     1       8.580  15.334  23.427  0.00  0.00    +0.000 C 
ENDBRANCH  27  29
ENDBRANCH   1  27
TORSDOF 5
ENDMDL
MODEL 4
REMARK VINA RESULT:      -7.6      2.941      8.460
REMARK  Name = 
REMARK  8 active torsions:
REMARK  status: ('A' for Active; 'I' for Inactive)
REMARK    1  A    between atoms: C_1  and  C_2
REMARK    2  A    between atoms: C_2  and  C_3
REMARK    3  A    between atoms: C_2  and  C_4
REMARK    4  A    between atoms: C_4  and  C_5
REMARK    5  A    between atoms: C_11  and  C_12
REMARK    6  A    between atoms: N_18  and  C_19
REMARK    7  A    between atoms: C_19  and  C_20
REMARK    8  A    between atoms: C_19  and  C_21
REMARK                            x       y       z     vdW  Elec       q    Type
REMARK                         _______ _______ _______ _____ _____    ______ ____
ROOT
ATOM      1  C   UNL     1      -0.322  10.764  18.359  0.00  0.00    +0.000 C 
ATOM      2  C   UNL     1       0.914   9.809  18.261  0.00  0.00    +0.000 C 
ATOM      3  N   UNL     1       0.777   9.081  19.487  0.00  0.00    +0.000 N 
ATOM      4  C   UNL     1       0.155   9.827  20.444  0.00  0.00    +0.000 C 
ATOM      5  N   UNL     1       0.412   9.536  21.679  0.00  0.00    +0.000 NA
ATOM      6  C   UNL     1       1.282   8.340  21.598  0.00  0.00    +0.000 C 
ATOM      7  C   UNL     1       1.788   8.292  20.135  0.00  0.00    +0.000 C 
ATOM      8  N   UNL     1      -0.504  10.872  19.807  0.00  0.00    +0.000 N 
ENDROOT
BRANCH   7   9
ATOM      9  C   UNL     1       1.878   6.906  19.469  0.00  0.00    +0.000 C 
ATOM     10  C   UNL     1       1.890   5.740  20.476  0.00  0.00    +0.000 C 
ATOM     11  C   UNL     1       2.065   4.388  19.826  0.00  0.00    +0.000 C 
ATOM     12  C   UNL     1       3.319   4.394  18.950  0.00  0.00    +0.000 C 
ATOM     13  C   UNL     1       3.267   5.456  17.893  0.00  0.00    +0.000 C 
ATOM     14  C   UNL     1       3.120   6.835  18.533  0.00  0.00    +0.000 C 
ENDBRANCH   7   9
BRANCH   8  15
ATOM     15  C   UNL     1      -1.013  12.075  20.459  0.00  0.00    +0.000 C 
ATOM     16  C   UNL     1      -1.407  11.778  21.918  0.00  0.00    +0.000 C 
BRANCH  15  17
ATOM     17  C   UNL     1      -0.048  13.268  20.374  0.00  0.00    +0.000 C 
ATOM     18  C   UNL     1       0.038  14.291  21.414  0.00  0.00    +0.000 C 
ATOM     19  C   UNL     1       1.208  14.899  20.624  0.00  0.00    +0.000 C 
ATOM     20  C   UNL     1       1.703  13.697  19.118  0.00  0.00    +0.000 C 
ATOM     21  C   UNL     1       2.855  13.817  19.901  0.00  0.00    +0.000 C 
ATOM     22  C   UNL     1       2.571  15.275  18.808  0.00  0.00    +0.000 C 
ATOM     23  C   UNL     1       0.820  15.711  18.764  0.00  0.00    +0.000 C 
ATOM     24  C   UNL     1       0.804  16.266  20.131  0.00  0.00    +0.000 C 
ATOM     25  C   UNL     1      -0.415  14.430  18.971  0.00  0.00    +0.000 C 
ATOM     26  C   UNL     1       1.735  12.705  20.646  0.00  0.00    +0.000 C 
ENDBRANCH  15  17
ENDBRANCH   8  15
BRANCH   1  27
ATOM     27  C   UNL     1      -1.543  10.112  17.670  0.00  0.00    +0.000 C 
BRANCH  27  29
ATOM     28  C   UNL     1      -2.834  10.534  15.495  0.00  0.00    +0.000 C 
ATOM     29  C   UNL     1      -2.414  11.098  16.854  0.00  0.00    +0.000 C 
ATOM     30  C   UNL     1      -3.664  11.491  17.645  0.00  0.00    +0.000 C 
ENDBRANCH  27  29
ENDBRANCH   1  27
TORSDOF 5
ENDMDL
MODEL 5
REMARK VINA RESULT:      -7.5      2.578      8.426
REMARK  Name = 
REMARK  8 active torsions:
REMARK  status: ('A' for Active; 'I' for Inactive)
REMARK    1  A    between atoms: C_1  and  C_2
REMARK    2  A    between atoms: C_2  and  C_3
REMARK    3  A    between atoms: C_2  and  C_4
REMARK    4  A    between atoms: C_4  and  C_5
REMARK    5  A    between atoms: C_11  and  C_12
REMARK    6  A    between atoms: N_18  and  C_19
REMARK    7  A    between atoms: C_19  and  C_20
REMARK    8  A    between atoms: C_19  and  C_21
REMARK                            x       y       z     vdW  Elec       q    Type
REMARK                         _______ _______ _______ _____ _____    ______ ____
ROOT
ATOM      1  C   UNL     1      -0.083  10.570  18.375  0.00  0.00    +0.000 C 
ATOM      2  C   UNL     1       1.214   9.808  17.944  0.00  0.00    +0.000 C 
ATOM      3  N   UNL     1       1.236   8.759  18.919  0.00  0.00    +0.000 N 
ATOM      4  C   UNL     1       0.636   9.146  20.081  0.00  0.00    +0.000 C 
ATOM      5  N   UNL     1       1.015   8.553  21.167  0.00  0.00    +0.000 NA
ATOM      6  C   UNL     1       1.969   7.519  20.704  0.00  0.00    +0.000 C 
ATOM      7  C   UNL     1       2.357   7.927  19.261  0.00  0.00    +0.000 C 
ATOM      8  N   UNL     1      -0.155  10.255  19.803  0.00  0.00    +0.000 N 
ENDROOT
BRANCH   7   9
ATOM      9  C   UNL     1       2.503   6.795  18.227  0.00  0.00    +0.000 C 
ATOM     10  C   UNL     1       1.868   5.466  18.678  0.00  0.00    +0.000 C 
ATOM     11  C   UNL     1       2.088   4.335  17.701  0.00  0.00    +0.000 C 
ATOM     12  C   UNL     1       3.583   4.182  17.415  0.00  0.00    +0.000 C 
ATOM     13  C   UNL     1       4.187   5.440  16.871  0.00  0.00    +0.000 C 
ATOM     14  C   UNL     1       4.001   6.590  17.858  0.00  0.00    +0.000 C 
ENDBRANCH   7   9
BRANCH   8  15
ATOM     15  C   UNL     1      -0.704  11.174  20.795  0.00  0.00    +0.000 C 
ATOM     16  C   UNL     1      -0.543  10.602  22.216  0.00  0.00    +0.000 C 
BRANCH  15  17
ATOM     17  C   UNL     1      -0.124  12.593  20.697  0.00  0.00    +0.000 C 
ATOM     18  C   UNL     1      -0.096  13.517  21.830  0.00  0.00    +0.000 C 
ATOM     19  C   UNL     1       0.686  14.489  20.930  0.00  0.00    +0.000 C 
ATOM     20  C   UNL     1       1.156  13.594  19.217  0.00  0.00    +0.000 C 
ATOM     21  C   UNL     1       2.373  13.973  19.792  0.00  0.00    +0.000 C 
ATOM     22  C   UNL     1       1.499  15.371  18.967  0.00  0.00    +0.000 C 
ATOM     23  C   UNL     1      -0.276  15.298  19.291  0.00  0.00    +0.000 C 
ATOM     24  C   UNL     1      -0.155  15.720  20.700  0.00  0.00    +0.000 C 
ATOM     25  C   UNL     1      -1.063  13.709  19.545  0.00  0.00    +0.000 C 
ATOM     26  C   UNL     1       1.761  12.537  20.573  0.00  0.00    +0.000 C 
ENDBRANCH  15  17
ENDBRANCH   8  15
BRANCH   1  27
ATOM     27  C   UNL     1      -1.300  10.014  17.599  0.00  0.00    +0.000 C 
BRANCH  27  29
ATOM     28  C   UNL     1      -2.839  10.885  15.743  0.00  0.00    +0.000 C 
ATOM     29  C   UNL     1      -2.326  11.092  17.170  0.00  0.00    +0.000 C 
ATOM     30  C   UNL     1      -3.514  11.116  18.135  0.00  0.00    +0.000 C 
ENDBRANCH  27  29
ENDBRANCH   1  27
TORSDOF 5
ENDMDL
MODEL 6
REMARK VINA RESULT:      -7.4      7.081      9.289
REMARK  Name = 
REMARK  8 active torsions:
REMARK  status: ('A' for Active; 'I' for Inactive)
REMARK    1  A    between atoms: C_1  and  C_2
REMARK    2  A    between atoms: C_2  and  C_3
REMARK    3  A    between atoms: C_2  and  C_4
REMARK    4  A    between atoms: C_4  and  C_5
REMARK    5  A    between atoms: C_11  and  C_12
REMARK    6  A    between atoms: N_18  and  C_19
REMARK    7  A    between atoms: C_19  and  C_20
REMARK    8  A    between atoms: C_19  and  C_21
REMARK                            x       y       z     vdW  Elec       q    Type
REMARK                         _______ _______ _______ _____ _____    ______ ____
ROOT
ATOM      1  C   UNL     1       6.711  15.158  21.371  0.00  0.00    +0.000 C 
ATOM      2  C   UNL     1       5.207  15.560  21.214  0.00  0.00    +0.000 C 
ATOM      3  N   UNL     1       4.946  15.081  19.890  0.00  0.00    +0.000 N 
ATOM      4  C   UNL     1       6.075  15.092  19.124  0.00  0.00    +0.000 C 
ATOM      5  N   UNL     1       5.919  15.192  17.843  0.00  0.00    +0.000 NA
ATOM      6  C   UNL     1       4.451  15.157  17.651  0.00  0.00    +0.000 C 
ATOM      7  C   UNL     1       3.842  15.447  19.046  0.00  0.00    +0.000 C 
ATOM      8  N   UNL     1       7.168  15.162  19.980  0.00  0.00    +0.000 N 
ENDROOT
BRANCH   7   9
ATOM      9  C   UNL     1       2.590  14.644  19.445  0.00  0.00    +0.000 C 
ATOM     10  C   UNL     1       2.478  13.284  18.729  0.00  0.00    +0.000 C 
ATOM     11  C   UNL     1       1.208  12.537  19.056  0.00  0.00    +0.000 C 
ATOM     12  C   UNL     1      -0.003  13.428  18.774  0.00  0.00    +0.000 C 
ATOM     13  C   UNL     1       0.041  14.708  19.552  0.00  0.00    +0.000 C 
ATOM     14  C   UNL     1       1.306  15.492  19.213  0.00  0.00    +0.000 C 
ENDBRANCH   7   9
BRANCH   8  15
ATOM     15  C   UNL     1       8.528  15.520  19.590  0.00  0.00    +0.000 C 
ATOM     16  C   UNL     1       9.155  16.479  20.621  0.00  0.00    +0.000 C 
BRANCH  15  17
ATOM     17  C   UNL     1       9.432  14.303  19.341  0.00  0.00    +0.000 C 
ATOM     18  C   UNL     1      10.772  14.416  18.769  0.00  0.00    +0.000 C 
ATOM     19  C   UNL     1      10.925  12.904  19.002  0.00  0.00    +0.000 C 
ATOM     20  C   UNL     1       9.369  12.220  20.036  0.00  0.00    +0.000 C 
ATOM     21  C   UNL     1      10.497  11.922  20.807  0.00  0.00    +0.000 C 
ATOM     22  C   UNL     1      10.248  10.744  19.412  0.00  0.00    +0.000 C 
ATOM     23  C   UNL     1       9.724  11.618  17.921  0.00  0.00    +0.000 C 
ATOM     24  C   UNL     1      11.048  12.216  17.666  0.00  0.00    +0.000 C 
ATOM     25  C   UNL     1       8.764  13.123  18.070  0.00  0.00    +0.000 C 
ATOM     26  C   UNL     1      10.083  13.609  20.973  0.00  0.00    +0.000 C 
ENDBRANCH  15  17
ENDBRANCH   8  15
BRANCH   1  27
ATOM     27  C   UNL     1       6.815  13.754  22.009  0.00  0.00    +0.000 C 
BRANCH  27  29
ATOM     28  C   UNL     1       8.066  12.518  23.875  0.00  0.00    +0.000 C 
ATOM     29  C   UNL     1       7.261  13.761  23.492  0.00  0.00    +0.000 C 
ATOM     30  C   UNL     1       8.088  15.012  23.798  0.00  0.00    +0.000 C 
ENDBRANCH  27  29
ENDBRANCH   1  27
TORSDOF 5
ENDMDL
MODEL 7
REMARK VINA RESULT:      -7.4      3.118      9.404
REMARK  Name = 
REMARK  8 active torsions:
REMARK  status: ('A' for Active; 'I' for Inactive)
REMARK    1  A    between atoms: C_1  and  C_2
REMARK    2  A    between atoms: C_2  and  C_3
REMARK    3  A    between atoms: C_2  and  C_4
REMARK    4  A    between atoms: C_4  and  C_5
REMARK    5  A    between atoms: C_11  and  C_12
REMARK    6  A    between atoms: N_18  and  C_19
REMARK    7  A    between atoms: C_19  and  C_20
REMARK    8  A    between atoms: C_19  and  C_21
REMARK                            x       y       z     vdW  Elec       q    Type
REMARK                         _______ _______ _______ _____ _____    ______ ____
ROOT
ATOM      1  C   UNL     1      -0.139  11.221  19.167  0.00  0.00    +0.000 C 
ATOM      2  C   UNL     1       0.755   9.999  18.770  0.00  0.00    +0.000 C 
ATOM      3  N   UNL     1       0.893   9.354  20.041  0.00  0.00    +0.000 N 
ATOM      4  C   UNL     1       0.811  10.249  21.067  0.00  0.00    +0.000 C 
ATOM      5  N   UNL     1       1.407   9.936  22.173  0.00  0.00    +0.000 NA
ATOM      6  C   UNL     1       1.920   8.568  21.936  0.00  0.00    +0.000 C 
ATOM      7  C   UNL     1       1.872   8.365  20.401  0.00  0.00    +0.000 C 
ATOM      8  N   UNL     1       0.213  11.404  20.576  0.00  0.00    +0.000 N 
ENDROOT
BRANCH   7   9
ATOM      9  C   UNL     1       1.431   6.981  19.889  0.00  0.00    +0.000 C 
ATOM     10  C   UNL     1       1.524   5.873  20.956  0.00  0.00    +0.000 C 
ATOM     11  C   UNL     1       1.174   4.502  20.429  0.00  0.00    +0.000 C 
ATOM     12  C   UNL     1       2.033   4.185  19.204  0.00  0.00    +0.000 C 
ATOM     13  C   UNL     1       1.863   5.199  18.114  0.00  0.00    +0.000 C 
ATOM     14  C   UNL     1       2.242   6.590  18.620  0.00  0.00    +0.000 C 
ENDBRANCH   7   9
BRANCH   8  15
ATOM     15  C   UNL     1       0.227  12.709  21.230  0.00  0.00    +0.000 C 
ATOM     16  C   UNL     1       0.722  13.798  20.259  0.00  0.00    +0.000 C 
BRANCH  15  17
ATOM     17  C   UNL     1      -1.123  13.092  21.855  0.00  0.00    +0.000 C 
ATOM     18  C   UNL     1      -1.275  14.205  22.790  0.00  0.00    +0.000 C 
ATOM     19  C   UNL     1      -2.789  13.934  22.760  0.00  0.00    +0.000 C 
ATOM     20  C   UNL     1      -3.202  12.565  21.378  0.00  0.00    +0.000 C 
ATOM     21  C   UNL     1      -3.929  13.702  21.013  0.00  0.00    +0.000 C 
ATOM     22  C   UNL     1      -4.722  12.747  22.376  0.00  0.00    +0.000 C 
ATOM     23  C   UNL     1      -3.483  12.156  23.549  0.00  0.00    +0.000 C 
ATOM     24  C   UNL     1      -3.229  13.488  24.131  0.00  0.00    +0.000 C 
ATOM     25  C   UNL     1      -1.828  11.786  22.974  0.00  0.00    +0.000 C 
ATOM     26  C   UNL     1      -2.252  13.892  20.568  0.00  0.00    +0.000 C 
ENDBRANCH  15  17
ENDBRANCH   8  15
BRANCH   1  27
ATOM     27  C   UNL     1      -1.631  10.858  18.987  0.00  0.00    +0.000 C 
BRANCH  27  29
ATOM     28  C   UNL     1      -2.185   9.971  16.646  0.00  0.00    +0.000 C 
ATOM     29  C   UNL     1      -2.199  11.180  17.583  0.00  0.00    +0.000 C 
ATOM     30  C   UNL     1      -3.629  11.717  17.692  0.00  0.00    +0.000 C 
ENDBRANCH  27  29
ENDBRANCH   1  27
TORSDOF 5
ENDMDL
MODEL 8
REMARK VINA RESULT:      -7.3      2.990      8.502
REMARK  Name = 
REMARK  8 active torsions:
REMARK  status: ('A' for Active; 'I' for Inactive)
REMARK    1  A    between atoms: C_1  and  C_2
REMARK    2  A    between atoms: C_2  and  C_3
REMARK    3  A    between atoms: C_2  and  C_4
REMARK    4  A    between atoms: C_4  and  C_5
REMARK    5  A    between atoms: C_11  and  C_12
REMARK    6  A    between atoms: N_18  and  C_19
REMARK    7  A    between atoms: C_19  and  C_20
REMARK    8  A    between atoms: C_19  and  C_21
REMARK                            x       y       z     vdW  Elec       q    Type
REMARK                         _______ _______ _______ _____ _____    ______ ____
ROOT
ATOM      1  C   UNL     1      -0.354  10.664  18.224  0.00  0.00    +0.000 C 
ATOM      2  C   UNL     1       0.865   9.684  18.173  0.00  0.00    +0.000 C 
ATOM      3  N   UNL     1       0.753   9.063  19.459  0.00  0.00    +0.000 N 
ATOM      4  C   UNL     1       0.171   9.897  20.367  0.00  0.00    +0.000 C 
ATOM      5  N   UNL     1       0.460   9.707  21.614  0.00  0.00    +0.000 NA
ATOM      6  C   UNL     1       1.310   8.494  21.610  0.00  0.00    +0.000 C 
ATOM      7  C   UNL     1       1.772   8.315  20.143  0.00  0.00    +0.000 C 
ATOM      8  N   UNL     1      -0.492  10.896  19.663  0.00  0.00    +0.000 N 
ENDROOT
BRANCH   7   9
ATOM      9  C   UNL     1       1.823   6.877  19.594  0.00  0.00    +0.000 C 
ATOM     10  C   UNL     1       1.779   5.798  20.693  0.00  0.00    +0.000 C 
ATOM     11  C   UNL     1       1.916   4.392  20.159  0.00  0.00    +0.000 C 
ATOM     12  C   UNL     1       3.182   4.284  19.307  0.00  0.00    +0.000 C 
ATOM     13  C   UNL     1       3.182   5.256  18.166  0.00  0.00    +0.000 C 
ATOM     14  C   UNL     1       3.074   6.687  18.689  0.00  0.00    +0.000 C 
ENDBRANCH   7   9
BRANCH   8  15
ATOM     15  C   UNL     1      -0.965  12.158  20.224  0.00  0.00    +0.000 C 
ATOM     16  C   UNL     1      -1.640  11.927  21.589  0.00  0.00    +0.000 C 
BRANCH  15  17
ATOM     17  C   UNL     1       0.131  13.231  20.319  0.00  0.00    +0.000 C 
ATOM     18  C   UNL     1       1.555  12.919  20.213  0.00  0.00    +0.000 C 
ATOM     19  C   UNL     1       1.821  14.433  20.276  0.00  0.00    +0.000 C 
ATOM     20  C   UNL     1       0.099  15.425  20.198  0.00  0.00    +0.000 C 
ATOM     21  C   UNL     1       0.842  15.870  19.100  0.00  0.00    +0.000 C 
ATOM     22  C   UNL     1       1.363  16.649  20.688  0.00  0.00    +0.000 C 
ATOM     23  C   UNL     1       1.372  15.436  22.025  0.00  0.00    +0.000 C 
ATOM     24  C   UNL     1       2.580  14.740  21.542  0.00  0.00    +0.000 C 
ATOM     25  C   UNL     1       0.224  14.062  21.979  0.00  0.00    +0.000 C 
ATOM     26  C   UNL     1       0.152  14.303  18.763  0.00  0.00    +0.000 C 
ENDBRANCH  15  17
ENDBRANCH   8  15
BRANCH   1  27
ATOM     27  C   UNL     1      -1.604   9.977  17.627  0.00  0.00    +0.000 C 
BRANCH  27  29
ATOM     28  C   UNL     1      -2.893  10.244  15.427  0.00  0.00    +0.000 C 
ATOM     29  C   UNL     1      -2.478  10.902  16.745  0.00  0.00    +0.000 C 
ATOM     30  C   UNL     1      -3.731  11.342  17.505  0.00  0.00    +0.000 C 
ENDBRANCH  27  29
ENDBRANCH   1  27
TORSDOF 5
ENDMDL
MODEL 9
REMARK VINA RESULT:      -7.3      7.450      9.604
REMARK  Name = 
REMARK  8 active torsions:
REMARK  status: ('A' for Active; 'I' for Inactive)
REMARK    1  A    between atoms: C_1  and  C_2
REMARK    2  A    between atoms: C_2  and  C_3
REMARK    3  A    between atoms: C_2  and  C_4
REMARK    4  A    between atoms: C_4  and  C_5
REMARK    5  A    between atoms: C_11  and  C_12
REMARK    6  A    between atoms: N_18  and  C_19
REMARK    7  A    between atoms: C_19  and  C_20
REMARK    8  A    between atoms: C_19  and  C_21
REMARK                            x       y       z     vdW  Elec       q    Type
REMARK                         _______ _______ _______ _____ _____    ______ ____
ROOT
ATOM      1  C   UNL     1       7.759  16.079  21.495  0.00  0.00    +0.000 C 
ATOM      2  C   UNL     1       6.377  16.658  21.046  0.00  0.00    +0.000 C 
ATOM      3  N   UNL     1       6.033  15.735  20.006  0.00  0.00    +0.000 N 
ATOM      4  C   UNL     1       7.145  15.213  19.414  0.00  0.00    +0.000 C 
ATOM      5  N   UNL     1       7.026  14.803  18.192  0.00  0.00    +0.000 NA
ATOM      6  C   UNL     1       5.587  14.973  17.889  0.00  0.00    +0.000 C 
ATOM      7  C   UNL     1       5.041  15.923  18.984  0.00  0.00    +0.000 C 
ATOM      8  N   UNL     1       8.220  15.420  20.271  0.00  0.00    +0.000 N 
ENDROOT
BRANCH   7   9
ATOM      9  C   UNL     1       3.642  15.612  19.549  0.00  0.00    +0.000 C 
ATOM     10  C   UNL     1       3.482  14.155  20.024  0.00  0.00    +0.000 C 
ATOM     11  C   UNL     1       2.086  13.829  20.498  0.00  0.00    +0.000 C 
ATOM     12  C   UNL     1       1.074  14.184  19.406  0.00  0.00    +0.000 C 
ATOM     13  C   UNL     1       1.146  15.629  19.015  0.00  0.00    +0.000 C 
ATOM     14  C   UNL     1       2.545  15.971  18.505  0.00  0.00    +0.000 C 
ENDBRANCH   7   9
BRANCH   8  15
ATOM     15  C   UNL     1       9.629  15.319  19.903  0.00  0.00    +0.000 C 
ATOM     16  C   UNL     1      10.508  16.099  20.899  0.00  0.00    +0.000 C 
BRANCH  15  17
ATOM     17  C   UNL     1      10.115  13.870  19.748  0.00  0.00    +0.000 C 
ATOM     18  C   UNL     1      11.499  13.468  19.996  0.00  0.00    +0.000 C 
ATOM     19  C   UNL     1      11.049  12.018  19.753  0.00  0.00    +0.000 C 
ATOM     20  C   UNL     1       9.069  11.945  19.575  0.00  0.00    +0.000 C 
ATOM     21  C   UNL     1       9.383  11.114  20.655  0.00  0.00    +0.000 C 
ATOM     22  C   UNL     1       9.685  10.317  19.020  0.00  0.00    +0.000 C 
ATOM     23  C   UNL     1      10.415  11.491  17.860  0.00  0.00    +0.000 C 
ATOM     24  C   UNL     1      11.736  11.497  18.516  0.00  0.00    +0.000 C 
ATOM     25  C   UNL     1      10.026  13.233  18.004  0.00  0.00    +0.000 C 
ATOM     26  C   UNL     1       9.448  12.788  21.146  0.00  0.00    +0.000 C 
ENDBRANCH  15  17
ENDBRANCH   8  15
BRANCH   1  27
ATOM     27  C   UNL     1       7.554  15.072  22.650  0.00  0.00    +0.000 C 
BRANCH  27  29
ATOM     28  C   UNL     1       5.604  13.421  22.860  0.00  0.00    +0.000 C 
ATOM     29  C   UNL     1       6.075  14.863  23.056  0.00  0.00    +0.000 C 
ATOM     30  C   UNL     1       5.856  15.271  24.516  0.00  0.00    +0.000 C 
ENDBRANCH  27  29
ENDBRANCH   1  27
TORSDOF 5
ENDMDL
