MODEL 1
REMARK VINA RESULT:      -7.8      0.000      0.000
REMARK  Name = 
REMARK  5 active torsions:
REMARK  status: ('A' for Active; 'I' for Inactive)
REMARK    1  A    between atoms: C_1  and  O_2
REMARK    2  A    between atoms: O_2  and  C_3
REMARK    3  A    between atoms: C_6  and  C_7
REMARK    4  A    between atoms: C_13  and  O_14
REMARK    5  A    between atoms: C_20  and  O_21
REMARK                            x       y       z     vdW  Elec       q    Type
REMARK                         _______ _______ _______ _____ _____    ______ ____
ROOT
ATOM      1  C   UNL     1       2.755   7.870  18.010  0.00  0.00    +0.000 C 
ATOM      2  C   UNL     1       2.802   6.535  18.157  0.00  0.00    +0.000 C 
ATOM      3  C   UNL     1       1.831   5.721  18.966  0.00  0.00    +0.000 C 
ATOM      4  C   UNL     1       2.309   4.320  18.816  0.00  0.00    +0.000 A 
ATOM      5  C   UNL     1       1.723   3.201  19.383  0.00  0.00    +0.000 A 
ATOM      6  C   UNL     1       2.311   1.962  19.152  0.00  0.00    +0.000 A 
ATOM      7  C   UNL     1       3.471   1.872  18.369  0.00  0.00    +0.000 A 
ATOM      8  C   UNL     1       4.061   3.003  17.790  0.00  0.00    +0.000 A 
ATOM      9  C   UNL     1       3.456   4.228  18.027  0.00  0.00    +0.000 A 
ATOM     10  C   UNL     1       3.821   5.591  17.571  0.00  0.00    +0.000 C 
ATOM     11  O   UNL     1       4.769   5.893  16.869  0.00  0.00    +0.000 OA
ENDROOT
BRANCH   1  15
ATOM     12  C   UNL     1      -0.140  10.363  20.012  0.00  0.00    +0.000 A 
ATOM     13  C   UNL     1       0.648   9.453  20.732  0.00  0.00    +0.000 A 
ATOM     14  C   UNL     1       1.571   8.614  20.089  0.00  0.00    +0.000 A 
ATOM     15  C   UNL     1       1.720   8.663  18.701  0.00  0.00    +0.000 A 
ATOM     16  C   UNL     1       0.936   9.571  17.975  0.00  0.00    +0.000 A 
ATOM     17  C   UNL     1       0.016  10.413  18.624  0.00  0.00    +0.000 A 
BRANCH  12  19
ATOM     18  C   UNL     1      -0.612  11.316  22.163  0.00  0.00    +0.000 C 
ATOM     19  O   UNL     1      -0.976  11.105  20.805  0.00  0.00    +0.000 OA
ENDBRANCH  12  19
BRANCH  17  20
ATOM     20  O   UNL     1      -0.706  11.290  17.862  0.00  0.00    +0.000 OA
ATOM     21  H   UNL     1      -0.134  12.025  17.586  0.00  0.00    +0.000 HD
ENDBRANCH  17  20
ENDBRANCH   1  15
BRANCH   7  22
ATOM     22  O   UNL     1       4.053   0.652  18.156  0.00  0.00    +0.000 OA
ATOM     23  H   UNL     1       4.380   0.617  17.239  0.00  0.00    +0.000 HD
ENDBRANCH   7  22
TORSDOF 4
ENDMDL
MODEL 2
REMARK VINA RESULT:      -7.5      1.423      7.602
REMARK  Name = 
REMARK  5 active torsions:
REMARK  status: ('A' for Active; 'I' for Inactive)
REMARK    1  A    between atoms: C_1  and  O_2
REMARK    2  A    between atoms: O_2  and  C_3
REMARK    3  A    between atoms: C_6  and  C_7
REMARK    4  A    between atoms: C_13  and  O_14
REMARK    5  A    between atoms: C_20  and  O_21
REMARK                            x       y       z     vdW  Elec       q    Type
REMARK                         _______ _______ _______ _____ _____    ______ ____
ROOT
ATOM      1  C   UNL     1       2.411   7.784  18.296  0.00  0.00    +0.000 C 
ATOM      2  C   UNL     1       1.745   8.443  19.258  0.00  0.00    +0.000 C 
ATOM      3  C   UNL     1       1.472   7.914  20.639  0.00  0.00    +0.000 C 
ATOM      4  C   UNL     1       0.714   9.003  21.310  0.00  0.00    +0.000 A 
ATOM      5  C   UNL     1       0.243   8.977  22.612  0.00  0.00    +0.000 A 
ATOM      6  C   UNL     1      -0.465  10.080  23.078  0.00  0.00    +0.000 A 
ATOM      7  C   UNL     1      -0.691  11.176  22.232  0.00  0.00    +0.000 A 
ATOM      8  C   UNL     1      -0.211  11.205  20.916  0.00  0.00    +0.000 A 
ATOM      9  C   UNL     1       0.497  10.098  20.473  0.00  0.00    +0.000 A 
ATOM     10  C   UNL     1       1.128   9.816  19.160  0.00  0.00    +0.000 C 
ATOM     11  O   UNL     1       1.135  10.546  18.186  0.00  0.00    +0.000 OA
ENDROOT
BRANCH   1  15
ATOM     12  C   UNL     1       3.969   3.795  18.800  0.00  0.00    +0.000 A 
ATOM     13  C   UNL     1       2.643   4.003  18.394  0.00  0.00    +0.000 A 
ATOM     14  C   UNL     1       2.114   5.296  18.257  0.00  0.00    +0.000 A 
ATOM     15  C   UNL     1       2.906   6.414  18.532  0.00  0.00    +0.000 A 
ATOM     16  C   UNL     1       4.233   6.212  18.938  0.00  0.00    +0.000 A 
ATOM     17  C   UNL     1       4.760   4.915  19.069  0.00  0.00    +0.000 A 
BRANCH  12  19
ATOM     18  C   UNL     1       3.401   1.504  18.362  0.00  0.00    +0.000 C 
ATOM     19  O   UNL     1       4.314   2.470  18.869  0.00  0.00    +0.000 OA
ENDBRANCH  12  19
BRANCH  17  20
ATOM     20  O   UNL     1       6.066   4.785  19.450  0.00  0.00    +0.000 OA
ATOM     21  H   UNL     1       6.250   3.855  19.661  0.00  0.00    +0.000 HD
ENDBRANCH  17  20
ENDBRANCH   1  15
BRANCH   7  22
ATOM     22  O   UNL     1      -1.400  12.252  22.691  0.00  0.00    +0.000 OA
ATOM     23  H   UNL     1      -1.366  12.257  23.664  0.00  0.00    +0.000 HD
ENDBRANCH   7  22
TORSDOF 4
ENDMDL
MODEL 3
REMARK VINA RESULT:      -7.5      0.819      1.616
REMARK  Name = 
REMARK  5 active torsions:
REMARK  status: ('A' for Active; 'I' for Inactive)
REMARK    1  A    between atoms: C_1  and  O_2
REMARK    2  A    between atoms: O_2  and  C_3
REMARK    3  A    between atoms: C_6  and  C_7
REMARK    4  A    between atoms: C_13  and  O_14
REMARK    5  A    between atoms: C_20  and  O_21
REMARK                            x       y       z     vdW  Elec       q    Type
REMARK                         _______ _______ _______ _____ _____    ______ ____
ROOT
ATOM      1  C   UNL     1       2.878   7.869  17.892  0.00  0.00    +0.000 C 
ATOM      2  C   UNL     1       2.885   6.538  18.075  0.00  0.00    +0.000 C 
ATOM      3  C   UNL     1       1.888   5.773  18.900  0.00  0.00    +0.000 C 
ATOM      4  C   UNL     1       2.325   4.356  18.788  0.00  0.00    +0.000 A 
ATOM      5  C   UNL     1       1.705   3.270  19.382  0.00  0.00    +0.000 A 
ATOM      6  C   UNL     1       2.258   2.008  19.186  0.00  0.00    +0.000 A 
ATOM      7  C   UNL     1       3.417   1.864  18.411  0.00  0.00    +0.000 A 
ATOM      8  C   UNL     1       4.042   2.962  17.805  0.00  0.00    +0.000 A 
ATOM      9  C   UNL     1       3.473   4.210  18.008  0.00  0.00    +0.000 A 
ATOM     10  C   UNL     1       3.879   5.550  17.517  0.00  0.00    +0.000 C 
ATOM     11  O   UNL     1       4.838   5.805  16.812  0.00  0.00    +0.000 OA
ENDROOT
BRANCH   1  15
ATOM     12  C   UNL     1      -0.206  10.148  19.866  0.00  0.00    +0.000 A 
ATOM     13  C   UNL     1      -0.051  10.202  18.473  0.00  0.00    +0.000 A 
ATOM     14  C   UNL     1       0.968   9.490  17.822  0.00  0.00    +0.000 A 
ATOM     15  C   UNL     1       1.864   8.710  18.557  0.00  0.00    +0.000 A 
ATOM     16  C   UNL     1       1.714   8.652  19.950  0.00  0.00    +0.000 A 
ATOM     17  C   UNL     1       0.688   9.363  20.598  0.00  0.00    +0.000 A 
BRANCH  12  19
ATOM     18  C   UNL     1      -1.682  12.015  19.555  0.00  0.00    +0.000 C 
ATOM     19  O   UNL     1      -1.258  10.897  20.325  0.00  0.00    +0.000 OA
ENDBRANCH  12  19
BRANCH  17  20
ATOM     20  O   UNL     1       0.583   9.249  21.956  0.00  0.00    +0.000 OA
ATOM     21  H   UNL     1       1.112   8.494  22.260  0.00  0.00    +0.000 HD
ENDBRANCH  17  20
ENDBRANCH   1  15
BRANCH   7  22
ATOM     22  O   UNL     1       3.965   0.622  18.232  0.00  0.00    +0.000 OA
ATOM     23  H   UNL     1       4.536   0.643  17.444  0.00  0.00    +0.000 HD
ENDBRANCH   7  22
TORSDOF 4
ENDMDL
MODEL 4
REMARK VINA RESULT:      -7.5      1.586      7.382
REMARK  Name = 
REMARK  5 active torsions:
REMARK  status: ('A' for Active; 'I' for Inactive)
REMARK    1  A    between atoms: C_1  and  O_2
REMARK    2  A    between atoms: O_2  and  C_3
REMARK    3  A    between atoms: C_6  and  C_7
REMARK    4  A    between atoms: C_13  and  O_14
REMARK    5  A    between atoms: C_20  and  O_21
REMARK                            x       y       z     vdW  Elec       q    Type
REMARK                         _______ _______ _______ _____ _____    ______ ____
ROOT
ATOM      1  C   UNL     1       2.407   7.803  18.125  0.00  0.00    +0.000 C 
ATOM      2  C   UNL     1       1.773   8.417  19.138  0.00  0.00    +0.000 C 
ATOM      3  C   UNL     1       1.455   7.790  20.466  0.00  0.00    +0.000 C 
ATOM      4  C   UNL     1       0.759   8.863  21.225  0.00  0.00    +0.000 A 
ATOM      5  C   UNL     1       0.275   8.756  22.518  0.00  0.00    +0.000 A 
ATOM      6  C   UNL     1      -0.367   9.857  23.074  0.00  0.00    +0.000 A 
ATOM      7  C   UNL     1      -0.517  11.033  22.325  0.00  0.00    +0.000 A 
ATOM      8  C   UNL     1      -0.023  11.144  21.018  0.00  0.00    +0.000 A 
ATOM      9  C   UNL     1       0.619  10.037  20.484  0.00  0.00    +0.000 A 
ATOM     10  C   UNL     1       1.245   9.829  19.155  0.00  0.00    +0.000 C 
ATOM     11  O   UNL     1       1.307  10.638  18.248  0.00  0.00    +0.000 OA
ENDROOT
BRANCH   1  15
ATOM     12  C   UNL     1       3.475   3.658  18.656  0.00  0.00    +0.000 A 
ATOM     13  C   UNL     1       4.387   4.680  18.954  0.00  0.00    +0.000 A 
ATOM     14  C   UNL     1       4.063   6.032  18.756  0.00  0.00    +0.000 A 
ATOM     15  C   UNL     1       2.813   6.389  18.245  0.00  0.00    +0.000 A 
ATOM     16  C   UNL     1       1.896   5.371  17.945  0.00  0.00    +0.000 A 
ATOM     17  C   UNL     1       2.223   4.019  18.150  0.00  0.00    +0.000 A 
BRANCH  12  19
ATOM     18  C   UNL     1       4.479   2.138  20.218  0.00  0.00    +0.000 C 
ATOM     19  O   UNL     1       3.959   2.403  18.922  0.00  0.00    +0.000 OA
ENDBRANCH  12  19
BRANCH  17  20
ATOM     20  O   UNL     1       1.279   3.075  17.857  0.00  0.00    +0.000 OA
ATOM     21  H   UNL     1       0.402   3.491  17.837  0.00  0.00    +0.000 HD
ENDBRANCH  17  20
ENDBRANCH   1  15
BRANCH   7  22
ATOM     22  O   UNL     1      -1.162  12.108  22.871  0.00  0.00    +0.000 OA
ATOM     23  H   UNL     1      -1.502  12.669  22.151  0.00  0.00    +0.000 HD
ENDBRANCH   7  22
TORSDOF 4
ENDMDL
MODEL 5
REMARK VINA RESULT:      -7.5      2.542      7.585
REMARK  Name = 
REMARK  5 active torsions:
REMARK  status: ('A' for Active; 'I' for Inactive)
REMARK    1  A    between atoms: C_1  and  O_2
REMARK    2  A    between atoms: O_2  and  C_3
REMARK    3  A    between atoms: C_6  and  C_7
REMARK    4  A    between atoms: C_13  and  O_14
REMARK    5  A    between atoms: C_20  and  O_21
REMARK                            x       y       z     vdW  Elec       q    Type
REMARK                         _______ _______ _______ _____ _____    ______ ____
ROOT
ATOM      1  C   UNL     1       4.028   4.829  18.762  0.00  0.00    +0.000 C 
ATOM      2  C   UNL     1       3.250   5.885  19.055  0.00  0.00    +0.000 C 
ATOM      3  C   UNL     1       3.131   7.129  18.220  0.00  0.00    +0.000 C 
ATOM      4  C   UNL     1       2.164   7.981  18.962  0.00  0.00    +0.000 A 
ATOM      5  C   UNL     1       1.730   9.238  18.574  0.00  0.00    +0.000 A 
ATOM      6  C   UNL     1       0.832   9.907  19.398  0.00  0.00    +0.000 A 
ATOM      7  C   UNL     1       0.396   9.311  20.590  0.00  0.00    +0.000 A 
ATOM      8  C   UNL     1       0.831   8.038  20.981  0.00  0.00    +0.000 A 
ATOM      9  C   UNL     1       1.722   7.385  20.144  0.00  0.00    +0.000 A 
ATOM     10  C   UNL     1       2.363   6.052  20.263  0.00  0.00    +0.000 C 
ATOM     11  O   UNL     1       2.214   5.254  21.169  0.00  0.00    +0.000 OA
ENDROOT
BRANCH   1  15
ATOM     12  C   UNL     1       6.449   5.059  15.200  0.00  0.00    +0.000 A 
ATOM     13  C   UNL     1       5.352   4.188  15.270  0.00  0.00    +0.000 A 
ATOM     14  C   UNL     1       4.575   4.081  16.434  0.00  0.00    +0.000 A 
ATOM     15  C   UNL     1       4.887   4.843  17.563  0.00  0.00    +0.000 A 
ATOM     16  C   UNL     1       5.983   5.716  17.499  0.00  0.00    +0.000 A 
ATOM     17  C   UNL     1       6.755   5.824  16.329  0.00  0.00    +0.000 A 
BRANCH  12  19
ATOM     18  C   UNL     1       6.697   4.053  13.036  0.00  0.00    +0.000 C 
ATOM     19  O   UNL     1       7.082   5.039  13.985  0.00  0.00    +0.000 OA
ENDBRANCH  12  19
BRANCH  17  20
ATOM     20  O   UNL     1       7.799   6.707  16.324  0.00  0.00    +0.000 OA
ATOM     21  H   UNL     1       7.981   6.987  15.413  0.00  0.00    +0.000 HD
ENDBRANCH  17  20
ENDBRANCH   1  15
BRANCH   7  22
ATOM     22  O   UNL     1      -0.477   9.980  21.404  0.00  0.00    +0.000 OA
ATOM     23  H   UNL     1      -0.720   9.399  22.147  0.00  0.00    +0.000 HD
ENDBRANCH   7  22
TORSDOF 4
ENDMDL
MODEL 6
REMARK VINA RESULT:      -7.4      1.083      1.083
REMARK  Name = 
REMARK  5 active torsions:
REMARK  status: ('A' for Active; 'I' for Inactive)
REMARK    1  A    between atoms: C_1  and  O_2
REMARK    2  A    between atoms: O_2  and  C_3
REMARK    3  A    between atoms: C_6  and  C_7
REMARK    4  A    between atoms: C_13  and  O_14
REMARK    5  A    between atoms: C_20  and  O_21
REMARK                            x       y       z     vdW  Elec       q    Type
REMARK                         _______ _______ _______ _____ _____    ______ ____
ROOT
ATOM      1  C   UNL     1       2.538   8.132  18.158  0.00  0.00    +0.000 C 
ATOM      2  C   UNL     1       2.824   6.904  18.622  0.00  0.00    +0.000 C 
ATOM      3  C   UNL     1       2.087   6.205  19.729  0.00  0.00    +0.000 C 
ATOM      4  C   UNL     1       2.780   4.895  19.865  0.00  0.00    +0.000 A 
ATOM      5  C   UNL     1       2.449   3.896  20.765  0.00  0.00    +0.000 A 
ATOM      6  C   UNL     1       3.215   2.735  20.769  0.00  0.00    +0.000 A 
ATOM      7  C   UNL     1       4.294   2.604  19.883  0.00  0.00    +0.000 A 
ATOM      8  C   UNL     1       4.626   3.613  18.969  0.00  0.00    +0.000 A 
ATOM      9  C   UNL     1       3.847   4.760  18.977  0.00  0.00    +0.000 A 
ATOM     10  C   UNL     1       3.930   5.991  18.154  0.00  0.00    +0.000 C 
ATOM     11  O   UNL     1       4.742   6.226  17.278  0.00  0.00    +0.000 OA
ENDROOT
BRANCH   1  15
ATOM     12  C   UNL     1      -0.518  10.634  19.890  0.00  0.00    +0.000 A 
ATOM     13  C   UNL     1       0.348   9.889  20.702  0.00  0.00    +0.000 A 
ATOM     14  C   UNL     1       1.326   9.047  20.151  0.00  0.00    +0.000 A 
ATOM     15  C   UNL     1       1.453   8.926  18.765  0.00  0.00    +0.000 A 
ATOM     16  C   UNL     1       0.589   9.669  17.947  0.00  0.00    +0.000 A 
ATOM     17  C   UNL     1      -0.386  10.516  18.504  0.00  0.00    +0.000 A 
BRANCH  12  19
ATOM     18  C   UNL     1      -1.158  11.611  21.986  0.00  0.00    +0.000 C 
ATOM     19  O   UNL     1      -1.400  11.407  20.600  0.00  0.00    +0.000 OA
ENDBRANCH  12  19
BRANCH  17  20
ATOM     20  O   UNL     1      -1.184  11.228  17.652  0.00  0.00    +0.000 OA
ATOM     21  H   UNL     1      -1.925  10.671  17.362  0.00  0.00    +0.000 HD
ENDBRANCH  17  20
ENDBRANCH   1  15
BRANCH   7  22
ATOM     22  O   UNL     1       5.053   1.465  19.901  0.00  0.00    +0.000 OA
ATOM     23  H   UNL     1       5.849   1.628  20.438  0.00  0.00    +0.000 HD
ENDBRANCH   7  22
TORSDOF 4
ENDMDL
MODEL 7
REMARK VINA RESULT:      -7.3      1.303      7.491
REMARK  Name = 
REMARK  5 active torsions:
REMARK  status: ('A' for Active; 'I' for Inactive)
REMARK    1  A    between atoms: C_1  and  O_2
REMARK    2  A    between atoms: O_2  and  C_3
REMARK    3  A    between atoms: C_6  and  C_7
REMARK    4  A    between atoms: C_13  and  O_14
REMARK    5  A    between atoms: C_20  and  O_21
REMARK                            x       y       z     vdW  Elec       q    Type
REMARK                         _______ _______ _______ _____ _____    ______ ____
ROOT
ATOM      1  C   UNL     1       2.122   8.526  17.906  0.00  0.00    +0.000 C 
ATOM      2  C   UNL     1       1.517   8.986  19.014  0.00  0.00    +0.000 C 
ATOM      3  C   UNL     1       1.445   8.256  20.326  0.00  0.00    +0.000 C 
ATOM      4  C   UNL     1       0.681   9.171  21.216  0.00  0.00    +0.000 A 
ATOM      5  C   UNL     1       0.363   8.929  22.542  0.00  0.00    +0.000 A 
ATOM      6  C   UNL     1      -0.375   9.889  23.227  0.00  0.00    +0.000 A 
ATOM      7  C   UNL     1      -0.783  11.059  22.571  0.00  0.00    +0.000 A 
ATOM      8  C   UNL     1      -0.458  11.306  21.231  0.00  0.00    +0.000 A 
ATOM      9  C   UNL     1       0.283  10.340  20.567  0.00  0.00    +0.000 A 
ATOM     10  C   UNL     1       0.784  10.294  19.171  0.00  0.00    +0.000 C 
ATOM     11  O   UNL     1       0.623  11.143  18.314  0.00  0.00    +0.000 OA
ENDROOT
BRANCH   1  15
ATOM     12  C   UNL     1       3.950   4.627  17.661  0.00  0.00    +0.000 A 
ATOM     13  C   UNL     1       2.603   4.769  18.024  0.00  0.00    +0.000 A 
ATOM     14  C   UNL     1       2.005   6.033  18.138  0.00  0.00    +0.000 A 
ATOM     15  C   UNL     1       2.750   7.190  17.896  0.00  0.00    +0.000 A 
ATOM     16  C   UNL     1       4.098   7.055  17.533  0.00  0.00    +0.000 A 
ATOM     17  C   UNL     1       4.691   5.786  17.415  0.00  0.00    +0.000 A 
BRANCH  12  19
ATOM     18  C   UNL     1       3.423   2.298  17.908  0.00  0.00    +0.000 C 
ATOM     19  O   UNL     1       4.359   3.321  17.590  0.00  0.00    +0.000 OA
ENDBRANCH  12  19
BRANCH  17  20
ATOM     20  O   UNL     1       6.004   5.720  17.038  0.00  0.00    +0.000 OA
ATOM     21  H   UNL     1       6.281   4.791  16.990  0.00  0.00    +0.000 HD
ENDBRANCH  17  20
ENDBRANCH   1  15
BRANCH   7  22
ATOM     22  O   UNL     1      -1.521  11.993  23.245  0.00  0.00    +0.000 OA
ATOM     23  H   UNL     1      -1.644  12.770  22.670  0.00  0.00    +0.000 HD
ENDBRANCH   7  22
TORSDOF 4
ENDMDL
MODEL 8
REMARK VINA RESULT:      -7.2      1.572      2.004
REMARK  Name = 
REMARK  5 active torsions:
REMARK  status: ('A' for Active; 'I' for Inactive)
REMARK    1  A    between atoms: C_1  and  O_2
REMARK    2  A    between atoms: O_2  and  C_3
REMARK    3  A    between atoms: C_6  and  C_7
REMARK    4  A    between atoms: C_13  and  O_14
REMARK    5  A    between atoms: C_20  and  O_21
REMARK                            x       y       z     vdW  Elec       q    Type
REMARK                         _______ _______ _______ _____ _____    ______ ____
ROOT
ATOM      1  C   UNL     1       2.310   8.775  17.791  0.00  0.00    +0.000 C 
ATOM      2  C   UNL     1       2.622   7.570  18.295  0.00  0.00    +0.000 C 
ATOM      3  C   UNL     1       1.957   6.930  19.481  0.00  0.00    +0.000 C 
ATOM      4  C   UNL     1       2.652   5.624  19.636  0.00  0.00    +0.000 A 
ATOM      5  C   UNL     1       2.378   4.671  20.602  0.00  0.00    +0.000 A 
ATOM      6  C   UNL     1       3.139   3.507  20.614  0.00  0.00    +0.000 A 
ATOM      7  C   UNL     1       4.157   3.327  19.668  0.00  0.00    +0.000 A 
ATOM      8  C   UNL     1       4.433   4.288  18.686  0.00  0.00    +0.000 A 
ATOM      9  C   UNL     1       3.659   5.439  18.688  0.00  0.00    +0.000 A 
ATOM     10  C   UNL     1       3.692   6.628  17.802  0.00  0.00    +0.000 C 
ATOM     11  O   UNL     1       4.447   6.815  16.865  0.00  0.00    +0.000 OA
ENDROOT
BRANCH   1  15
ATOM     12  C   UNL     1      -0.759  11.044  19.800  0.00  0.00    +0.000 A 
ATOM     13  C   UNL     1      -1.025  10.388  18.590  0.00  0.00    +0.000 A 
ATOM     14  C   UNL     1      -0.027   9.672  17.910  0.00  0.00    +0.000 A 
ATOM     15  C   UNL     1       1.269   9.605  18.428  0.00  0.00    +0.000 A 
ATOM     16  C   UNL     1       1.541  10.259  19.638  0.00  0.00    +0.000 A 
ATOM     17  C   UNL     1       0.537  10.970  20.318  0.00  0.00    +0.000 A 
BRANCH  12  19
ATOM     18  C   UNL     1      -2.004  13.076  20.089  0.00  0.00    +0.000 C 
ATOM     19  O   UNL     1      -1.853  11.682  20.324  0.00  0.00    +0.000 OA
ENDBRANCH  12  19
BRANCH  17  20
ATOM     20  O   UNL     1       0.861  11.570  21.503  0.00  0.00    +0.000 OA
ATOM     21  H   UNL     1       0.603  10.992  22.239  0.00  0.00    +0.000 HD
ENDBRANCH  17  20
ENDBRANCH   1  15
BRANCH   7  22
ATOM     22  O   UNL     1       4.912   2.186  19.692  0.00  0.00    +0.000 OA
ATOM     23  H   UNL     1       5.591   2.274  20.385  0.00  0.00    +0.000 HD
ENDBRANCH   7  22
TORSDOF 4
ENDMDL
MODEL 9
REMARK VINA RESULT:      -7.1      1.545      1.657
REMARK  Name = 
REMARK  5 active torsions:
REMARK  status: ('A' for Active; 'I' for Inactive)
REMARK    1  A    between atoms: C_1  and  O_2
REMARK    2  A    between atoms: O_2  and  C_3
REMARK    3  A    between atoms: C_6  and  C_7
REMARK    4  A    between atoms: C_13  and  O_14
REMARK    5  A    between atoms: C_20  and  O_21
REMARK                            x       y       z     vdW  Elec       q    Type
REMARK                         _______ _______ _______ _____ _____    ______ ____
ROOT
ATOM      1  C   UNL     1       2.265   8.879  17.775  0.00  0.00    +0.000 C 
ATOM      2  C   UNL     1       2.593   7.669  18.256  0.00  0.00    +0.000 C 
ATOM      3  C   UNL     1       1.902   6.976  19.397  0.00  0.00    +0.000 C 
ATOM      4  C   UNL     1       2.629   5.686  19.542  0.00  0.00    +0.000 A 
ATOM      5  C   UNL     1       2.346   4.699  20.470  0.00  0.00    +0.000 A 
ATOM      6  C   UNL     1       3.140   3.557  20.478  0.00  0.00    +0.000 A 
ATOM      7  C   UNL     1       4.198   3.432  19.567  0.00  0.00    +0.000 A 
ATOM      8  C   UNL     1       4.482   4.429  18.624  0.00  0.00    +0.000 A 
ATOM      9  C   UNL     1       3.676   5.557  18.629  0.00  0.00    +0.000 A 
ATOM     10  C   UNL     1       3.707   6.773  17.778  0.00  0.00    +0.000 C 
ATOM     11  O   UNL     1       4.491   7.008  16.877  0.00  0.00    +0.000 OA
ENDROOT
BRANCH   1  15
ATOM     12  C   UNL     1      -0.912  11.294  19.411  0.00  0.00    +0.000 A 
ATOM     13  C   UNL     1       0.397  11.397  19.903  0.00  0.00    +0.000 A 
ATOM     14  C   UNL     1       1.433  10.595  19.401  0.00  0.00    +0.000 A 
ATOM     15  C   UNL     1       1.177   9.661  18.394  0.00  0.00    +0.000 A 
ATOM     16  C   UNL     1      -0.130   9.554  17.897  0.00  0.00    +0.000 A 
ATOM     17  C   UNL     1      -1.164  10.364  18.399  0.00  0.00    +0.000 A 
BRANCH  12  19
ATOM     18  C   UNL     1      -1.813  12.227  21.430  0.00  0.00    +0.000 C 
ATOM     19  O   UNL     1      -1.788  12.162  20.010  0.00  0.00    +0.000 OA
ENDBRANCH  12  19
BRANCH  17  20
ATOM     20  O   UNL     1      -2.413  10.224  17.860  0.00  0.00    +0.000 OA
ATOM     21  H   UNL     1      -2.474   9.370  17.402  0.00  0.00    +0.000 HD
ENDBRANCH  17  20
ENDBRANCH   1  15
BRANCH   7  22
ATOM     22  O   UNL     1       4.985   2.313  19.588  0.00  0.00    +0.000 OA
ATOM     23  H   UNL     1       4.514   1.592  19.133  0.00  0.00    +0.000 HD
ENDBRANCH   7  22
TORSDOF 4
ENDMDL
