MODEL 1
REMARK VINA RESULT:      -8.1      0.000      0.000
REMARK  Name = 
REMARK  5 active torsions:
REMARK  status: ('A' for Active; 'I' for Inactive)
REMARK    1  A    between atoms: N_1  and  C_2
REMARK    2  A    between atoms: C_2  and  C_3
REMARK    3  A    between atoms: C_2  and  C_10
REMARK    4  A    between atoms: C_3  and  C_4
REMARK    5  A    between atoms: N_12  and  C_13
REMARK                            x       y       z     vdW  Elec       q    Type
REMARK                         _______ _______ _______ _____ _____    ______ ____
ROOT
ATOM      1  C   UNL     1       2.188   5.589  20.227  0.00  0.00    +0.000 C 
ATOM      2  O   UNL     1       1.075   5.245  20.599  0.00  0.00    +0.000 OA
ATOM      3  N   UNL     1       2.578   6.898  19.969  0.00  0.00    +0.000 N 
ATOM      4  H   UNL     1       3.469   7.015  19.486  0.00  0.00    +0.000 HD
ENDROOT
BRANCH   3   5
ATOM      5  C   UNL     1       1.821   8.063  20.244  0.00  0.00    +0.000 A 
ATOM      6  C   UNL     1       1.401   8.359  21.545  0.00  0.00    +0.000 A 
ATOM      7  C   UNL     1       0.579   9.456  21.800  0.00  0.00    +0.000 A 
ATOM      8  C   UNL     1      -0.074   9.580  23.102  0.00  0.00    +0.000 A 
ATOM      9  C   UNL     1      -1.080  10.451  23.229  0.00  0.00    +0.000 A 
ATOM     10  N   UNL     1      -1.352  11.368  22.248  0.00  0.00    +0.000 N 
ATOM     11  C   UNL     1      -0.660  11.460  21.057  0.00  0.00    +0.000 A 
ATOM     12  O   UNL     1      -0.809  12.393  20.278  0.00  0.00    +0.000 OA
ATOM     13  C   UNL     1       0.257  10.332  20.760  0.00  0.00    +0.000 A 
ATOM     14  C   UNL     1       0.695  10.083  19.458  0.00  0.00    +0.000 A 
ATOM     15  C   UNL     1       1.459   8.938  19.203  0.00  0.00    +0.000 A 
ATOM     16 CL   UNL     1       1.868   8.580  17.560  0.00  0.00    +0.000 Cl
ATOM     17  H   UNL     1      -2.045  12.090  22.413  0.00  0.00    +0.000 HD
ENDBRANCH   3   5
BRANCH   1  18
ATOM     18  C   UNL     1       3.292   4.548  19.932  0.00  0.00    +0.000 C 
BRANCH  18  19
ATOM     19  N   UNL     1       2.755   3.179  20.133  0.00  0.00    +0.000 NA
ATOM     20  H   UNL     1       1.733   3.236  20.140  0.00  0.00    +0.000 HD
ATOM     21  H   UNL     1       2.997   2.871  21.078  0.00  0.00    +0.000 HD
ENDBRANCH  18  19
BRANCH  18  22
ATOM     22  C   UNL     1       3.822   4.803  18.501  0.00  0.00    +0.000 C 
BRANCH  22  23
ATOM     23  C   UNL     1       5.179   5.450  18.356  0.00  0.00    +0.000 A 
ATOM     24  C   UNL     1       5.352   6.440  17.375  0.00  0.00    +0.000 A 
ATOM     25  C   UNL     1       6.576   7.092  17.224  0.00  0.00    +0.000 A 
ATOM     26  C   UNL     1       7.640   6.772  18.062  0.00  0.00    +0.000 A 
ATOM     27  C   UNL     1       7.473   5.815  19.060  0.00  0.00    +0.000 A 
ATOM     28  C   UNL     1       6.247   5.165  19.215  0.00  0.00    +0.000 A 
ENDBRANCH  22  23
ENDBRANCH  18  22
ENDBRANCH   1  18
TORSDOF 5
ENDMDL
MODEL 2
REMARK VINA RESULT:      -8.0      1.071      1.428
REMARK  Name = 
REMARK  5 active torsions:
REMARK  status: ('A' for Active; 'I' for Inactive)
REMARK    1  A    between atoms: N_1  and  C_2
REMARK    2  A    between atoms: C_2  and  C_3
REMARK    3  A    between atoms: C_2  and  C_10
REMARK    4  A    between atoms: C_3  and  C_4
REMARK    5  A    between atoms: N_12  and  C_13
REMARK                            x       y       z     vdW  Elec       q    Type
REMARK                         _______ _______ _______ _____ _____    ______ ____
ROOT
ATOM      1  C   UNL     1       2.141   5.373  20.235  0.00  0.00    +0.000 C 
ATOM      2  O   UNL     1       1.002   5.082  20.571  0.00  0.00    +0.000 OA
ATOM      3  N   UNL     1       2.602   6.662  19.997  0.00  0.00    +0.000 N 
ATOM      4  H   UNL     1       3.512   6.738  19.543  0.00  0.00    +0.000 HD
ENDROOT
BRANCH   3   5
ATOM      5  C   UNL     1       1.894   7.861  20.255  0.00  0.00    +0.000 A 
ATOM      6  C   UNL     1       1.457   8.177  21.545  0.00  0.00    +0.000 A 
ATOM      7  C   UNL     1       0.681   9.312  21.781  0.00  0.00    +0.000 A 
ATOM      8  C   UNL     1       0.004   9.467  23.068  0.00  0.00    +0.000 A 
ATOM      9  C   UNL     1      -0.962  10.384  23.171  0.00  0.00    +0.000 A 
ATOM     10  N   UNL     1      -1.169  11.312  22.184  0.00  0.00    +0.000 N 
ATOM     11  C   UNL     1      -0.445  11.371  21.010  0.00  0.00    +0.000 A 
ATOM     12  O   UNL     1      -0.533  12.309  20.228  0.00  0.00    +0.000 OA
ATOM     13  C   UNL     1       0.425  10.201  20.734  0.00  0.00    +0.000 A 
ATOM     14  C   UNL     1       0.882   9.931  19.442  0.00  0.00    +0.000 A 
ATOM     15  C   UNL     1       1.598   8.751  19.205  0.00  0.00    +0.000 A 
ATOM     16 CL   UNL     1       2.027   8.373  17.572  0.00  0.00    +0.000 Cl
ATOM     17  H   UNL     1      -1.831  12.066  22.333  0.00  0.00    +0.000 HD
ENDBRANCH   3   5
BRANCH   1  18
ATOM     18  C   UNL     1       3.202   4.281  19.969  0.00  0.00    +0.000 C 
BRANCH  18  19
ATOM     19  N   UNL     1       2.871   3.061  20.749  0.00  0.00    +0.000 NA
ATOM     20  H   UNL     1       3.140   2.245  20.191  0.00  0.00    +0.000 HD
ATOM     21  H   UNL     1       1.854   2.990  20.825  0.00  0.00    +0.000 HD
ENDBRANCH  18  19
BRANCH  18  22
ATOM     22  C   UNL     1       3.273   4.042  18.443  0.00  0.00    +0.000 C 
BRANCH  22  23
ATOM     23  C   UNL     1       4.600   4.260  17.755  0.00  0.00    +0.000 A 
ATOM     24  C   UNL     1       5.718   4.593  18.537  0.00  0.00    +0.000 A 
ATOM     25  C   UNL     1       6.973   4.771  17.952  0.00  0.00    +0.000 A 
ATOM     26  C   UNL     1       7.127   4.604  16.579  0.00  0.00    +0.000 A 
ATOM     27  C   UNL     1       6.034   4.242  15.796  0.00  0.00    +0.000 A 
ATOM     28  C   UNL     1       4.779   4.060  16.381  0.00  0.00    +0.000 A 
ENDBRANCH  22  23
ENDBRANCH  18  22
ENDBRANCH   1  18
TORSDOF 5
ENDMDL
MODEL 3
REMARK VINA RESULT:      -7.9      1.480      2.040
REMARK  Name = 
REMARK  5 active torsions:
REMARK  status: ('A' for Active; 'I' for Inactive)
REMARK    1  A    between atoms: N_1  and  C_2
REMARK    2  A    between atoms: C_2  and  C_3
REMARK    3  A    between atoms: C_2  and  C_10
REMARK    4  A    between atoms: C_3  and  C_4
REMARK    5  A    between atoms: N_12  and  C_13
REMARK                            x       y       z     vdW  Elec       q    Type
REMARK                         _______ _______ _______ _____ _____    ______ ____
ROOT
ATOM      1  C   UNL     1       1.804   4.906  20.623  0.00  0.00    +0.000 C 
ATOM      2  O   UNL     1       0.629   4.780  20.312  0.00  0.00    +0.000 OA
ATOM      3  N   UNL     1       2.518   6.097  20.594  0.00  0.00    +0.000 N 
ATOM      4  H   UNL     1       3.531   6.018  20.696  0.00  0.00    +0.000 HD
ENDROOT
BRANCH   3   5
ATOM      5  C   UNL     1       1.980   7.387  20.361  0.00  0.00    +0.000 A 
ATOM      6  C   UNL     1       1.346   8.098  21.385  0.00  0.00    +0.000 A 
ATOM      7  C   UNL     1       0.736   9.327  21.132  0.00  0.00    +0.000 A 
ATOM      8  C   UNL     1      -0.156   9.908  22.133  0.00  0.00    +0.000 A 
ATOM      9  C   UNL     1      -0.959  10.911  21.765  0.00  0.00    +0.000 A 
ATOM     10  N   UNL     1      -0.802  11.538  20.556  0.00  0.00    +0.000 N 
ATOM     11  C   UNL     1       0.147  11.187  19.617  0.00  0.00    +0.000 A 
ATOM     12  O   UNL     1       0.378  11.869  18.626  0.00  0.00    +0.000 OA
ATOM     13  C   UNL     1       0.851   9.904  19.864  0.00  0.00    +0.000 A 
ATOM     14  C   UNL     1       1.512   9.234  18.833  0.00  0.00    +0.000 A 
ATOM     15  C   UNL     1       2.057   7.969  19.082  0.00  0.00    +0.000 A 
ATOM     16 CL   UNL     1       2.745   7.102  17.752  0.00  0.00    +0.000 Cl
ATOM     17  H   UNL     1      -1.347  12.366  20.345  0.00  0.00    +0.000 HD
ENDBRANCH   3   5
BRANCH   1  18
ATOM     18  C   UNL     1       2.660   3.685  21.032  0.00  0.00    +0.000 C 
BRANCH  18  19
ATOM     19  N   UNL     1       1.942   2.893  22.063  0.00  0.00    +0.000 NA
ATOM     20  H   UNL     1       2.104   1.901  21.871  0.00  0.00    +0.000 HD
ATOM     21  H   UNL     1       0.936   3.016  21.924  0.00  0.00    +0.000 HD
ENDBRANCH  18  19
BRANCH  18  22
ATOM     22  C   UNL     1       2.993   2.882  19.753  0.00  0.00    +0.000 C 
BRANCH  22  23
ATOM     23  C   UNL     1       3.908   3.522  18.736  0.00  0.00    +0.000 A 
ATOM     24  C   UNL     1       5.110   4.098  19.178  0.00  0.00    +0.000 A 
ATOM     25  C   UNL     1       6.005   4.670  18.273  0.00  0.00    +0.000 A 
ATOM     26  C   UNL     1       5.715   4.661  16.912  0.00  0.00    +0.000 A 
ATOM     27  C   UNL     1       4.542   4.064  16.456  0.00  0.00    +0.000 A 
ATOM     28  C   UNL     1       3.648   3.487  17.360  0.00  0.00    +0.000 A 
ENDBRANCH  22  23
ENDBRANCH  18  22
ENDBRANCH   1  18
TORSDOF 5
ENDMDL
MODEL 4
REMARK VINA RESULT:      -7.8      1.036      1.191
REMARK  Name = 
REMARK  5 active torsions:
REMARK  status: ('A' for Active; 'I' for Inactive)
REMARK    1  A    between atoms: N_1  and  C_2
REMARK    2  A    between atoms: C_2  and  C_3
REMARK    3  A    between atoms: C_2  and  C_10
REMARK    4  A    between atoms: C_3  and  C_4
REMARK    5  A    between atoms: N_12  and  C_13
REMARK                            x       y       z     vdW  Elec       q    Type
REMARK                         _______ _______ _______ _____ _____    ______ ____
ROOT
ATOM      1  C   UNL     1       2.198   5.608  20.111  0.00  0.00    +0.000 C 
ATOM      2  O   UNL     1       1.066   5.251  20.402  0.00  0.00    +0.000 OA
ATOM      3  N   UNL     1       2.604   6.926  19.941  0.00  0.00    +0.000 N 
ATOM      4  H   UNL     1       3.522   7.063  19.516  0.00  0.00    +0.000 HD
ENDROOT
BRANCH   3   5
ATOM      5  C   UNL     1       1.836   8.080  20.232  0.00  0.00    +0.000 A 
ATOM      6  C   UNL     1       1.430   8.364  21.540  0.00  0.00    +0.000 A 
ATOM      7  C   UNL     1       0.597   9.449  21.811  0.00  0.00    +0.000 A 
ATOM      8  C   UNL     1      -0.040   9.558  23.123  0.00  0.00    +0.000 A 
ATOM      9  C   UNL     1      -1.055  10.415  23.268  0.00  0.00    +0.000 A 
ATOM     10  N   UNL     1      -1.354  11.332  22.294  0.00  0.00    +0.000 N 
ATOM     11  C   UNL     1      -0.681  11.439  21.094  0.00  0.00    +0.000 A 
ATOM     12  O   UNL     1      -0.853  12.373  20.321  0.00  0.00    +0.000 OA
ATOM     13  C   UNL     1       0.248  10.325  20.779  0.00  0.00    +0.000 A 
ATOM     14  C   UNL     1       0.671  10.087  19.470  0.00  0.00    +0.000 A 
ATOM     15  C   UNL     1       1.447   8.954  19.199  0.00  0.00    +0.000 A 
ATOM     16 CL   UNL     1       1.837   8.608  17.550  0.00  0.00    +0.000 Cl
ATOM     17  H   UNL     1      -2.054  12.044  22.472  0.00  0.00    +0.000 HD
ENDBRANCH   3   5
BRANCH   1  18
ATOM     18  C   UNL     1       3.315   4.578  19.826  0.00  0.00    +0.000 C 
BRANCH  18  19
ATOM     19  N   UNL     1       2.881   3.655  18.747  0.00  0.00    +0.000 NA
ATOM     20  H   UNL     1       2.698   4.211  17.907  0.00  0.00    +0.000 HD
ATOM     21  H   UNL     1       1.967   3.269  18.997  0.00  0.00    +0.000 HD
ENDBRANCH  18  19
BRANCH  18  22
ATOM     22  C   UNL     1       4.611   5.354  19.494  0.00  0.00    +0.000 C 
BRANCH  22  23
ATOM     23  C   UNL     1       5.132   5.287  18.078  0.00  0.00    +0.000 A 
ATOM     24  C   UNL     1       4.671   6.229  17.145  0.00  0.00    +0.000 A 
ATOM     25  C   UNL     1       5.148   6.230  15.834  0.00  0.00    +0.000 A 
ATOM     26  C   UNL     1       6.104   5.297  15.443  0.00  0.00    +0.000 A 
ATOM     27  C   UNL     1       6.595   4.378  16.367  0.00  0.00    +0.000 A 
ATOM     28  C   UNL     1       6.121   4.379  17.681  0.00  0.00    +0.000 A 
ENDBRANCH  22  23
ENDBRANCH  18  22
ENDBRANCH   1  18
TORSDOF 5
ENDMDL
MODEL 5
REMARK VINA RESULT:      -7.7      2.846      7.368
REMARK  Name = 
REMARK  5 active torsions:
REMARK  status: ('A' for Active; 'I' for Inactive)
REMARK    1  A    between atoms: N_1  and  C_2
REMARK    2  A    between atoms: C_2  and  C_3
REMARK    3  A    between atoms: C_2  and  C_10
REMARK    4  A    between atoms: C_3  and  C_4
REMARK    5  A    between atoms: N_12  and  C_13
REMARK                            x       y       z     vdW  Elec       q    Type
REMARK                         _______ _______ _______ _____ _____    ______ ____
ROOT
ATOM      1  C   UNL     1       0.573   8.260  21.427  0.00  0.00    +0.000 C 
ATOM      2  O   UNL     1      -0.541   7.760  21.371  0.00  0.00    +0.000 OA
ATOM      3  N   UNL     1       1.734   7.689  20.922  0.00  0.00    +0.000 N 
ATOM      4  H   UNL     1       2.612   8.125  21.207  0.00  0.00    +0.000 HD
ENDROOT
BRANCH   3   5
ATOM      5  C   UNL     1       1.810   6.523  20.121  0.00  0.00    +0.000 A 
ATOM      6  C   UNL     1       1.476   5.268  20.642  0.00  0.00    +0.000 A 
ATOM      7  C   UNL     1       1.639   4.111  19.881  0.00  0.00    +0.000 A 
ATOM      8  C   UNL     1       1.559   2.804  20.532  0.00  0.00    +0.000 A 
ATOM      9  C   UNL     1       2.012   1.735  19.869  0.00  0.00    +0.000 A 
ATOM     10  N   UNL     1       2.332   1.807  18.539  0.00  0.00    +0.000 N 
ATOM     11  C   UNL     1       2.254   2.960  17.783  0.00  0.00    +0.000 A 
ATOM     12  O   UNL     1       2.378   2.959  16.565  0.00  0.00    +0.000 OA
ATOM     13  C   UNL     1       2.042   4.214  18.547  0.00  0.00    +0.000 A 
ATOM     14  C   UNL     1       2.344   5.458  17.989  0.00  0.00    +0.000 A 
ATOM     15  C   UNL     1       2.246   6.605  18.785  0.00  0.00    +0.000 A 
ATOM     16 CL   UNL     1       2.763   8.112  18.111  0.00  0.00    +0.000 Cl
ATOM     17  H   UNL     1       2.565   0.961  18.032  0.00  0.00    +0.000 HD
ENDBRANCH   3   5
BRANCH   1  18
ATOM     18  C   UNL     1       0.813   9.603  22.155  0.00  0.00    +0.000 C 
BRANCH  18  19
ATOM     19  N   UNL     1       1.997   9.485  23.042  0.00  0.00    +0.000 NA
ATOM     20  H   UNL     1       2.566  10.329  22.928  0.00  0.00    +0.000 HD
ATOM     21  H   UNL     1       2.593   8.731  22.692  0.00  0.00    +0.000 HD
ENDBRANCH  18  19
BRANCH  18  22
ATOM     22  C   UNL     1       0.947  10.712  21.085  0.00  0.00    +0.000 C 
BRANCH  22  23
ATOM     23  C   UNL     1      -0.205  10.913  20.128  0.00  0.00    +0.000 A 
ATOM     24  C   UNL     1      -1.228  11.806  20.484  0.00  0.00    +0.000 A 
ATOM     25  C   UNL     1      -2.296  12.053  19.620  0.00  0.00    +0.000 A 
ATOM     26  C   UNL     1      -2.346  11.418  18.382  0.00  0.00    +0.000 A 
ATOM     27  C   UNL     1      -1.322  10.554  18.003  0.00  0.00    +0.000 A 
ATOM     28  C   UNL     1      -0.251  10.310  18.865  0.00  0.00    +0.000 A 
ENDBRANCH  22  23
ENDBRANCH  18  22
ENDBRANCH   1  18
TORSDOF 5
ENDMDL
MODEL 6
REMARK VINA RESULT:      -7.6      3.258      8.256
REMARK  Name = 
REMARK  5 active torsions:
REMARK  status: ('A' for Active; 'I' for Inactive)
REMARK    1  A    between atoms: N_1  and  C_2
REMARK    2  A    between atoms: C_2  and  C_3
REMARK    3  A    between atoms: C_2  and  C_10
REMARK    4  A    between atoms: C_3  and  C_4
REMARK    5  A    between atoms: N_12  and  C_13
REMARK                            x       y       z     vdW  Elec       q    Type
REMARK                         _______ _______ _______ _____ _____    ______ ____
ROOT
ATOM      1  C   UNL     1       1.467   9.786  18.391  0.00  0.00    +0.000 C 
ATOM      2  O   UNL     1       2.091  10.002  17.362  0.00  0.00    +0.000 OA
ATOM      3  N   UNL     1       1.538   8.619  19.142  0.00  0.00    +0.000 N 
ATOM      4  H   UNL     1       0.826   8.504  19.863  0.00  0.00    +0.000 HD
ENDROOT
BRANCH   3   5
ATOM      5  C   UNL     1       2.452   7.555  18.944  0.00  0.00    +0.000 A 
ATOM      6  C   UNL     1       3.353   7.568  17.875  0.00  0.00    +0.000 A 
ATOM      7  C   UNL     1       4.188   6.479  17.629  0.00  0.00    +0.000 A 
ATOM      8  C   UNL     1       4.906   6.394  16.357  0.00  0.00    +0.000 A 
ATOM      9  C   UNL     1       5.450   5.223  16.011  0.00  0.00    +0.000 A 
ATOM     10  N   UNL     1       5.539   4.190  16.906  0.00  0.00    +0.000 N 
ATOM     11  C   UNL     1       5.063   4.240  18.201  0.00  0.00    +0.000 A 
ATOM     12  O   UNL     1       5.309   3.372  19.028  0.00  0.00    +0.000 OA
ATOM     13  C   UNL     1       4.200   5.404  18.522  0.00  0.00    +0.000 A 
ATOM     14  C   UNL     1       3.338   5.381  19.620  0.00  0.00    +0.000 A 
ATOM     15  C   UNL     1       2.453   6.449  19.815  0.00  0.00    +0.000 A 
ATOM     16 CL   UNL     1       1.302   6.329  21.100  0.00  0.00    +0.000 Cl
ATOM     17  H   UNL     1       6.054   3.353  16.657  0.00  0.00    +0.000 HD
ENDBRANCH   3   5
BRANCH   1  18
ATOM     18  C   UNL     1       0.447  10.810  18.940  0.00  0.00    +0.000 C 
BRANCH  18  19
ATOM     19  N   UNL     1       0.437  12.018  18.077  0.00  0.00    +0.000 NA
ATOM     20  H   UNL     1       0.462  12.843  18.684  0.00  0.00    +0.000 HD
ATOM     21  H   UNL     1      -0.472  12.076  17.610  0.00  0.00    +0.000 HD
ENDBRANCH  18  19
BRANCH  18  22
ATOM     22  C   UNL     1      -0.928  10.110  19.044  0.00  0.00    +0.000 C 
BRANCH  22  23
ATOM     23  C   UNL     1      -1.965  10.430  17.994  0.00  0.00    +0.000 A 
ATOM     24  C   UNL     1      -1.897   9.769  16.756  0.00  0.00    +0.000 A 
ATOM     25  C   UNL     1      -2.851  10.004  15.766  0.00  0.00    +0.000 A 
ATOM     26  C   UNL     1      -3.894  10.894  16.006  0.00  0.00    +0.000 A 
ATOM     27  C   UNL     1      -3.992  11.531  17.240  0.00  0.00    +0.000 A 
ATOM     28  C   UNL     1      -3.041  11.294  18.234  0.00  0.00    +0.000 A 
ENDBRANCH  22  23
ENDBRANCH  18  22
ENDBRANCH   1  18
TORSDOF 5
ENDMDL
MODEL 7
REMARK VINA RESULT:      -7.5      3.533      4.520
REMARK  Name = 
REMARK  5 active torsions:
REMARK  status: ('A' for Active; 'I' for Inactive)
REMARK    1  A    between atoms: N_1  and  C_2
REMARK    2  A    between atoms: C_2  and  C_3
REMARK    3  A    between atoms: C_2  and  C_10
REMARK    4  A    between atoms: C_3  and  C_4
REMARK    5  A    between atoms: N_12  and  C_13
REMARK                            x       y       z     vdW  Elec       q    Type
REMARK                         _______ _______ _______ _____ _____    ______ ____
ROOT
ATOM      1  C   UNL     1       5.485   6.170  17.451  0.00  0.00    +0.000 C 
ATOM      2  O   UNL     1       5.991   7.278  17.553  0.00  0.00    +0.000 OA
ATOM      3  N   UNL     1       4.234   5.812  17.938  0.00  0.00    +0.000 N 
ATOM      4  H   UNL     1       4.024   4.814  17.949  0.00  0.00    +0.000 HD
ENDROOT
BRANCH   3   5
ATOM      5  C   UNL     1       3.269   6.693  18.484  0.00  0.00    +0.000 A 
ATOM      6  C   UNL     1       2.964   7.906  17.859  0.00  0.00    +0.000 A 
ATOM      7  C   UNL     1       2.082   8.813  18.446  0.00  0.00    +0.000 A 
ATOM      8  C   UNL     1       2.000  10.177  17.926  0.00  0.00    +0.000 A 
ATOM      9  C   UNL     1       1.393  11.106  18.672  0.00  0.00    +0.000 A 
ATOM     10  N   UNL     1       0.667  10.762  19.782  0.00  0.00    +0.000 N 
ATOM     11  C   UNL     1       0.521   9.470  20.245  0.00  0.00    +0.000 A 
ATOM     12  O   UNL     1      -0.269   9.172  21.131  0.00  0.00    +0.000 OA
ATOM     13  C   UNL     1       1.413   8.461  19.621  0.00  0.00    +0.000 A 
ATOM     14  C   UNL     1       1.669   7.239  20.247  0.00  0.00    +0.000 A 
ATOM     15  C   UNL     1       2.611   6.369  19.686  0.00  0.00    +0.000 A 
ATOM     16 CL   UNL     1       3.011   4.929  20.557  0.00  0.00    +0.000 Cl
ATOM     17  H   UNL     1       0.125  11.468  20.266  0.00  0.00    +0.000 HD
ENDBRANCH   3   5
BRANCH   1  18
ATOM     18  C   UNL     1       6.252   4.996  16.800  0.00  0.00    +0.000 C 
BRANCH  18  19
ATOM     19  N   UNL     1       6.642   4.014  17.843  0.00  0.00    +0.000 NA
ATOM     20  H   UNL     1       7.038   3.194  17.376  0.00  0.00    +0.000 HD
ATOM     21  H   UNL     1       5.793   3.662  18.292  0.00  0.00    +0.000 HD
ENDBRANCH  18  19
BRANCH  18  22
ATOM     22  C   UNL     1       5.359   4.398  15.688  0.00  0.00    +0.000 C 
BRANCH  22  23
ATOM     23  C   UNL     1       5.939   4.293  14.297  0.00  0.00    +0.000 A 
ATOM     24  C   UNL     1       7.122   4.992  14.005  0.00  0.00    +0.000 A 
ATOM     25  C   UNL     1       7.716   4.899  12.746  0.00  0.00    +0.000 A 
ATOM     26  C   UNL     1       7.140   4.096  11.766  0.00  0.00    +0.000 A 
ATOM     27  C   UNL     1       5.986   3.372  12.051  0.00  0.00    +0.000 A 
ATOM     28  C   UNL     1       5.393   3.460  13.313  0.00  0.00    +0.000 A 
ENDBRANCH  22  23
ENDBRANCH  18  22
ENDBRANCH   1  18
TORSDOF 5
ENDMDL
MODEL 8
REMARK VINA RESULT:      -7.5      4.372      8.550
REMARK  Name = 
REMARK  5 active torsions:
REMARK  status: ('A' for Active; 'I' for Inactive)
REMARK    1  A    between atoms: N_1  and  C_2
REMARK    2  A    between atoms: C_2  and  C_3
REMARK    3  A    between atoms: C_2  and  C_10
REMARK    4  A    between atoms: C_3  and  C_4
REMARK    5  A    between atoms: N_12  and  C_13
REMARK                            x       y       z     vdW  Elec       q    Type
REMARK                         _______ _______ _______ _____ _____    ______ ____
ROOT
ATOM      1  C   UNL     1       3.473   3.011  17.685  0.00  0.00    +0.000 C 
ATOM      2  O   UNL     1       2.768   2.884  16.695  0.00  0.00    +0.000 OA
ATOM      3  N   UNL     1       4.804   3.412  17.676  0.00  0.00    +0.000 N 
ATOM      4  H   UNL     1       5.317   3.291  18.549  0.00  0.00    +0.000 HD
ENDROOT
BRANCH   3   5
ATOM      5  C   UNL     1       5.521   3.895  16.554  0.00  0.00    +0.000 A 
ATOM      6  C   UNL     1       5.102   3.604  15.252  0.00  0.00    +0.000 A 
ATOM      7  C   UNL     1       5.860   4.002  14.150  0.00  0.00    +0.000 A 
ATOM      8  C   UNL     1       5.559   3.447  12.831  0.00  0.00    +0.000 A 
ATOM      9  C   UNL     1       6.464   3.594  11.858  0.00  0.00    +0.000 A 
ATOM     10  N   UNL     1       7.540   4.428  12.009  0.00  0.00    +0.000 N 
ATOM     11  C   UNL     1       7.806   5.152  13.154  0.00  0.00    +0.000 A 
ATOM     12  O   UNL     1       8.671   6.017  13.201  0.00  0.00    +0.000 OA
ATOM     13  C   UNL     1       6.996   4.790  14.344  0.00  0.00    +0.000 A 
ATOM     14  C   UNL     1       7.417   5.129  15.632  0.00  0.00    +0.000 A 
ATOM     15  C   UNL     1       6.688   4.662  16.732  0.00  0.00    +0.000 A 
ATOM     16 CL   UNL     1       7.310   4.976  18.315  0.00  0.00    +0.000 Cl
ATOM     17  H   UNL     1       8.150   4.610  11.220  0.00  0.00    +0.000 HD
ENDBRANCH   3   5
BRANCH   1  18
ATOM     18  C   UNL     1       2.947   2.660  19.096  0.00  0.00    +0.000 C 
BRANCH  18  19
ATOM     19  N   UNL     1       4.019   2.879  20.099  0.00  0.00    +0.000 NA
ATOM     20  H   UNL     1       3.763   3.692  20.666  0.00  0.00    +0.000 HD
ATOM     21  H   UNL     1       4.868   3.170  19.609  0.00  0.00    +0.000 HD
ENDBRANCH  18  19
BRANCH  18  22
ATOM     22  C   UNL     1       1.673   3.498  19.355  0.00  0.00    +0.000 C 
BRANCH  22  23
ATOM     23  C   UNL     1       1.814   5.001  19.402  0.00  0.00    +0.000 A 
ATOM     24  C   UNL     1       1.627   5.657  20.630  0.00  0.00    +0.000 A 
ATOM     25  C   UNL     1       1.780   7.040  20.732  0.00  0.00    +0.000 A 
ATOM     26  C   UNL     1       2.136   7.783  19.610  0.00  0.00    +0.000 A 
ATOM     27  C   UNL     1       2.356   7.142  18.394  0.00  0.00    +0.000 A 
ATOM     28  C   UNL     1       2.207   5.757  18.291  0.00  0.00    +0.000 A 
ENDBRANCH  22  23
ENDBRANCH  18  22
ENDBRANCH   1  18
TORSDOF 5
ENDMDL
MODEL 9
REMARK VINA RESULT:      -7.5      1.452      1.661
REMARK  Name = 
REMARK  5 active torsions:
REMARK  status: ('A' for Active; 'I' for Inactive)
REMARK    1  A    between atoms: N_1  and  C_2
REMARK    2  A    between atoms: C_2  and  C_3
REMARK    3  A    between atoms: C_2  and  C_10
REMARK    4  A    between atoms: C_3  and  C_4
REMARK    5  A    between atoms: N_12  and  C_13
REMARK                            x       y       z     vdW  Elec       q    Type
REMARK                         _______ _______ _______ _____ _____    ______ ____
ROOT
ATOM      1  C   UNL     1       2.509   4.848  19.394  0.00  0.00    +0.000 C 
ATOM      2  O   UNL     1       1.513   4.710  18.698  0.00  0.00    +0.000 OA
ATOM      3  N   UNL     1       2.989   6.059  19.874  0.00  0.00    +0.000 N 
ATOM      4  H   UNL     1       3.927   6.044  20.277  0.00  0.00    +0.000 HD
ENDROOT
BRANCH   3   5
ATOM      5  C   UNL     1       2.333   7.311  19.785  0.00  0.00    +0.000 A 
ATOM      6  C   UNL     1       1.605   7.822  20.864  0.00  0.00    +0.000 A 
ATOM      7  C   UNL     1       0.884   9.010  20.744  0.00  0.00    +0.000 A 
ATOM      8  C   UNL     1      -0.087   9.370  21.776  0.00  0.00    +0.000 A 
ATOM      9  C   UNL     1      -0.975  10.332  21.506  0.00  0.00    +0.000 A 
ATOM     10  N   UNL     1      -0.849  11.121  20.392  0.00  0.00    +0.000 N 
ATOM     11  C   UNL     1       0.153  10.985  19.453  0.00  0.00    +0.000 A 
ATOM     12  O   UNL     1       0.342  11.808  18.566  0.00  0.00    +0.000 OA
ATOM     13  C   UNL     1       0.973   9.754  19.565  0.00  0.00    +0.000 A 
ATOM     14  C   UNL     1       1.725   9.287  18.484  0.00  0.00    +0.000 A 
ATOM     15  C   UNL     1       2.385   8.058  18.592  0.00  0.00    +0.000 A 
ATOM     16 CL   UNL     1       3.189   7.438  17.192  0.00  0.00    +0.000 Cl
ATOM     17  H   UNL     1      -1.468  11.914  20.266  0.00  0.00    +0.000 HD
ENDBRANCH   3   5
BRANCH   1  18
ATOM     18  C   UNL     1       3.402   3.641  19.764  0.00  0.00    +0.000 C 
BRANCH  18  19
ATOM     19  N   UNL     1       2.604   2.639  20.513  0.00  0.00    +0.000 NA
ATOM     20  H   UNL     1       2.598   2.911  21.501  0.00  0.00    +0.000 HD
ATOM     21  H   UNL     1       3.106   1.748  20.501  0.00  0.00    +0.000 HD
ENDBRANCH  18  19
BRANCH  18  22
ATOM     22  C   UNL     1       4.026   3.089  18.461  0.00  0.00    +0.000 C 
BRANCH  22  23
ATOM     23  C   UNL     1       4.990   3.975  17.708  0.00  0.00    +0.000 A 
ATOM     24  C   UNL     1       4.743   4.239  16.351  0.00  0.00    +0.000 A 
ATOM     25  C   UNL     1       5.584   5.080  15.621  0.00  0.00    +0.000 A 
ATOM     26  C   UNL     1       6.676   5.678  16.243  0.00  0.00    +0.000 A 
ATOM     27  C   UNL     1       6.913   5.452  17.596  0.00  0.00    +0.000 A 
ATOM     28  C   UNL     1       6.070   4.614  18.329  0.00  0.00    +0.000 A 
ENDBRANCH  22  23
ENDBRANCH  18  22
ENDBRANCH   1  18
TORSDOF 5
ENDMDL
