MODEL 1
REMARK VINA RESULT:      -7.6      0.000      0.000
REMARK  Name = 
REMARK  9 active torsions:
REMARK  status: ('A' for Active; 'I' for Inactive)
REMARK    1  A    between atoms: C_1  and  C_2
REMARK    2  A    between atoms: C_2  and  C_3
REMARK    3  A    between atoms: C_3  and  C_4
REMARK    4  A    between atoms: C_5  and  C_6
REMARK    5  A    between atoms: C_6  and  N_7
REMARK    6  A    between atoms: C_11  and  C_12
REMARK    7  A    between atoms: C_23  and  O_24
REMARK    8  A    between atoms: O_24  and  C_25
REMARK    9  A    between atoms: C_25  and  C_26
REMARK                            x       y       z     vdW  Elec       q    Type
REMARK                         _______ _______ _______ _____ _____    ______ ____
ROOT
ATOM      1  C   UNL     1       2.351   7.155  19.409  0.00  0.00    +0.000 A 
ATOM      2  C   UNL     1       2.736   7.447  18.132  0.00  0.00    +0.000 A 
ATOM      3  N   UNL     1       2.459   8.665  17.498  0.00  0.00    +0.000 NA
ATOM      4  C   UNL     1       1.872   9.605  18.181  0.00  0.00    +0.000 A 
ATOM      5  N   UNL     1       1.496   9.379  19.488  0.00  0.00    +0.000 N 
ATOM      6  N   UNL     1       0.884  10.282  20.271  0.00  0.00    +0.000 NA
ATOM      7  C   UNL     1       0.784   9.586  21.407  0.00  0.00    +0.000 A 
ATOM      8  N   UNL     1       1.275   8.307  21.373  0.00  0.00    +0.000 NA
ATOM      9  C   UNL     1       1.708   8.200  20.137  0.00  0.00    +0.000 A 
ENDROOT
BRANCH   1  10
ATOM     10  C   UNL     1       2.583   5.808  20.071  0.00  0.00    +0.000 C 
BRANCH  10  12
ATOM     11  C   UNL     1       1.204   3.825  20.767  0.00  0.00    +0.000 C 
ATOM     12  C   UNL     1       1.525   4.793  19.642  0.00  0.00    +0.000 C 
ENDBRANCH  10  12
ENDBRANCH   1  10
BRANCH   2  13
ATOM     13  C   UNL     1       3.521   6.458  17.259  0.00  0.00    +0.000 C 
BRANCH  13  14
ATOM     14  N   UNL     1       4.946   6.314  17.573  0.00  0.00    +0.000 N 
ATOM     15  C   UNL     1       5.922   7.274  17.429  0.00  0.00    +0.000 A 
ATOM     16  C   UNL     1       7.093   6.677  17.790  0.00  0.00    +0.000 A 
ATOM     17  N   UNL     1       6.867   5.398  18.202  0.00  0.00    +0.000 NA
ATOM     18  C   UNL     1       5.564   5.166  18.069  0.00  0.00    +0.000 A 
BRANCH  18  19
ATOM     19  C   UNL     1       4.934   3.865  18.365  0.00  0.00    +0.000 A 
ATOM     20  N   UNL     1       5.085   3.378  19.628  0.00  0.00    +0.000 NA
ATOM     21  C   UNL     1       4.429   2.231  19.934  0.00  0.00    +0.000 A 
ATOM     22  C   UNL     1       3.611   1.545  19.051  0.00  0.00    +0.000 A 
ATOM     23  C   UNL     1       3.491   2.034  17.758  0.00  0.00    +0.000 A 
ATOM     24  C   UNL     1       4.170   3.197  17.406  0.00  0.00    +0.000 A 
ATOM     25  F   UNL     1       4.042   3.641  16.147  0.00  0.00    +0.000 F 
ENDBRANCH  18  19
ENDBRANCH  13  14
ENDBRANCH   2  13
BRANCH   7  26
ATOM     26  O   UNL     1       0.218  10.221  22.449  0.00  0.00    +0.000 OA
BRANCH  26  27
ATOM     27  C   UNL     1      -0.462  11.403  22.030  0.00  0.00    +0.000 C 
ATOM     28  C   UNL     1      -1.534  11.725  23.057  0.00  0.00    +0.000 C 
ENDBRANCH  26  27
ENDBRANCH   7  26
TORSDOF 7
ENDMDL
MODEL 2
REMARK VINA RESULT:      -7.5      3.895      8.048
REMARK  Name = 
REMARK  9 active torsions:
REMARK  status: ('A' for Active; 'I' for Inactive)
REMARK    1  A    between atoms: C_1  and  C_2
REMARK    2  A    between atoms: C_2  and  C_3
REMARK    3  A    between atoms: C_3  and  C_4
REMARK    4  A    between atoms: C_5  and  C_6
REMARK    5  A    between atoms: C_6  and  N_7
REMARK    6  A    between atoms: C_11  and  C_12
REMARK    7  A    between atoms: C_23  and  O_24
REMARK    8  A    between atoms: O_24  and  C_25
REMARK    9  A    between atoms: C_25  and  C_26
REMARK                            x       y       z     vdW  Elec       q    Type
REMARK                         _______ _______ _______ _____ _____    ______ ____
ROOT
ATOM      1  C   UNL     1       6.247   5.590  17.262  0.00  0.00    +0.000 A 
ATOM      2  C   UNL     1       5.117   5.193  17.917  0.00  0.00    +0.000 A 
ATOM      3  N   UNL     1       4.086   4.463  17.312  0.00  0.00    +0.000 NA
ATOM      4  C   UNL     1       4.240   4.068  16.081  0.00  0.00    +0.000 A 
ATOM      5  N   UNL     1       5.380   4.407  15.384  0.00  0.00    +0.000 N 
ATOM      6  N   UNL     1       5.628   4.050  14.112  0.00  0.00    +0.000 NA
ATOM      7  C   UNL     1       6.840   4.588  13.946  0.00  0.00    +0.000 A 
ATOM      8  N   UNL     1       7.349   5.268  15.021  0.00  0.00    +0.000 NA
ATOM      9  C   UNL     1       6.392   5.147  15.914  0.00  0.00    +0.000 A 
ENDROOT
BRANCH   1  10
ATOM     10  C   UNL     1       7.330   6.448  17.894  0.00  0.00    +0.000 C 
BRANCH  10  12
ATOM     11  C   UNL     1       8.274   8.768  18.096  0.00  0.00    +0.000 C 
ATOM     12  C   UNL     1       7.250   7.890  17.398  0.00  0.00    +0.000 C 
ENDBRANCH  10  12
ENDBRANCH   1  10
BRANCH   2  13
ATOM     13  C   UNL     1       4.864   5.512  19.397  0.00  0.00    +0.000 C 
BRANCH  13  14
ATOM     14  N   UNL     1       3.594   5.031  19.950  0.00  0.00    +0.000 N 
ATOM     15  C   UNL     1       3.350   3.793  20.498  0.00  0.00    +0.000 A 
ATOM     16  C   UNL     1       2.027   3.780  20.826  0.00  0.00    +0.000 A 
ATOM     17  N   UNL     1       1.457   4.986  20.548  0.00  0.00    +0.000 NA
ATOM     18  C   UNL     1       2.401   5.753  20.010  0.00  0.00    +0.000 A 
BRANCH  18  19
ATOM     19  C   UNL     1       2.157   7.124  19.522  0.00  0.00    +0.000 A 
ATOM     20  N   UNL     1       2.441   7.375  18.214  0.00  0.00    +0.000 NA
ATOM     21  C   UNL     1       2.127   8.604  17.735  0.00  0.00    +0.000 A 
ATOM     22  C   UNL     1       1.528   9.602  18.488  0.00  0.00    +0.000 A 
ATOM     23  C   UNL     1       1.274   9.344  19.827  0.00  0.00    +0.000 A 
ATOM     24  C   UNL     1       1.604   8.099  20.354  0.00  0.00    +0.000 A 
ATOM     25  F   UNL     1       1.355   7.883  21.654  0.00  0.00    +0.000 F 
ENDBRANCH  18  19
ENDBRANCH  13  14
ENDBRANCH   2  13
BRANCH   7  26
ATOM     26  O   UNL     1       7.419   4.394  12.747  0.00  0.00    +0.000 OA
BRANCH  26  27
ATOM     27  C   UNL     1       6.583   3.626  11.883  0.00  0.00    +0.000 C 
ATOM     28  C   UNL     1       7.373   2.422  11.403  0.00  0.00    +0.000 C 
ENDBRANCH  26  27
ENDBRANCH   7  26
TORSDOF 7
ENDMDL
MODEL 3
REMARK VINA RESULT:      -7.5      2.023      2.835
REMARK  Name = 
REMARK  9 active torsions:
REMARK  status: ('A' for Active; 'I' for Inactive)
REMARK    1  A    between atoms: C_1  and  C_2
REMARK    2  A    between atoms: C_2  and  C_3
REMARK    3  A    between atoms: C_3  and  C_4
REMARK    4  A    between atoms: C_5  and  C_6
REMARK    5  A    between atoms: C_6  and  N_7
REMARK    6  A    between atoms: C_11  and  C_12
REMARK    7  A    between atoms: C_23  and  O_24
REMARK    8  A    between atoms: O_24  and  C_25
REMARK    9  A    between atoms: C_25  and  C_26
REMARK                            x       y       z     vdW  Elec       q    Type
REMARK                         _______ _______ _______ _____ _____    ______ ____
ROOT
ATOM      1  C   UNL     1       2.707   6.278  19.483  0.00  0.00    +0.000 A 
ATOM      2  C   UNL     1       3.405   6.277  18.310  0.00  0.00    +0.000 A 
ATOM      3  N   UNL     1       3.393   7.342  17.399  0.00  0.00    +0.000 NA
ATOM      4  C   UNL     1       2.748   8.427  17.716  0.00  0.00    +0.000 A 
ATOM      5  N   UNL     1       2.057   8.497  18.907  0.00  0.00    +0.000 N 
ATOM      6  N   UNL     1       1.360   9.569  19.320  0.00  0.00    +0.000 NA
ATOM      7  C   UNL     1       0.935   9.134  20.511  0.00  0.00    +0.000 A 
ATOM      8  N   UNL     1       1.305   7.860  20.852  0.00  0.00    +0.000 NA
ATOM      9  C   UNL     1       2.005   7.477  19.808  0.00  0.00    +0.000 A 
ENDROOT
BRANCH   1  10
ATOM     10  C   UNL     1       2.657   5.094  20.434  0.00  0.00    +0.000 C 
BRANCH  10  12
ATOM     11  C   UNL     1       1.350   3.044  21.068  0.00  0.00    +0.000 C 
ATOM     12  C   UNL     1       1.303   4.389  20.367  0.00  0.00    +0.000 C 
ENDBRANCH  10  12
ENDBRANCH   1  10
BRANCH   2  13
ATOM     13  C   UNL     1       4.283   5.097  17.871  0.00  0.00    +0.000 C 
BRANCH  13  14
ATOM     14  N   UNL     1       5.709   5.199  18.198  0.00  0.00    +0.000 N 
ATOM     15  C   UNL     1       6.253   5.457  19.435  0.00  0.00    +0.000 A 
ATOM     16  C   UNL     1       7.603   5.512  19.248  0.00  0.00    +0.000 A 
ATOM     17  N   UNL     1       7.914   5.245  17.949  0.00  0.00    +0.000 NA
ATOM     18  C   UNL     1       6.767   5.058  17.300  0.00  0.00    +0.000 A 
BRANCH  18  19
ATOM     19  C   UNL     1       6.686   4.797  15.850  0.00  0.00    +0.000 A 
ATOM     20  N   UNL     1       7.426   5.600  15.035  0.00  0.00    +0.000 NA
ATOM     21  C   UNL     1       7.432   5.304  13.711  0.00  0.00    +0.000 A 
ATOM     22  C   UNL     1       6.749   4.237  13.150  0.00  0.00    +0.000 A 
ATOM     23  C   UNL     1       5.974   3.447  13.987  0.00  0.00    +0.000 A 
ATOM     24  C   UNL     1       5.929   3.737  15.348  0.00  0.00    +0.000 A 
ATOM     25  F   UNL     1       5.165   2.962  16.129  0.00  0.00    +0.000 F 
ENDBRANCH  18  19
ENDBRANCH  13  14
ENDBRANCH   2  13
BRANCH   7  26
ATOM     26  O   UNL     1       0.199   9.997  21.233  0.00  0.00    +0.000 OA
BRANCH  26  27
ATOM     27  C   UNL     1      -0.377   9.363  22.374  0.00  0.00    +0.000 C 
ATOM     28  C   UNL     1      -1.015  10.432  23.243  0.00  0.00    +0.000 C 
ENDBRANCH  26  27
ENDBRANCH   7  26
TORSDOF 7
ENDMDL
MODEL 4
REMARK VINA RESULT:      -7.1      3.032      6.408
REMARK  Name = 
REMARK  9 active torsions:
REMARK  status: ('A' for Active; 'I' for Inactive)
REMARK    1  A    between atoms: C_1  and  C_2
REMARK    2  A    between atoms: C_2  and  C_3
REMARK    3  A    between atoms: C_3  and  C_4
REMARK    4  A    between atoms: C_5  and  C_6
REMARK    5  A    between atoms: C_6  and  N_7
REMARK    6  A    between atoms: C_11  and  C_12
REMARK    7  A    between atoms: C_23  and  O_24
REMARK    8  A    between atoms: O_24  and  C_25
REMARK    9  A    between atoms: C_25  and  C_26
REMARK                            x       y       z     vdW  Elec       q    Type
REMARK                         _______ _______ _______ _____ _____    ______ ____
ROOT
ATOM      1  C   UNL     1       5.841   5.724  17.298  0.00  0.00    +0.000 A 
ATOM      2  C   UNL     1       5.755   4.742  18.244  0.00  0.00    +0.000 A 
ATOM      3  N   UNL     1       6.593   4.670  19.365  0.00  0.00    +0.000 NA
ATOM      4  C   UNL     1       7.450   5.628  19.566  0.00  0.00    +0.000 A 
ATOM      5  N   UNL     1       7.553   6.666  18.663  0.00  0.00    +0.000 N 
ATOM      6  N   UNL     1       8.406   7.696  18.782  0.00  0.00    +0.000 NA
ATOM      7  C   UNL     1       8.077   8.405  17.698  0.00  0.00    +0.000 A 
ATOM      8  N   UNL     1       7.092   7.873  16.908  0.00  0.00    +0.000 NA
ATOM      9  C   UNL     1       6.789   6.761  17.539  0.00  0.00    +0.000 A 
ENDROOT
BRANCH   1  10
ATOM     10  C   UNL     1       4.985   5.760  16.044  0.00  0.00    +0.000 C 
BRANCH  10  12
ATOM     11  C   UNL     1       6.474   4.020  15.010  0.00  0.00    +0.000 C 
ATOM     12  C   UNL     1       5.796   5.364  14.811  0.00  0.00    +0.000 C 
ENDBRANCH  10  12
ENDBRANCH   1  10
BRANCH   2  13
ATOM     13  C   UNL     1       4.720   3.611  18.171  0.00  0.00    +0.000 C 
BRANCH  13  14
ATOM     14  N   UNL     1       3.940   3.373  19.390  0.00  0.00    +0.000 N 
ATOM     15  C   UNL     1       4.021   2.276  20.217  0.00  0.00    +0.000 A 
ATOM     16  C   UNL     1       3.079   2.464  21.185  0.00  0.00    +0.000 A 
ATOM     17  N   UNL     1       2.456   3.664  21.014  0.00  0.00    +0.000 NA
ATOM     18  C   UNL     1       2.970   4.223  19.921  0.00  0.00    +0.000 A 
BRANCH  18  19
ATOM     19  C   UNL     1       2.511   5.514  19.374  0.00  0.00    +0.000 A 
ATOM     20  N   UNL     1       2.592   6.598  20.197  0.00  0.00    +0.000 NA
ATOM     21  C   UNL     1       2.264   7.803  19.669  0.00  0.00    +0.000 A 
ATOM     22  C   UNL     1       1.871   7.995  18.354  0.00  0.00    +0.000 A 
ATOM     23  C   UNL     1       1.762   6.879  17.537  0.00  0.00    +0.000 A 
ATOM     24  C   UNL     1       2.071   5.624  18.054  0.00  0.00    +0.000 A 
ATOM     25  F   UNL     1       1.948   4.564  17.243  0.00  0.00    +0.000 F 
ENDBRANCH  18  19
ENDBRANCH  13  14
ENDBRANCH   2  13
BRANCH   7  26
ATOM     26  O   UNL     1       8.747   9.557  17.512  0.00  0.00    +0.000 OA
BRANCH  26  27
ATOM     27  C   UNL     1       9.107  10.155  18.756  0.00  0.00    +0.000 C 
ATOM     28  C   UNL     1       9.312  11.642  18.528  0.00  0.00    +0.000 C 
ENDBRANCH  26  27
ENDBRANCH   7  26
TORSDOF 7
ENDMDL
MODEL 5
REMARK VINA RESULT:      -7.1      3.854      7.357
REMARK  Name = 
REMARK  9 active torsions:
REMARK  status: ('A' for Active; 'I' for Inactive)
REMARK    1  A    between atoms: C_1  and  C_2
REMARK    2  A    between atoms: C_2  and  C_3
REMARK    3  A    between atoms: C_3  and  C_4
REMARK    4  A    between atoms: C_5  and  C_6
REMARK    5  A    between atoms: C_6  and  N_7
REMARK    6  A    between atoms: C_11  and  C_12
REMARK    7  A    between atoms: C_23  and  O_24
REMARK    8  A    between atoms: O_24  and  C_25
REMARK    9  A    between atoms: C_25  and  C_26
REMARK                            x       y       z     vdW  Elec       q    Type
REMARK                         _______ _______ _______ _____ _____    ______ ____
ROOT
ATOM      1  C   UNL     1       5.098   4.450  16.500  0.00  0.00    +0.000 A 
ATOM      2  C   UNL     1       5.551   5.455  17.305  0.00  0.00    +0.000 A 
ATOM      3  N   UNL     1       6.646   6.270  16.987  0.00  0.00    +0.000 NA
ATOM      4  C   UNL     1       7.218   6.122  15.828  0.00  0.00    +0.000 A 
ATOM      5  N   UNL     1       6.776   5.148  14.958  0.00  0.00    +0.000 N 
ATOM      6  N   UNL     1       7.303   4.916  13.744  0.00  0.00    +0.000 NA
ATOM      7  C   UNL     1       6.508   3.928  13.323  0.00  0.00    +0.000 A 
ATOM      8  N   UNL     1       5.538   3.521  14.201  0.00  0.00    +0.000 NA
ATOM      9  C   UNL     1       5.743   4.305  15.236  0.00  0.00    +0.000 A 
ENDROOT
BRANCH   1  10
ATOM     10  C   UNL     1       3.962   3.516  16.878  0.00  0.00    +0.000 C 
BRANCH  10  12
ATOM     11  C   UNL     1       3.577   1.355  18.102  0.00  0.00    +0.000 C 
ATOM     12  C   UNL     1       4.321   2.678  18.104  0.00  0.00    +0.000 C 
ENDBRANCH  10  12
ENDBRANCH   1  10
BRANCH   2  13
ATOM     13  C   UNL     1       4.897   5.794  18.653  0.00  0.00    +0.000 C 
BRANCH  13  14
ATOM     14  N   UNL     1       3.669   6.593  18.588  0.00  0.00    +0.000 N 
ATOM     15  C   UNL     1       3.532   7.849  18.044  0.00  0.00    +0.000 A 
ATOM     16  C   UNL     1       2.236   8.213  18.258  0.00  0.00    +0.000 A 
ATOM     17  N   UNL     1       1.555   7.204  18.870  0.00  0.00    +0.000 NA
ATOM     18  C   UNL     1       2.420   6.215  19.080  0.00  0.00    +0.000 A 
BRANCH  18  19
ATOM     19  C   UNL     1       2.070   4.961  19.774  0.00  0.00    +0.000 A 
ATOM     20  N   UNL     1       2.520   4.815  21.052  0.00  0.00    +0.000 NA
ATOM     21  C   UNL     1       2.121   3.710  21.728  0.00  0.00    +0.000 A 
ATOM     22  C   UNL     1       1.279   2.740  21.206  0.00  0.00    +0.000 A 
ATOM     23  C   UNL     1       0.854   2.885  19.893  0.00  0.00    +0.000 A 
ATOM     24  C   UNL     1       1.264   3.998  19.164  0.00  0.00    +0.000 A 
ATOM     25  F   UNL     1       0.844   4.105  17.896  0.00  0.00    +0.000 F 
ENDBRANCH  18  19
ENDBRANCH  13  14
ENDBRANCH   2  13
BRANCH   7  26
ATOM     26  O   UNL     1       6.749   3.453  12.088  0.00  0.00    +0.000 OA
BRANCH  26  27
ATOM     27  C   UNL     1       5.752   2.516  11.686  0.00  0.00    +0.000 C 
ATOM     28  C   UNL     1       6.446   1.318  11.063  0.00  0.00    +0.000 C 
ENDBRANCH  26  27
ENDBRANCH   7  26
TORSDOF 7
ENDMDL
MODEL 6
REMARK VINA RESULT:      -7.0      1.903      3.519
REMARK  Name = 
REMARK  9 active torsions:
REMARK  status: ('A' for Active; 'I' for Inactive)
REMARK    1  A    between atoms: C_1  and  C_2
REMARK    2  A    between atoms: C_2  and  C_3
REMARK    3  A    between atoms: C_3  and  C_4
REMARK    4  A    between atoms: C_5  and  C_6
REMARK    5  A    between atoms: C_6  and  N_7
REMARK    6  A    between atoms: C_11  and  C_12
REMARK    7  A    between atoms: C_23  and  O_24
REMARK    8  A    between atoms: O_24  and  C_25
REMARK    9  A    between atoms: C_25  and  C_26
REMARK                            x       y       z     vdW  Elec       q    Type
REMARK                         _______ _______ _______ _____ _____    ______ ____
ROOT
ATOM      1  C   UNL     1       2.792   6.043  19.553  0.00  0.00    +0.000 A 
ATOM      2  C   UNL     1       3.581   6.008  18.439  0.00  0.00    +0.000 A 
ATOM      3  N   UNL     1       3.624   7.035  17.487  0.00  0.00    +0.000 NA
ATOM      4  C   UNL     1       2.938   8.119  17.707  0.00  0.00    +0.000 A 
ATOM      5  N   UNL     1       2.154   8.224  18.836  0.00  0.00    +0.000 N 
ATOM      6  N   UNL     1       1.409   9.298  19.148  0.00  0.00    +0.000 NA
ATOM      7  C   UNL     1       0.898   8.903  20.318  0.00  0.00    +0.000 A 
ATOM      8  N   UNL     1       1.261   7.651  20.740  0.00  0.00    +0.000 NA
ATOM      9  C   UNL     1       2.048   7.240  19.771  0.00  0.00    +0.000 A 
ENDROOT
BRANCH   1  10
ATOM     10  C   UNL     1       2.686   4.898  20.546  0.00  0.00    +0.000 C 
BRANCH  10  12
ATOM     11  C   UNL     1       1.426   2.724  20.584  0.00  0.00    +0.000 C 
ATOM     12  C   UNL     1       1.312   4.234  20.478  0.00  0.00    +0.000 C 
ENDBRANCH  10  12
ENDBRANCH   1  10
BRANCH   2  13
ATOM     13  C   UNL     1       4.510   4.828  18.121  0.00  0.00    +0.000 C 
BRANCH  13  14
ATOM     14  N   UNL     1       5.100   4.819  16.778  0.00  0.00    +0.000 N 
ATOM     15  C   UNL     1       4.654   4.108  15.688  0.00  0.00    +0.000 A 
ATOM     16  C   UNL     1       5.538   4.366  14.682  0.00  0.00    +0.000 A 
ATOM     17  N   UNL     1       6.484   5.253  15.099  0.00  0.00    +0.000 NA
ATOM     18  C   UNL     1       6.230   5.531  16.375  0.00  0.00    +0.000 A 
BRANCH  18  19
ATOM     19  C   UNL     1       7.073   6.419  17.199  0.00  0.00    +0.000 A 
ATOM     20  N   UNL     1       7.105   7.736  16.854  0.00  0.00    +0.000 NA
ATOM     21  C   UNL     1       7.799   8.574  17.664  0.00  0.00    +0.000 A 
ATOM     22  C   UNL     1       8.456   8.172  18.817  0.00  0.00    +0.000 A 
ATOM     23  C   UNL     1       8.442   6.822  19.138  0.00  0.00    +0.000 A 
ATOM     24  C   UNL     1       7.756   5.934  18.315  0.00  0.00    +0.000 A 
ATOM     25  F   UNL     1       7.769   4.635  18.647  0.00  0.00    +0.000 F 
ENDBRANCH  18  19
ENDBRANCH  13  14
ENDBRANCH   2  13
BRANCH   7  26
ATOM     26  O   UNL     1       0.093   9.780  20.943  0.00  0.00    +0.000 OA
BRANCH  26  27
ATOM     27  C   UNL     1       0.597  10.120  22.234  0.00  0.00    +0.000 C 
ATOM     28  C   UNL     1      -0.350   9.558  23.279  0.00  0.00    +0.000 C 
ENDBRANCH  26  27
ENDBRANCH   7  26
TORSDOF 7
ENDMDL
MODEL 7
REMARK VINA RESULT:      -7.0      2.051      3.660
REMARK  Name = 
REMARK  9 active torsions:
REMARK  status: ('A' for Active; 'I' for Inactive)
REMARK    1  A    between atoms: C_1  and  C_2
REMARK    2  A    between atoms: C_2  and  C_3
REMARK    3  A    between atoms: C_3  and  C_4
REMARK    4  A    between atoms: C_5  and  C_6
REMARK    5  A    between atoms: C_6  and  N_7
REMARK    6  A    between atoms: C_11  and  C_12
REMARK    7  A    between atoms: C_23  and  O_24
REMARK    8  A    between atoms: O_24  and  C_25
REMARK    9  A    between atoms: C_25  and  C_26
REMARK                            x       y       z     vdW  Elec       q    Type
REMARK                         _______ _______ _______ _____ _____    ______ ____
ROOT
ATOM      1  C   UNL     1       1.589   8.396  20.213  0.00  0.00    +0.000 A 
ATOM      2  C   UNL     1       2.186   7.494  19.378  0.00  0.00    +0.000 A 
ATOM      3  N   UNL     1       2.491   7.762  18.038  0.00  0.00    +0.000 NA
ATOM      4  C   UNL     1       2.272   8.958  17.575  0.00  0.00    +0.000 A 
ATOM      5  N   UNL     1       1.707   9.921  18.385  0.00  0.00    +0.000 N 
ATOM      6  N   UNL     1       1.440  11.179  17.999  0.00  0.00    +0.000 NA
ATOM      7  C   UNL     1       0.953  11.681  19.138  0.00  0.00    +0.000 A 
ATOM      8  N   UNL     1       0.883  10.812  20.195  0.00  0.00    +0.000 NA
ATOM      9  C   UNL     1       1.356   9.699  19.682  0.00  0.00    +0.000 A 
ENDROOT
BRANCH   1  10
ATOM     10  C   UNL     1       1.187   8.081  21.643  0.00  0.00    +0.000 C 
BRANCH  10  12
ATOM     11  C   UNL     1      -0.367   9.405  23.108  0.00  0.00    +0.000 C 
ATOM     12  C   UNL     1      -0.264   8.481  21.909  0.00  0.00    +0.000 C 
ENDBRANCH  10  12
ENDBRANCH   1  10
BRANCH   2  13
ATOM     13  C   UNL     1       2.584   6.083  19.835  0.00  0.00    +0.000 C 
BRANCH  13  14
ATOM     14  N   UNL     1       2.743   5.085  18.772  0.00  0.00    +0.000 N 
ATOM     15  C   UNL     1       1.773   4.242  18.283  0.00  0.00    +0.000 A 
ATOM     16  C   UNL     1       2.388   3.460  17.350  0.00  0.00    +0.000 A 
ATOM     17  N   UNL     1       3.692   3.827  17.209  0.00  0.00    +0.000 NA
ATOM     18  C   UNL     1       3.920   4.812  18.074  0.00  0.00    +0.000 A 
BRANCH  18  19
ATOM     19  C   UNL     1       5.241   5.444  18.260  0.00  0.00    +0.000 A 
ATOM     20  N   UNL     1       5.978   5.031  19.328  0.00  0.00    +0.000 NA
ATOM     21  C   UNL     1       7.231   5.535  19.450  0.00  0.00    +0.000 A 
ATOM     22  C   UNL     1       7.802   6.423  18.552  0.00  0.00    +0.000 A 
ATOM     23  C   UNL     1       7.028   6.860  17.486  0.00  0.00    +0.000 A 
ATOM     24  C   UNL     1       5.730   6.378  17.346  0.00  0.00    +0.000 A 
ATOM     25  F   UNL     1       5.004   6.826  16.312  0.00  0.00    +0.000 F 
ENDBRANCH  18  19
ENDBRANCH  13  14
ENDBRANCH   2  13
BRANCH   7  26
ATOM     26  O   UNL     1       0.593  12.977  19.113  0.00  0.00    +0.000 OA
BRANCH  26  27
ATOM     27  C   UNL     1      -0.590  13.174  18.341  0.00  0.00    +0.000 C 
ATOM     28  C   UNL     1      -1.762  12.585  19.105  0.00  0.00    +0.000 C 
ENDBRANCH  26  27
ENDBRANCH   7  26
TORSDOF 7
ENDMDL
MODEL 8
REMARK VINA RESULT:      -7.0      3.733      7.917
REMARK  Name = 
REMARK  9 active torsions:
REMARK  status: ('A' for Active; 'I' for Inactive)
REMARK    1  A    between atoms: C_1  and  C_2
REMARK    2  A    between atoms: C_2  and  C_3
REMARK    3  A    between atoms: C_3  and  C_4
REMARK    4  A    between atoms: C_5  and  C_6
REMARK    5  A    between atoms: C_6  and  N_7
REMARK    6  A    between atoms: C_11  and  C_12
REMARK    7  A    between atoms: C_23  and  O_24
REMARK    8  A    between atoms: O_24  and  C_25
REMARK    9  A    between atoms: C_25  and  C_26
REMARK                            x       y       z     vdW  Elec       q    Type
REMARK                         _______ _______ _______ _____ _____    ______ ____
ROOT
ATOM      1  C   UNL     1       6.309   5.454  17.210  0.00  0.00    +0.000 A 
ATOM      2  C   UNL     1       5.210   4.974  17.865  0.00  0.00    +0.000 A 
ATOM      3  N   UNL     1       4.222   4.194  17.251  0.00  0.00    +0.000 NA
ATOM      4  C   UNL     1       4.390   3.835  16.011  0.00  0.00    +0.000 A 
ATOM      5  N   UNL     1       5.501   4.259  15.313  0.00  0.00    +0.000 N 
ATOM      6  N   UNL     1       5.761   3.945  14.033  0.00  0.00    +0.000 NA
ATOM      7  C   UNL     1       6.936   4.560  13.870  0.00  0.00    +0.000 A 
ATOM      8  N   UNL     1       7.410   5.249  14.956  0.00  0.00    +0.000 NA
ATOM      9  C   UNL     1       6.470   5.050  15.852  0.00  0.00    +0.000 A 
ENDROOT
BRANCH   1  10
ATOM     10  C   UNL     1       7.341   6.365  17.854  0.00  0.00    +0.000 C 
BRANCH  10  12
ATOM     11  C   UNL     1       8.207   8.717  18.020  0.00  0.00    +0.000 C 
ATOM     12  C   UNL     1       7.206   7.798  17.344  0.00  0.00    +0.000 C 
ENDBRANCH  10  12
ENDBRANCH   1  10
BRANCH   2  13
ATOM     13  C   UNL     1       4.950   5.246  19.353  0.00  0.00    +0.000 C 
BRANCH  13  14
ATOM     14  N   UNL     1       3.772   4.589  19.930  0.00  0.00    +0.000 N 
ATOM     15  C   UNL     1       3.684   3.285  20.359  0.00  0.00    +0.000 A 
ATOM     16  C   UNL     1       2.394   3.108  20.764  0.00  0.00    +0.000 A 
ATOM     17  N   UNL     1       1.697   4.273  20.650  0.00  0.00    +0.000 NA
ATOM     18  C   UNL     1       2.525   5.180  20.138  0.00  0.00    +0.000 A 
BRANCH  18  19
ATOM     19  C   UNL     1       2.121   6.561  19.814  0.00  0.00    +0.000 A 
ATOM     20  N   UNL     1       1.765   7.362  20.857  0.00  0.00    +0.000 NA
ATOM     21  C   UNL     1       1.486   8.659  20.577  0.00  0.00    +0.000 A 
ATOM     22  C   UNL     1       1.558   9.213  19.308  0.00  0.00    +0.000 A 
ATOM     23  C   UNL     1       1.890   8.378  18.250  0.00  0.00    +0.000 A 
ATOM     24  C   UNL     1       2.160   7.036  18.502  0.00  0.00    +0.000 A 
ATOM     25  F   UNL     1       2.470   6.253  17.459  0.00  0.00    +0.000 F 
ENDBRANCH  18  19
ENDBRANCH  13  14
ENDBRANCH   2  13
BRANCH   7  26
ATOM     26  O   UNL     1       7.516   4.429  12.664  0.00  0.00    +0.000 OA
BRANCH  26  27
ATOM     27  C   UNL     1       6.705   3.660  11.777  0.00  0.00    +0.000 C 
ATOM     28  C   UNL     1       7.490   2.431  11.356  0.00  0.00    +0.000 C 
ENDBRANCH  26  27
ENDBRANCH   7  26
TORSDOF 7
ENDMDL
MODEL 9
REMARK VINA RESULT:      -6.9      2.179      3.770
REMARK  Name = 
REMARK  9 active torsions:
REMARK  status: ('A' for Active; 'I' for Inactive)
REMARK    1  A    between atoms: C_1  and  C_2
REMARK    2  A    between atoms: C_2  and  C_3
REMARK    3  A    between atoms: C_3  and  C_4
REMARK    4  A    between atoms: C_5  and  C_6
REMARK    5  A    between atoms: C_6  and  N_7
REMARK    6  A    between atoms: C_11  and  C_12
REMARK    7  A    between atoms: C_23  and  O_24
REMARK    8  A    between atoms: O_24  and  C_25
REMARK    9  A    between atoms: C_25  and  C_26
REMARK                            x       y       z     vdW  Elec       q    Type
REMARK                         _______ _______ _______ _____ _____    ______ ____
ROOT
ATOM      1  C   UNL     1       3.372   4.843  18.794  0.00  0.00    +0.000 A 
ATOM      2  C   UNL     1       4.081   5.033  17.643  0.00  0.00    +0.000 A 
ATOM      3  N   UNL     1       4.108   6.244  16.939  0.00  0.00    +0.000 NA
ATOM      4  C   UNL     1       3.493   7.274  17.445  0.00  0.00    +0.000 A 
ATOM      5  N   UNL     1       2.794   7.149  18.627  0.00  0.00    +0.000 N 
ATOM      6  N   UNL     1       2.126   8.150  19.225  0.00  0.00    +0.000 NA
ATOM      7  C   UNL     1       1.677   7.521  20.315  0.00  0.00    +0.000 A 
ATOM      8  N   UNL     1       2.006   6.195  20.422  0.00  0.00    +0.000 NA
ATOM      9  C   UNL     1       2.703   5.985  19.328  0.00  0.00    +0.000 A 
ENDROOT
BRANCH   1  10
ATOM     10  C   UNL     1       3.278   3.509  19.515  0.00  0.00    +0.000 C 
BRANCH  10  12
ATOM     11  C   UNL     1       0.993   2.835  20.313  0.00  0.00    +0.000 C 
ATOM     12  C   UNL     1       1.981   2.782  19.163  0.00  0.00    +0.000 C 
ENDBRANCH  10  12
ENDBRANCH   1  10
BRANCH   2  13
ATOM     13  C   UNL     1       4.926   3.924  17.000  0.00  0.00    +0.000 C 
BRANCH  13  14
ATOM     14  N   UNL     1       5.677   4.302  15.799  0.00  0.00    +0.000 N 
ATOM     15  C   UNL     1       5.478   3.831  14.522  0.00  0.00    +0.000 A 
ATOM     16  C   UNL     1       6.437   4.418  13.750  0.00  0.00    +0.000 A 
ATOM     17  N   UNL     1       7.187   5.276  14.496  0.00  0.00    +0.000 NA
ATOM     18  C   UNL     1       6.735   5.210  15.746  0.00  0.00    +0.000 A 
BRANCH  18  19
ATOM     19  C   UNL     1       7.332   5.960  16.868  0.00  0.00    +0.000 A 
ATOM     20  N   UNL     1       7.395   7.315  16.742  0.00  0.00    +0.000 NA
ATOM     21  C   UNL     1       7.852   8.017  17.808  0.00  0.00    +0.000 A 
ATOM     22  C   UNL     1       8.238   7.443  19.009  0.00  0.00    +0.000 A 
ATOM     23  C   UNL     1       8.198   6.059  19.113  0.00  0.00    +0.000 A 
ATOM     24  C   UNL     1       7.754   5.309  18.028  0.00  0.00    +0.000 A 
ATOM     25  F   UNL     1       7.736   3.974  18.156  0.00  0.00    +0.000 F 
ENDBRANCH  18  19
ENDBRANCH  13  14
ENDBRANCH   2  13
BRANCH   7  26
ATOM     26  O   UNL     1       0.961   8.262  21.179  0.00  0.00    +0.000 OA
BRANCH  26  27
ATOM     27  C   UNL     1       0.788   9.595  20.703  0.00  0.00    +0.000 C 
ATOM     28  C   UNL     1      -0.165  10.316  21.639  0.00  0.00    +0.000 C 
ENDBRANCH  26  27
ENDBRANCH   7  26
TORSDOF 7
ENDMDL
