MODEL 1
REMARK VINA RESULT:      -8.3      0.000      0.000
REMARK  Name = 
REMARK  3 active torsions:
REMARK  status: ('A' for Active; 'I' for Inactive)
REMARK    1  A    between atoms: N_11  and  C_12
REMARK    2  A    between atoms: C_12  and  C_13
REMARK    3  A    between atoms: P_16  and  O_18
REMARK                            x       y       z     vdW  Elec       q    Type
REMARK                         _______ _______ _______ _____ _____    ______ ____
ROOT
ATOM      1  N   UNL     1       8.386   5.236  20.705  0.00  0.00    +0.000 N 
ATOM      2  C   UNL     1       7.703   5.616  19.600  0.00  0.00    +0.000 A 
ATOM      3  N   UNL     1       6.619   4.994  19.239  0.00  0.00    +0.000 NA
ATOM      4  C   UNL     1       5.998   5.448  18.109  0.00  0.00    +0.000 A 
ATOM      5  C   UNL     1       6.455   6.473  17.363  0.00  0.00    +0.000 A 
ATOM      6  C   UNL     1       7.635   7.222  17.808  0.00  0.00    +0.000 A 
ATOM      7  O   UNL     1       8.036   8.246  17.266  0.00  0.00    +0.000 OA
ATOM      8  N   UNL     1       8.234   6.675  18.915  0.00  0.00    +0.000 N 
ATOM      9  N   UNL     1       5.707   6.690  16.211  0.00  0.00    +0.000 N 
ATOM     10  C   UNL     1       4.599   5.739  16.236  0.00  0.00    +0.000 C 
ATOM     11  N   UNL     1       4.818   4.998  17.493  0.00  0.00    +0.000 N 
ATOM     12  H   UNL     1       8.088   4.328  21.043  0.00  0.00    +0.000 HD
ATOM     13  H   UNL     1       9.393   5.340  20.683  0.00  0.00    +0.000 HD
ATOM     14  H   UNL     1       9.042   7.164  19.261  0.00  0.00    +0.000 HD
ATOM     15  H   UNL     1       5.469   7.670  16.101  0.00  0.00    +0.000 HD
ENDROOT
BRANCH  11  16
ATOM     16  C   UNL     1       4.273   3.646  17.601  0.00  0.00    +0.000 C 
BRANCH  16  17
ATOM     17  C   UNL     1       2.766   3.520  17.232  0.00  0.00    +0.000 C 
ATOM     18  C   UNL     1       1.881   4.649  17.847  0.00  0.00    +0.000 C 
ATOM     19  O   UNL     1       1.287   4.358  19.118  0.00  0.00    +0.000 OA
ATOM     20  P   UNL     1       1.964   3.173  19.966  0.00  0.00    +0.000 P 
ATOM     21  O   UNL     1       3.251   3.573  20.613  0.00  0.00    +0.000 OA
ATOM     22  C   UNL     1       2.007   1.815  18.820  0.00  0.00    +0.000 C 
ATOM     23  O   UNL     1       2.175   2.229  17.454  0.00  0.00    +0.000 OA
BRANCH  20  24
ATOM     24  O   UNL     1       0.860   2.830  21.081  0.00  0.00    +0.000 OA
ATOM     25  H   UNL     1       0.073   2.418  20.674  0.00  0.00    +0.000 HD
ENDBRANCH  20  24
ENDBRANCH  16  17
ENDBRANCH  11  16
TORSDOF 3
ENDMDL
MODEL 2
REMARK VINA RESULT:      -8.1      1.036      1.784
REMARK  Name = 
REMARK  3 active torsions:
REMARK  status: ('A' for Active; 'I' for Inactive)
REMARK    1  A    between atoms: N_11  and  C_12
REMARK    2  A    between atoms: C_12  and  C_13
REMARK    3  A    between atoms: P_16  and  O_18
REMARK                            x       y       z     vdW  Elec       q    Type
REMARK                         _______ _______ _______ _____ _____    ______ ____
ROOT
ATOM      1  N   UNL     1       8.575   5.201  20.554  0.00  0.00    +0.000 N 
ATOM      2  C   UNL     1       7.841   5.656  19.513  0.00  0.00    +0.000 A 
ATOM      3  N   UNL     1       6.754   5.043  19.145  0.00  0.00    +0.000 NA
ATOM      4  C   UNL     1       6.079   5.574  18.082  0.00  0.00    +0.000 A 
ATOM      5  C   UNL     1       6.486   6.666  17.405  0.00  0.00    +0.000 A 
ATOM      6  C   UNL     1       7.671   7.401  17.864  0.00  0.00    +0.000 A 
ATOM      7  O   UNL     1       8.031   8.474  17.391  0.00  0.00    +0.000 OA
ATOM      8  N   UNL     1       8.325   6.778  18.896  0.00  0.00    +0.000 N 
ATOM      9  N   UNL     1       5.689   6.960  16.305  0.00  0.00    +0.000 N 
ATOM     10  C   UNL     1       4.599   5.988  16.296  0.00  0.00    +0.000 C 
ATOM     11  N   UNL     1       4.883   5.152  17.479  0.00  0.00    +0.000 N 
ATOM     12  H   UNL     1       8.308   4.263  20.829  0.00  0.00    +0.000 HD
ATOM     13  H   UNL     1       9.578   5.328  20.502  0.00  0.00    +0.000 HD
ATOM     14  H   UNL     1       9.137   7.254  19.249  0.00  0.00    +0.000 HD
ATOM     15  H   UNL     1       5.429   7.941  16.286  0.00  0.00    +0.000 HD
ENDROOT
BRANCH  11  16
ATOM     16  C   UNL     1       4.366   3.784  17.496  0.00  0.00    +0.000 C 
BRANCH  16  17
ATOM     17  C   UNL     1       4.269   3.144  18.911  0.00  0.00    +0.000 C 
ATOM     18  C   UNL     1       3.581   1.743  18.912  0.00  0.00    +0.000 C 
ATOM     19  O   UNL     1       2.167   1.738  19.139  0.00  0.00    +0.000 OA
ATOM     20  P   UNL     1       1.398   3.125  18.878  0.00  0.00    +0.000 P 
ATOM     21  O   UNL     1       1.205   3.427  17.427  0.00  0.00    +0.000 OA
ATOM     22  C   UNL     1       2.319   4.298  19.845  0.00  0.00    +0.000 C 
ATOM     23  O   UNL     1       3.718   3.983  19.940  0.00  0.00    +0.000 OA
BRANCH  20  24
ATOM     24  O   UNL     1      -0.020   2.912  19.599  0.00  0.00    +0.000 OA
ATOM     25  H   UNL     1      -0.613   2.369  19.043  0.00  0.00    +0.000 HD
ENDBRANCH  20  24
ENDBRANCH  16  17
ENDBRANCH  11  16
TORSDOF 3
ENDMDL
MODEL 3
REMARK VINA RESULT:      -7.9      1.905      2.896
REMARK  Name = 
REMARK  3 active torsions:
REMARK  status: ('A' for Active; 'I' for Inactive)
REMARK    1  A    between atoms: N_11  and  C_12
REMARK    2  A    between atoms: C_12  and  C_13
REMARK    3  A    between atoms: P_16  and  O_18
REMARK                            x       y       z     vdW  Elec       q    Type
REMARK                         _______ _______ _______ _____ _____    ______ ____
ROOT
ATOM      1  N   UNL     1       6.336   3.516  13.846  0.00  0.00    +0.000 N 
ATOM      2  C   UNL     1       6.113   4.242  14.966  0.00  0.00    +0.000 A 
ATOM      3  N   UNL     1       5.098   3.982  15.738  0.00  0.00    +0.000 NA
ATOM      4  C   UNL     1       4.953   4.770  16.846  0.00  0.00    +0.000 A 
ATOM      5  C   UNL     1       5.780   5.787  17.157  0.00  0.00    +0.000 A 
ATOM      6  C   UNL     1       6.966   6.034  16.328  0.00  0.00    +0.000 A 
ATOM      7  O   UNL     1       7.839   6.846  16.614  0.00  0.00    +0.000 OA
ATOM      8  N   UNL     1       7.013   5.244  15.207  0.00  0.00    +0.000 N 
ATOM      9  N   UNL     1       5.376   6.502  18.279  0.00  0.00    +0.000 N 
ATOM     10  C   UNL     1       4.181   5.841  18.797  0.00  0.00    +0.000 C 
ATOM     11  N   UNL     1       3.983   4.718  17.861  0.00  0.00    +0.000 N 
ATOM     12  H   UNL     1       5.535   2.947  13.595  0.00  0.00    +0.000 HD
ATOM     13  H   UNL     1       6.742   4.000  13.056  0.00  0.00    +0.000 HD
ATOM     14  H   UNL     1       7.816   5.373  14.616  0.00  0.00    +0.000 HD
ATOM     15  H   UNL     1       6.142   6.640  18.929  0.00  0.00    +0.000 HD
ENDROOT
BRANCH  11  16
ATOM     16  C   UNL     1       2.634   4.175  17.711  0.00  0.00    +0.000 C 
BRANCH  16  17
ATOM     17  C   UNL     1       2.495   2.667  18.070  0.00  0.00    +0.000 C 
ATOM     18  C   UNL     1       1.066   2.275  18.560  0.00  0.00    +0.000 C 
ATOM     19  O   UNL     1       0.851   2.327  19.975  0.00  0.00    +0.000 OA
ATOM     20  P   UNL     1       1.887   3.217  20.822  0.00  0.00    +0.000 P 
ATOM     21  O   UNL     1       1.642   4.686  20.691  0.00  0.00    +0.000 OA
ATOM     22  C   UNL     1       3.474   2.601  20.316  0.00  0.00    +0.000 C 
ATOM     23  O   UNL     1       3.499   2.141  18.954  0.00  0.00    +0.000 OA
BRANCH  20  24
ATOM     24  O   UNL     1       1.643   2.742  22.336  0.00  0.00    +0.000 OA
ATOM     25  H   UNL     1       0.875   2.141  22.391  0.00  0.00    +0.000 HD
ENDBRANCH  20  24
ENDBRANCH  16  17
ENDBRANCH  11  16
TORSDOF 3
ENDMDL
MODEL 4
REMARK VINA RESULT:      -7.8      1.003      1.122
REMARK  Name = 
REMARK  3 active torsions:
REMARK  status: ('A' for Active; 'I' for Inactive)
REMARK    1  A    between atoms: N_11  and  C_12
REMARK    2  A    between atoms: C_12  and  C_13
REMARK    3  A    between atoms: P_16  and  O_18
REMARK                            x       y       z     vdW  Elec       q    Type
REMARK                         _______ _______ _______ _____ _____    ______ ____
ROOT
ATOM      1  N   UNL     1       8.474   5.209  20.683  0.00  0.00    +0.000 N 
ATOM      2  C   UNL     1       7.678   5.648  19.681  0.00  0.00    +0.000 A 
ATOM      3  N   UNL     1       6.460   5.207  19.554  0.00  0.00    +0.000 NA
ATOM      4  C   UNL     1       5.732   5.707  18.512  0.00  0.00    +0.000 A 
ATOM      5  C   UNL     1       6.210   6.599  17.622  0.00  0.00    +0.000 A 
ATOM      6  C   UNL     1       7.557   7.152  17.805  0.00  0.00    +0.000 A 
ATOM      7  O   UNL     1       8.017   8.063  17.125  0.00  0.00    +0.000 OA
ATOM      8  N   UNL     1       8.245   6.563  18.836  0.00  0.00    +0.000 N 
ATOM      9  N   UNL     1       5.316   6.887  16.597  0.00  0.00    +0.000 N 
ATOM     10  C   UNL     1       4.090   6.146  16.880  0.00  0.00    +0.000 C 
ATOM     11  N   UNL     1       4.404   5.441  18.137  0.00  0.00    +0.000 N 
ATOM     12  H   UNL     1       8.097   4.384  21.136  0.00  0.00    +0.000 HD
ATOM     13  H   UNL     1       9.464   5.135  20.486  0.00  0.00    +0.000 HD
ATOM     14  H   UNL     1       9.170   6.920  19.004  0.00  0.00    +0.000 HD
ATOM     15  H   UNL     1       5.225   7.887  16.452  0.00  0.00    +0.000 HD
ENDROOT
BRANCH  11  16
ATOM     16  C   UNL     1       3.673   4.211  18.439  0.00  0.00    +0.000 C 
BRANCH  16  17
ATOM     17  C   UNL     1       2.146   4.403  18.674  0.00  0.00    +0.000 C 
ATOM     18  C   UNL     1       1.812   5.165  19.994  0.00  0.00    +0.000 C 
ATOM     19  O   UNL     1       1.585   4.349  21.149  0.00  0.00    +0.000 OA
ATOM     20  P   UNL     1       2.163   2.851  21.089  0.00  0.00    +0.000 P 
ATOM     21  O   UNL     1       3.643   2.784  21.283  0.00  0.00    +0.000 OA
ATOM     22  C   UNL     1       1.504   2.213  19.567  0.00  0.00    +0.000 C 
ATOM     23  O   UNL     1       1.343   3.217  18.552  0.00  0.00    +0.000 OA
BRANCH  20  24
ATOM     24  O   UNL     1       1.406   2.107  22.294  0.00  0.00    +0.000 OA
ATOM     25  H   UNL     1       0.442   2.082  22.135  0.00  0.00    +0.000 HD
ENDBRANCH  20  24
ENDBRANCH  16  17
ENDBRANCH  11  16
TORSDOF 3
ENDMDL
MODEL 5
REMARK VINA RESULT:      -7.8      2.845      4.182
REMARK  Name = 
REMARK  3 active torsions:
REMARK  status: ('A' for Active; 'I' for Inactive)
REMARK    1  A    between atoms: N_11  and  C_12
REMARK    2  A    between atoms: C_12  and  C_13
REMARK    3  A    between atoms: P_16  and  O_18
REMARK                            x       y       z     vdW  Elec       q    Type
REMARK                         _______ _______ _______ _____ _____    ______ ____
ROOT
ATOM      1  N   UNL     1       5.538   2.853  11.877  0.00  0.00    +0.000 N 
ATOM      2  C   UNL     1       5.999   3.573  12.926  0.00  0.00    +0.000 A 
ATOM      3  N   UNL     1       5.478   3.437  14.110  0.00  0.00    +0.000 NA
ATOM      4  C   UNL     1       6.008   4.207  15.106  0.00  0.00    +0.000 A 
ATOM      5  C   UNL     1       7.008   5.091  14.920  0.00  0.00    +0.000 A 
ATOM      6  C   UNL     1       7.646   5.193  13.602  0.00  0.00    +0.000 A 
ATOM      7  O   UNL     1       8.645   5.869  13.380  0.00  0.00    +0.000 OA
ATOM      8  N   UNL     1       7.025   4.434  12.643  0.00  0.00    +0.000 N 
ATOM      9  N   UNL     1       7.314   5.825  16.060  0.00  0.00    +0.000 N 
ATOM     10  C   UNL     1       6.458   5.323  17.133  0.00  0.00    +0.000 C 
ATOM     11  N   UNL     1       5.673   4.263  16.470  0.00  0.00    +0.000 N 
ATOM     12  H   UNL     1       4.650   2.408  12.081  0.00  0.00    +0.000 HD
ATOM     13  H   UNL     1       5.558   3.297  10.968  0.00  0.00    +0.000 HD
ATOM     14  H   UNL     1       7.437   4.466  11.726  0.00  0.00    +0.000 HD
ATOM     15  H   UNL     1       8.312   5.838  16.238  0.00  0.00    +0.000 HD
ENDROOT
BRANCH  11  16
ATOM     16  C   UNL     1       4.369   3.918  17.032  0.00  0.00    +0.000 C 
BRANCH  16  17
ATOM     17  C   UNL     1       4.427   3.107  18.360  0.00  0.00    +0.000 C 
ATOM     18  C   UNL     1       3.547   1.819  18.340  0.00  0.00    +0.000 C 
ATOM     19  O   UNL     1       2.210   1.964  18.834  0.00  0.00    +0.000 OA
ATOM     20  P   UNL     1       1.627   3.460  18.883  0.00  0.00    +0.000 P 
ATOM     21  O   UNL     1       1.228   3.979  17.539  0.00  0.00    +0.000 OA
ATOM     22  C   UNL     1       2.870   4.362  19.776  0.00  0.00    +0.000 C 
ATOM     23  O   UNL     1       4.200   3.861  19.563  0.00  0.00    +0.000 OA
BRANCH  20  24
ATOM     24  O   UNL     1       0.342   3.332  19.837  0.00  0.00    +0.000 OA
ATOM     25  H   UNL     1      -0.375   2.842  19.389  0.00  0.00    +0.000 HD
ENDBRANCH  20  24
ENDBRANCH  16  17
ENDBRANCH  11  16
TORSDOF 3
ENDMDL
MODEL 6
REMARK VINA RESULT:      -7.8      3.381      5.921
REMARK  Name = 
REMARK  3 active torsions:
REMARK  status: ('A' for Active; 'I' for Inactive)
REMARK    1  A    between atoms: N_11  and  C_12
REMARK    2  A    between atoms: C_12  and  C_13
REMARK    3  A    between atoms: P_16  and  O_18
REMARK                            x       y       z     vdW  Elec       q    Type
REMARK                         _______ _______ _______ _____ _____    ______ ____
ROOT
ATOM      1  N   UNL     1       5.468   1.230  21.203  0.00  0.00    +0.000 N 
ATOM      2  C   UNL     1       4.400   1.906  20.720  0.00  0.00    +0.000 A 
ATOM      3  N   UNL     1       4.387   2.348  19.496  0.00  0.00    +0.000 NA
ATOM      4  C   UNL     1       3.267   3.021  19.098  0.00  0.00    +0.000 A 
ATOM      5  C   UNL     1       2.209   3.257  19.899  0.00  0.00    +0.000 A 
ATOM      6  C   UNL     1       2.190   2.697  21.255  0.00  0.00    +0.000 A 
ATOM      7  O   UNL     1       1.217   2.748  22.000  0.00  0.00    +0.000 OA
ATOM      8  N   UNL     1       3.368   2.085  21.602  0.00  0.00    +0.000 N 
ATOM      9  N   UNL     1       1.230   4.042  19.301  0.00  0.00    +0.000 N 
ATOM     10  C   UNL     1       1.667   4.298  17.931  0.00  0.00    +0.000 C 
ATOM     11  N   UNL     1       2.958   3.587  17.850  0.00  0.00    +0.000 N 
ATOM     12  H   UNL     1       6.279   1.318  20.601  0.00  0.00    +0.000 HD
ATOM     13  H   UNL     1       5.687   1.353  22.183  0.00  0.00    +0.000 HD
ATOM     14  H   UNL     1       3.395   1.677  22.520  0.00  0.00    +0.000 HD
ATOM     15  H   UNL     1       0.306   3.639  19.420  0.00  0.00    +0.000 HD
ENDROOT
BRANCH  11  16
ATOM     16  C   UNL     1       3.937   4.047  16.867  0.00  0.00    +0.000 C 
BRANCH  16  17
ATOM     17  C   UNL     1       4.845   5.216  17.351  0.00  0.00    +0.000 C 
ATOM     18  C   UNL     1       4.848   6.441  16.384  0.00  0.00    +0.000 C 
ATOM     19  O   UNL     1       5.876   6.450  15.386  0.00  0.00    +0.000 OA
ATOM     20  P   UNL     1       6.566   5.036  15.060  0.00  0.00    +0.000 P 
ATOM     21  O   UNL     1       5.708   4.141  14.225  0.00  0.00    +0.000 OA
ATOM     22  C   UNL     1       7.064   4.439  16.659  0.00  0.00    +0.000 C 
ATOM     23  O   UNL     1       6.187   4.853  17.719  0.00  0.00    +0.000 OA
BRANCH  20  24
ATOM     24  O   UNL     1       7.897   5.442  14.260  0.00  0.00    +0.000 OA
ATOM     25  H   UNL     1       7.716   6.170  13.633  0.00  0.00    +0.000 HD
ENDBRANCH  20  24
ENDBRANCH  16  17
ENDBRANCH  11  16
TORSDOF 3
ENDMDL
MODEL 7
REMARK VINA RESULT:      -7.7      3.117      6.071
REMARK  Name = 
REMARK  3 active torsions:
REMARK  status: ('A' for Active; 'I' for Inactive)
REMARK    1  A    between atoms: N_11  and  C_12
REMARK    2  A    between atoms: C_12  and  C_13
REMARK    3  A    between atoms: P_16  and  O_18
REMARK                            x       y       z     vdW  Elec       q    Type
REMARK                         _______ _______ _______ _____ _____    ______ ____
ROOT
ATOM      1  N   UNL     1       1.768   6.410  20.969  0.00  0.00    +0.000 N 
ATOM      2  C   UNL     1       1.984   5.257  20.295  0.00  0.00    +0.000 A 
ATOM      3  N   UNL     1       3.170   4.954  19.853  0.00  0.00    +0.000 NA
ATOM      4  C   UNL     1       3.291   3.770  19.183  0.00  0.00    +0.000 A 
ATOM      5  C   UNL     1       2.263   2.931  18.950  0.00  0.00    +0.000 A 
ATOM      6  C   UNL     1       0.941   3.235  19.510  0.00  0.00    +0.000 A 
ATOM      7  O   UNL     1      -0.013   2.465  19.461  0.00  0.00    +0.000 OA
ATOM      8  N   UNL     1       0.883   4.463  20.119  0.00  0.00    +0.000 N 
ATOM      9  N   UNL     1       2.612   1.836  18.167  0.00  0.00    +0.000 N 
ATOM     10  C   UNL     1       4.046   1.936  17.909  0.00  0.00    +0.000 C 
ATOM     11  N   UNL     1       4.431   3.173  18.617  0.00  0.00    +0.000 N 
ATOM     12  H   UNL     1       2.545   7.056  20.879  0.00  0.00    +0.000 HD
ATOM     13  H   UNL     1       0.867   6.855  20.845  0.00  0.00    +0.000 HD
ATOM     14  H   UNL     1      -0.003   4.707  20.527  0.00  0.00    +0.000 HD
ATOM     15  H   UNL     1       2.278   0.968  18.572  0.00  0.00    +0.000 HD
ENDROOT
BRANCH  11  16
ATOM     16  C   UNL     1       5.617   3.891  18.155  0.00  0.00    +0.000 C 
BRANCH  16  17
ATOM     17  C   UNL     1       5.487   4.515  16.734  0.00  0.00    +0.000 C 
ATOM     18  C   UNL     1       6.853   4.655  15.992  0.00  0.00    +0.000 C 
ATOM     19  O   UNL     1       7.530   5.906  16.154  0.00  0.00    +0.000 OA
ATOM     20  P   UNL     1       7.090   6.797  17.418  0.00  0.00    +0.000 P 
ATOM     21  O   UNL     1       7.634   6.288  18.714  0.00  0.00    +0.000 OA
ATOM     22  C   UNL     1       5.324   6.904  17.254  0.00  0.00    +0.000 C 
ATOM     23  O   UNL     1       4.736   5.738  16.655  0.00  0.00    +0.000 OA
BRANCH  20  24
ATOM     24  O   UNL     1       7.696   8.246  17.087  0.00  0.00    +0.000 OA
ATOM     25  H   UNL     1       7.964   8.304  16.149  0.00  0.00    +0.000 HD
ENDBRANCH  20  24
ENDBRANCH  16  17
ENDBRANCH  11  16
TORSDOF 3
ENDMDL
MODEL 8
REMARK VINA RESULT:      -7.6      1.854      2.438
REMARK  Name = 
REMARK  3 active torsions:
REMARK  status: ('A' for Active; 'I' for Inactive)
REMARK    1  A    between atoms: N_11  and  C_12
REMARK    2  A    between atoms: C_12  and  C_13
REMARK    3  A    between atoms: P_16  and  O_18
REMARK                            x       y       z     vdW  Elec       q    Type
REMARK                         _______ _______ _______ _____ _____    ______ ____
ROOT
ATOM      1  N   UNL     1       8.582   5.196  20.440  0.00  0.00    +0.000 N 
ATOM      2  C   UNL     1       7.674   5.128  19.439  0.00  0.00    +0.000 A 
ATOM      3  N   UNL     1       6.417   5.380  19.660  0.00  0.00    +0.000 NA
ATOM      4  C   UNL     1       5.575   5.285  18.588  0.00  0.00    +0.000 A 
ATOM      5  C   UNL     1       5.973   4.935  17.349  0.00  0.00    +0.000 A 
ATOM      6  C   UNL     1       7.400   4.723  17.082  0.00  0.00    +0.000 A 
ATOM      7  O   UNL     1       7.863   4.536  15.962  0.00  0.00    +0.000 OA
ATOM      8  N   UNL     1       8.174   4.780  18.214  0.00  0.00    +0.000 N 
ATOM      9  N   UNL     1       4.923   4.814  16.446  0.00  0.00    +0.000 N 
ATOM     10  C   UNL     1       3.703   5.186  17.159  0.00  0.00    +0.000 C 
ATOM     11  N   UNL     1       4.190   5.514  18.513  0.00  0.00    +0.000 N 
ATOM     12  H   UNL     1       8.141   5.235  21.352  0.00  0.00    +0.000 HD
ATOM     13  H   UNL     1       9.359   4.549  20.403  0.00  0.00    +0.000 HD
ATOM     14  H   UNL     1       9.161   4.650  18.074  0.00  0.00    +0.000 HD
ATOM     15  H   UNL     1       5.117   5.307  15.581  0.00  0.00    +0.000 HD
ENDROOT
BRANCH  11  16
ATOM     16  C   UNL     1       3.254   5.395  19.630  0.00  0.00    +0.000 C 
BRANCH  16  17
ATOM     17  C   UNL     1       3.357   4.060  20.425  0.00  0.00    +0.000 C 
ATOM     18  C   UNL     1       3.758   2.840  19.539  0.00  0.00    +0.000 C 
ATOM     19  O   UNL     1       2.676   2.082  18.987  0.00  0.00    +0.000 OA
ATOM     20  P   UNL     1       1.249   2.820  18.921  0.00  0.00    +0.000 P 
ATOM     21  O   UNL     1       1.159   3.826  17.820  0.00  0.00    +0.000 OA
ATOM     22  C   UNL     1       1.003   3.396  20.584  0.00  0.00    +0.000 C 
ATOM     23  O   UNL     1       2.227   3.740  21.254  0.00  0.00    +0.000 OA
BRANCH  20  24
ATOM     24  O   UNL     1       0.215   1.618  18.667  0.00  0.00    +0.000 OA
ATOM     25  H   UNL     1      -0.409   1.844  17.950  0.00  0.00    +0.000 HD
ENDBRANCH  20  24
ENDBRANCH  16  17
ENDBRANCH  11  16
TORSDOF 3
ENDMDL
MODEL 9
REMARK VINA RESULT:      -7.6      2.935      4.228
REMARK  Name = 
REMARK  3 active torsions:
REMARK  status: ('A' for Active; 'I' for Inactive)
REMARK    1  A    between atoms: N_11  and  C_12
REMARK    2  A    between atoms: C_12  and  C_13
REMARK    3  A    between atoms: P_16  and  O_18
REMARK                            x       y       z     vdW  Elec       q    Type
REMARK                         _______ _______ _______ _____ _____    ______ ____
ROOT
ATOM      1  N   UNL     1       5.653   2.776  11.741  0.00  0.00    +0.000 N 
ATOM      2  C   UNL     1       6.112   3.526  12.770  0.00  0.00    +0.000 A 
ATOM      3  N   UNL     1       5.606   3.402  13.963  0.00  0.00    +0.000 NA
ATOM      4  C   UNL     1       6.132   4.202  14.938  0.00  0.00    +0.000 A 
ATOM      5  C   UNL     1       7.113   5.101  14.723  0.00  0.00    +0.000 A 
ATOM      6  C   UNL     1       7.734   5.190  13.397  0.00  0.00    +0.000 A 
ATOM      7  O   UNL     1       8.717   5.881  13.150  0.00  0.00    +0.000 OA
ATOM      8  N   UNL     1       7.118   4.400  12.459  0.00  0.00    +0.000 N 
ATOM      9  N   UNL     1       7.416   5.863  15.846  0.00  0.00    +0.000 N 
ATOM     10  C   UNL     1       6.582   5.366  16.937  0.00  0.00    +0.000 C 
ATOM     11  N   UNL     1       5.811   4.278  16.304  0.00  0.00    +0.000 N 
ATOM     12  H   UNL     1       4.777   2.318  11.964  0.00  0.00    +0.000 HD
ATOM     13  H   UNL     1       5.655   3.203  10.823  0.00  0.00    +0.000 HD
ATOM     14  H   UNL     1       7.519   4.423  11.538  0.00  0.00    +0.000 HD
ATOM     15  H   UNL     1       8.416   5.899  16.012  0.00  0.00    +0.000 HD
ENDROOT
BRANCH  11  16
ATOM     16  C   UNL     1       4.520   3.918  16.888  0.00  0.00    +0.000 C 
BRANCH  16  17
ATOM     17  C   UNL     1       4.057   4.834  18.058  0.00  0.00    +0.000 C 
ATOM     18  C   UNL     1       4.118   4.136  19.453  0.00  0.00    +0.000 C 
ATOM     19  O   UNL     1       2.917   3.485  19.882  0.00  0.00    +0.000 OA
ATOM     20  P   UNL     1       1.853   3.123  18.733  0.00  0.00    +0.000 P 
ATOM     21  O   UNL     1       2.251   1.938  17.914  0.00  0.00    +0.000 OA
ATOM     22  C   UNL     1       1.619   4.667  17.884  0.00  0.00    +0.000 C 
ATOM     23  O   UNL     1       2.794   5.494  17.873  0.00  0.00    +0.000 OA
BRANCH  20  24
ATOM     24  O   UNL     1       0.507   2.812  19.551  0.00  0.00    +0.000 OA
ATOM     25  H   UNL     1       0.711   2.571  20.476  0.00  0.00    +0.000 HD
ENDBRANCH  20  24
ENDBRANCH  16  17
ENDBRANCH  11  16
TORSDOF 3
ENDMDL
