MODEL 1
REMARK VINA RESULT:      -7.3      0.000      0.000
REMARK  Name = 
REMARK  8 active torsions:
REMARK  status: ('A' for Active; 'I' for Inactive)
REMARK    1  A    between atoms: C_2  and  C_7
REMARK    2  A    between atoms: N_3  and  C_4
REMARK    3  A    between atoms: C_9  and  C_10
REMARK    4  A    between atoms: C_20  and  O_21
REMARK    5  A    between atoms: O_21  and  C_22
REMARK    6  A    between atoms: C_22  and  C_23
REMARK    7  A    between atoms: C_26  and  C_27
REMARK    8  A    between atoms: C_27  and  O_28
REMARK                            x       y       z     vdW  Elec       q    Type
REMARK                         _______ _______ _______ _____ _____    ______ ____
ROOT
ATOM      1  C   UNL     1       6.732   6.602  17.745  0.00  0.00    +0.000 C 
ATOM      2  C   UNL     1       6.627   5.267  17.842  0.00  0.00    +0.000 C 
ATOM      3  C   UNL     1       5.469   4.476  17.301  0.00  0.00    +0.000 C 
ATOM      4  C   UNL     1       4.633   5.369  16.371  0.00  0.00    +0.000 C 
ATOM      5  C   UNL     1       4.507   6.802  16.905  0.00  0.00    +0.000 C 
ATOM      6  O   UNL     1       5.790   7.408  17.129  0.00  0.00    +0.000 OA
ENDROOT
BRANCH   3   7
ATOM      7  C   UNL     1       4.664   3.820  18.419  0.00  0.00    +0.000 A 
ATOM      8  C   UNL     1       5.226   3.281  19.564  0.00  0.00    +0.000 A 
ATOM      9  S   UNL     1       4.090   2.688  20.674  0.00  0.00    +0.000 S 
ATOM     10  C   UNL     1       2.781   3.037  19.622  0.00  0.00    +0.000 A 
ATOM     11  C   UNL     1       1.420   2.773  19.880  0.00  0.00    +0.000 A 
ATOM     12  C   UNL     1       0.478   3.048  18.892  0.00  0.00    +0.000 A 
ATOM     13  C   UNL     1       0.873   3.598  17.683  0.00  0.00    +0.000 A 
ATOM     14  C   UNL     1       2.222   3.907  17.450  0.00  0.00    +0.000 A 
ATOM     15  C   UNL     1       3.217   3.622  18.424  0.00  0.00    +0.000 A 
ENDBRANCH   3   7
BRANCH   1  17
ATOM     16  O   UNL     1       8.666   6.666  19.164  0.00  0.00    +0.000 OA
ATOM     17  C   UNL     1       7.923   7.262  18.387  0.00  0.00    +0.000 C 
ATOM     18  N   UNL     1       8.071   8.588  18.043  0.00  0.00    +0.000 N 
ATOM     19  H   UNL     1       7.380   8.999  17.428  0.00  0.00    +0.000 HD
BRANCH  18  20
ATOM     20  C   UNL     1       9.070   9.415  18.644  0.00  0.00    +0.000 C 
ATOM     21  C   UNL     1       9.548  10.666  17.960  0.00  0.00    +0.000 C 
ATOM     22  C   UNL     1       8.733  10.765  19.214  0.00  0.00    +0.000 C 
ENDBRANCH  18  20
ENDBRANCH   1  17
BRANCH   5  23
ATOM     23  O   UNL     1       3.668   6.843  18.064  0.00  0.00    +0.000 OA
BRANCH  23  24
ATOM     24  C   UNL     1       2.421   7.485  17.804  0.00  0.00    +0.000 C 
BRANCH  24  25
ATOM     25  C   UNL     1       1.871   8.193  19.022  0.00  0.00    +0.000 A 
ATOM     26  C   UNL     1       1.266   9.451  18.878  0.00  0.00    +0.000 A 
ATOM     27  C   UNL     1       0.632  10.073  19.958  0.00  0.00    +0.000 A 
ATOM     28  C   UNL     1       0.567   9.445  21.208  0.00  0.00    +0.000 A 
ATOM     29  C   UNL     1       1.216   8.213  21.369  0.00  0.00    +0.000 A 
ATOM     30  C   UNL     1       1.851   7.589  20.285  0.00  0.00    +0.000 A 
BRANCH  28  31
ATOM     31  C   UNL     1      -0.145  10.132  22.348  0.00  0.00    +0.000 C 
BRANCH  31  32
ATOM     32  O   UNL     1      -0.616   9.206  23.320  0.00  0.00    +0.000 OA
ATOM     33  H   UNL     1      -1.582   9.167  23.221  0.00  0.00    +0.000 HD
ENDBRANCH  31  32
ENDBRANCH  28  31
ENDBRANCH  24  25
ENDBRANCH  23  24
ENDBRANCH   5  23
TORSDOF 8
ENDMDL
MODEL 2
REMARK VINA RESULT:      -7.3      6.373     10.287
REMARK  Name = 
REMARK  8 active torsions:
REMARK  status: ('A' for Active; 'I' for Inactive)
REMARK    1  A    between atoms: C_2  and  C_7
REMARK    2  A    between atoms: N_3  and  C_4
REMARK    3  A    between atoms: C_9  and  C_10
REMARK    4  A    between atoms: C_20  and  O_21
REMARK    5  A    between atoms: O_21  and  C_22
REMARK    6  A    between atoms: C_22  and  C_23
REMARK    7  A    between atoms: C_26  and  C_27
REMARK    8  A    between atoms: C_27  and  O_28
REMARK                            x       y       z     vdW  Elec       q    Type
REMARK                         _______ _______ _______ _____ _____    ______ ____
ROOT
ATOM      1  C   UNL     1      10.197  11.401  18.343  0.00  0.00    +0.000 C 
ATOM      2  C   UNL     1       9.765  12.375  17.525  0.00  0.00    +0.000 C 
ATOM      3  C   UNL     1      10.629  13.502  17.034  0.00  0.00    +0.000 C 
ATOM      4  C   UNL     1      12.102  13.182  17.337  0.00  0.00    +0.000 C 
ATOM      5  C   UNL     1      12.279  12.511  18.705  0.00  0.00    +0.000 C 
ATOM      6  O   UNL     1      11.493  11.315  18.824  0.00  0.00    +0.000 OA
ENDROOT
BRANCH   3   7
ATOM      7  C   UNL     1      10.163  14.848  17.579  0.00  0.00    +0.000 A 
ATOM      8  C   UNL     1      11.010  15.908  17.852  0.00  0.00    +0.000 A 
ATOM      9  S   UNL     1      10.213  17.311  18.372  0.00  0.00    +0.000 S 
ATOM     10  C   UNL     1       8.686  16.529  18.354  0.00  0.00    +0.000 A 
ATOM     11  C   UNL     1       7.455  17.110  18.720  0.00  0.00    +0.000 A 
ATOM     12  C   UNL     1       6.307  16.321  18.723  0.00  0.00    +0.000 A 
ATOM     13  C   UNL     1       6.373  14.991  18.343  0.00  0.00    +0.000 A 
ATOM     14  C   UNL     1       7.591  14.430  17.929  0.00  0.00    +0.000 A 
ATOM     15  C   UNL     1       8.789  15.194  17.934  0.00  0.00    +0.000 A 
ENDBRANCH   3   7
BRANCH   1  17
ATOM     16  O   UNL     1       9.020  10.106  19.985  0.00  0.00    +0.000 OA
ATOM     17  C   UNL     1       9.199  10.370  18.797  0.00  0.00    +0.000 C 
ATOM     18  N   UNL     1       8.543   9.742  17.762  0.00  0.00    +0.000 N 
ATOM     19  H   UNL     1       8.793  10.000  16.816  0.00  0.00    +0.000 HD
BRANCH  18  20
ATOM     20  C   UNL     1       7.648   8.650  17.988  0.00  0.00    +0.000 C 
ATOM     21  C   UNL     1       7.606   7.480  17.044  0.00  0.00    +0.000 C 
ATOM     22  C   UNL     1       8.147   7.304  18.431  0.00  0.00    +0.000 C 
ENDBRANCH  18  20
ENDBRANCH   1  17
BRANCH   5  23
ATOM     23  O   UNL     1      12.031  13.440  19.766  0.00  0.00    +0.000 OA
BRANCH  23  24
ATOM     24  C   UNL     1      11.172  12.898  20.768  0.00  0.00    +0.000 C 
BRANCH  24  25
ATOM     25  C   UNL     1      10.046  13.840  21.132  0.00  0.00    +0.000 A 
ATOM     26  C   UNL     1       8.733  13.348  21.217  0.00  0.00    +0.000 A 
ATOM     27  C   UNL     1       7.691  14.158  21.677  0.00  0.00    +0.000 A 
ATOM     28  C   UNL     1       7.933  15.475  22.085  0.00  0.00    +0.000 A 
ATOM     29  C   UNL     1       9.232  15.985  21.952  0.00  0.00    +0.000 A 
ATOM     30  C   UNL     1      10.279  15.172  21.491  0.00  0.00    +0.000 A 
BRANCH  28  31
ATOM     31  C   UNL     1       6.791  16.316  22.600  0.00  0.00    +0.000 C 
BRANCH  31  32
ATOM     32  O   UNL     1       6.580  16.138  23.995  0.00  0.00    +0.000 OA
ATOM     33  H   UNL     1       6.531  15.180  24.148  0.00  0.00    +0.000 HD
ENDBRANCH  31  32
ENDBRANCH  28  31
ENDBRANCH  24  25
ENDBRANCH  23  24
ENDBRANCH   5  23
TORSDOF 8
ENDMDL
MODEL 3
REMARK VINA RESULT:      -7.3      5.536     10.835
REMARK  Name = 
REMARK  8 active torsions:
REMARK  status: ('A' for Active; 'I' for Inactive)
REMARK    1  A    between atoms: C_2  and  C_7
REMARK    2  A    between atoms: N_3  and  C_4
REMARK    3  A    between atoms: C_9  and  C_10
REMARK    4  A    between atoms: C_20  and  O_21
REMARK    5  A    between atoms: O_21  and  C_22
REMARK    6  A    between atoms: C_22  and  C_23
REMARK    7  A    between atoms: C_26  and  C_27
REMARK    8  A    between atoms: C_27  and  O_28
REMARK                            x       y       z     vdW  Elec       q    Type
REMARK                         _______ _______ _______ _____ _____    ______ ____
ROOT
ATOM      1  C   UNL     1       9.094   9.940  18.615  0.00  0.00    +0.000 C 
ATOM      2  C   UNL     1       9.557  10.867  17.761  0.00  0.00    +0.000 C 
ATOM      3  C   UNL     1      10.461  11.998  18.161  0.00  0.00    +0.000 C 
ATOM      4  C   UNL     1      11.010  11.735  19.573  0.00  0.00    +0.000 C 
ATOM      5  C   UNL     1       9.952  11.125  20.501  0.00  0.00    +0.000 C 
ATOM      6  O   UNL     1       9.401   9.912  19.965  0.00  0.00    +0.000 OA
ENDROOT
BRANCH   3   7
ATOM      7  C   UNL     1       9.773  13.351  18.006  0.00  0.00    +0.000 A 
ATOM      8  C   UNL     1       8.400  13.525  17.996  0.00  0.00    +0.000 A 
ATOM      9  S   UNL     1       7.912  15.145  17.889  0.00  0.00    +0.000 S 
ATOM     10  C   UNL     1       9.531  15.693  17.748  0.00  0.00    +0.000 A 
ATOM     11  C   UNL     1       9.939  17.032  17.586  0.00  0.00    +0.000 A 
ATOM     12  C   UNL     1      11.293  17.311  17.412  0.00  0.00    +0.000 A 
ATOM     13  C   UNL     1      12.225  16.286  17.425  0.00  0.00    +0.000 A 
ATOM     14  C   UNL     1      11.819  14.960  17.638  0.00  0.00    +0.000 A 
ATOM     15  C   UNL     1      10.446  14.630  17.798  0.00  0.00    +0.000 A 
ENDBRANCH   3   7
BRANCH   1  17
ATOM     16  O   UNL     1       7.249   9.173  17.285  0.00  0.00    +0.000 OA
ATOM     17  C   UNL     1       8.148   8.899  18.079  0.00  0.00    +0.000 C 
ATOM     18  N   UNL     1       8.371   7.638  18.585  0.00  0.00    +0.000 N 
ATOM     19  H   UNL     1       9.110   7.524  19.267  0.00  0.00    +0.000 HD
BRANCH  18  20
ATOM     20  C   UNL     1       7.501   6.542  18.289  0.00  0.00    +0.000 C 
ATOM     21  C   UNL     1       7.977   5.122  18.423  0.00  0.00    +0.000 C 
ATOM     22  C   UNL     1       6.951   5.660  19.374  0.00  0.00    +0.000 C 
ENDBRANCH  18  20
ENDBRANCH   1  17
BRANCH   5  23
ATOM     23  O   UNL     1       8.945  12.089  20.831  0.00  0.00    +0.000 OA
BRANCH  23  24
ATOM     24  C   UNL     1       9.043  12.528  22.185  0.00  0.00    +0.000 C 
BRANCH  24  25
ATOM     25  C   UNL     1       9.399  13.994  22.291  0.00  0.00    +0.000 A 
ATOM     26  C   UNL     1       8.920  14.746  23.376  0.00  0.00    +0.000 A 
ATOM     27  C   UNL     1       9.335  16.066  23.575  0.00  0.00    +0.000 A 
ATOM     28  C   UNL     1      10.258  16.665  22.709  0.00  0.00    +0.000 A 
ATOM     29  C   UNL     1      10.698  15.935  21.596  0.00  0.00    +0.000 A 
ATOM     30  C   UNL     1      10.281  14.611  21.396  0.00  0.00    +0.000 A 
BRANCH  28  31
ATOM     31  C   UNL     1      10.705  18.084  22.965  0.00  0.00    +0.000 C 
BRANCH  31  32
ATOM     32  O   UNL     1      12.109  18.174  23.172  0.00  0.00    +0.000 OA
ATOM     33  H   UNL     1      12.259  18.962  23.721  0.00  0.00    +0.000 HD
ENDBRANCH  31  32
ENDBRANCH  28  31
ENDBRANCH  24  25
ENDBRANCH  23  24
ENDBRANCH   5  23
TORSDOF 8
ENDMDL
MODEL 4
REMARK VINA RESULT:      -7.3      5.321      9.816
REMARK  Name = 
REMARK  8 active torsions:
REMARK  status: ('A' for Active; 'I' for Inactive)
REMARK    1  A    between atoms: C_2  and  C_7
REMARK    2  A    between atoms: N_3  and  C_4
REMARK    3  A    between atoms: C_9  and  C_10
REMARK    4  A    between atoms: C_20  and  O_21
REMARK    5  A    between atoms: O_21  and  C_22
REMARK    6  A    between atoms: C_22  and  C_23
REMARK    7  A    between atoms: C_26  and  C_27
REMARK    8  A    between atoms: C_27  and  O_28
REMARK                            x       y       z     vdW  Elec       q    Type
REMARK                         _______ _______ _______ _____ _____    ______ ____
ROOT
ATOM      1  C   UNL     1       9.072   9.927  18.664  0.00  0.00    +0.000 C 
ATOM      2  C   UNL     1       9.556  10.860  17.828  0.00  0.00    +0.000 C 
ATOM      3  C   UNL     1      10.424  12.006  18.264  0.00  0.00    +0.000 C 
ATOM      4  C   UNL     1      10.916  11.754  19.699  0.00  0.00    +0.000 C 
ATOM      5  C   UNL     1       9.828  11.129  20.582  0.00  0.00    +0.000 C 
ATOM      6  O   UNL     1       9.321   9.906  20.026  0.00  0.00    +0.000 OA
ENDROOT
BRANCH   3   7
ATOM      7  C   UNL     1       9.722  13.348  18.076  0.00  0.00    +0.000 A 
ATOM      8  C   UNL     1       8.346  13.506  18.066  0.00  0.00    +0.000 A 
ATOM      9  S   UNL     1       7.841  15.118  17.918  0.00  0.00    +0.000 S 
ATOM     10  C   UNL     1       9.454  15.679  17.759  0.00  0.00    +0.000 A 
ATOM     11  C   UNL     1       9.848  17.018  17.562  0.00  0.00    +0.000 A 
ATOM     12  C   UNL     1      11.198  17.306  17.377  0.00  0.00    +0.000 A 
ATOM     13  C   UNL     1      12.141  16.292  17.414  0.00  0.00    +0.000 A 
ATOM     14  C   UNL     1      11.750  14.968  17.661  0.00  0.00    +0.000 A 
ATOM     15  C   UNL     1      10.381  14.628  17.834  0.00  0.00    +0.000 A 
ENDBRANCH   3   7
BRANCH   1  17
ATOM     16  O   UNL     1       7.299   9.127  17.257  0.00  0.00    +0.000 OA
ATOM     17  C   UNL     1       8.167   8.870  18.090  0.00  0.00    +0.000 C 
ATOM     18  N   UNL     1       8.388   7.613  18.608  0.00  0.00    +0.000 N 
ATOM     19  H   UNL     1       9.098   7.512  19.322  0.00  0.00    +0.000 HD
BRANCH  18  20
ATOM     20  C   UNL     1       7.550   6.503  18.278  0.00  0.00    +0.000 C 
ATOM     21  C   UNL     1       8.015   5.091  18.506  0.00  0.00    +0.000 C 
ATOM     22  C   UNL     1       6.908   5.658  19.343  0.00  0.00    +0.000 C 
ENDBRANCH  18  20
ENDBRANCH   1  17
BRANCH   5  23
ATOM     23  O   UNL     1       8.793  12.077  20.866  0.00  0.00    +0.000 OA
BRANCH  23  24
ATOM     24  C   UNL     1       9.180  13.012  21.871  0.00  0.00    +0.000 C 
BRANCH  24  25
ATOM     25  C   UNL     1       8.274  12.967  23.081  0.00  0.00    +0.000 A 
ATOM     26  C   UNL     1       7.096  13.730  23.093  0.00  0.00    +0.000 A 
ATOM     27  C   UNL     1       6.173  13.611  24.136  0.00  0.00    +0.000 A 
ATOM     28  C   UNL     1       6.391  12.710  25.186  0.00  0.00    +0.000 A 
ATOM     29  C   UNL     1       7.590  11.986  25.204  0.00  0.00    +0.000 A 
ATOM     30  C   UNL     1       8.516  12.105  24.157  0.00  0.00    +0.000 A 
BRANCH  28  31
ATOM     31  C   UNL     1       5.363  12.588  26.286  0.00  0.00    +0.000 C 
BRANCH  31  32
ATOM     32  O   UNL     1       4.765  13.839  26.602  0.00  0.00    +0.000 OA
ATOM     33  H   UNL     1       4.618  14.297  25.758  0.00  0.00    +0.000 HD
ENDBRANCH  31  32
ENDBRANCH  28  31
ENDBRANCH  24  25
ENDBRANCH  23  24
ENDBRANCH   5  23
TORSDOF 8
ENDMDL
MODEL 5
REMARK VINA RESULT:      -7.2      4.554      8.328
REMARK  Name = 
REMARK  8 active torsions:
REMARK  status: ('A' for Active; 'I' for Inactive)
REMARK    1  A    between atoms: C_2  and  C_7
REMARK    2  A    between atoms: N_3  and  C_4
REMARK    3  A    between atoms: C_9  and  C_10
REMARK    4  A    between atoms: C_20  and  O_21
REMARK    5  A    between atoms: O_21  and  C_22
REMARK    6  A    between atoms: C_22  and  C_23
REMARK    7  A    between atoms: C_26  and  C_27
REMARK    8  A    between atoms: C_27  and  O_28
REMARK                            x       y       z     vdW  Elec       q    Type
REMARK                         _______ _______ _______ _____ _____    ______ ____
ROOT
ATOM      1  C   UNL     1       1.588   9.797  18.300  0.00  0.00    +0.000 C 
ATOM      2  C   UNL     1       0.317   9.728  18.725  0.00  0.00    +0.000 C 
ATOM      3  C   UNL     1      -0.563  10.928  18.934  0.00  0.00    +0.000 C 
ATOM      4  C   UNL     1       0.095  12.159  18.290  0.00  0.00    +0.000 C 
ATOM      5  C   UNL     1       1.615  12.176  18.494  0.00  0.00    +0.000 C 
ATOM      6  O   UNL     1       2.238  10.981  17.995  0.00  0.00    +0.000 OA
ENDROOT
BRANCH   3   7
ATOM      7  C   UNL     1      -0.921  11.116  20.405  0.00  0.00    +0.000 A 
ATOM      8  C   UNL     1      -0.387  10.358  21.434  0.00  0.00    +0.000 A 
ATOM      9  S   UNL     1      -0.901  10.834  22.977  0.00  0.00    +0.000 S 
ATOM     10  C   UNL     1      -1.953  12.025  22.332  0.00  0.00    +0.000 A 
ATOM     11  C   UNL     1      -2.799  12.873  23.077  0.00  0.00    +0.000 A 
ATOM     12  C   UNL     1      -3.652  13.742  22.401  0.00  0.00    +0.000 A 
ATOM     13  C   UNL     1      -3.648  13.790  21.017  0.00  0.00    +0.000 A 
ATOM     14  C   UNL     1      -2.768  12.982  20.281  0.00  0.00    +0.000 A 
ATOM     15  C   UNL     1      -1.897  12.066  20.931  0.00  0.00    +0.000 A 
ENDBRANCH   3   7
BRANCH   1  17
ATOM     16  O   UNL     1       3.050   8.236  17.210  0.00  0.00    +0.000 OA
ATOM     17  C   UNL     1       2.365   8.512  18.193  0.00  0.00    +0.000 C 
ATOM     18  N   UNL     1       2.204   7.679  19.278  0.00  0.00    +0.000 N 
ATOM     19  H   UNL     1       1.583   7.978  20.018  0.00  0.00    +0.000 HD
BRANCH  18  20
ATOM     20  C   UNL     1       2.763   6.363  19.307  0.00  0.00    +0.000 C 
ATOM     21  C   UNL     1       2.151   5.284  20.157  0.00  0.00    +0.000 C 
ATOM     22  C   UNL     1       2.065   5.198  18.663  0.00  0.00    +0.000 C 
ENDBRANCH  18  20
ENDBRANCH   1  17
BRANCH   5  23
ATOM     23  O   UNL     1       1.945  12.439  19.862  0.00  0.00    +0.000 OA
BRANCH  23  24
ATOM     24  C   UNL     1       2.243  13.815  20.089  0.00  0.00    +0.000 C 
BRANCH  24  25
ATOM     25  C   UNL     1       1.061  14.577  20.647  0.00  0.00    +0.000 A 
ATOM     26  C   UNL     1       0.818  14.561  22.030  0.00  0.00    +0.000 A 
ATOM     27  C   UNL     1      -0.184  15.357  22.592  0.00  0.00    +0.000 A 
ATOM     28  C   UNL     1      -0.957  16.208  21.793  0.00  0.00    +0.000 A 
ATOM     29  C   UNL     1      -0.752  16.186  20.406  0.00  0.00    +0.000 A 
ATOM     30  C   UNL     1       0.253  15.388  19.841  0.00  0.00    +0.000 A 
BRANCH  28  31
ATOM     31  C   UNL     1      -2.016  17.072  22.433  0.00  0.00    +0.000 C 
BRANCH  31  32
ATOM     32  O   UNL     1      -3.108  17.320  21.557  0.00  0.00    +0.000 OA
ATOM     33  H   UNL     1      -2.788  17.139  20.657  0.00  0.00    +0.000 HD
ENDBRANCH  31  32
ENDBRANCH  28  31
ENDBRANCH  24  25
ENDBRANCH  23  24
ENDBRANCH   5  23
TORSDOF 8
ENDMDL
MODEL 6
REMARK VINA RESULT:      -7.1      4.708      8.603
REMARK  Name = 
REMARK  8 active torsions:
REMARK  status: ('A' for Active; 'I' for Inactive)
REMARK    1  A    between atoms: C_2  and  C_7
REMARK    2  A    between atoms: N_3  and  C_4
REMARK    3  A    between atoms: C_9  and  C_10
REMARK    4  A    between atoms: C_20  and  O_21
REMARK    5  A    between atoms: O_21  and  C_22
REMARK    6  A    between atoms: C_22  and  C_23
REMARK    7  A    between atoms: C_26  and  C_27
REMARK    8  A    between atoms: C_27  and  O_28
REMARK                            x       y       z     vdW  Elec       q    Type
REMARK                         _______ _______ _______ _____ _____    ______ ____
ROOT
ATOM      1  C   UNL     1       1.077  12.999  20.713  0.00  0.00    +0.000 C 
ATOM      2  C   UNL     1      -0.058  13.497  20.195  0.00  0.00    +0.000 C 
ATOM      3  C   UNL     1      -1.427  12.968  20.515  0.00  0.00    +0.000 C 
ATOM      4  C   UNL     1      -1.340  12.032  21.730  0.00  0.00    +0.000 C 
ATOM      5  C   UNL     1      -0.079  11.158  21.697  0.00  0.00    +0.000 C 
ATOM      6  O   UNL     1       1.119  11.945  21.610  0.00  0.00    +0.000 OA
ENDROOT
BRANCH   3   7
ATOM      7  C   UNL     1      -2.088  12.338  19.293  0.00  0.00    +0.000 A 
ATOM      8  C   UNL     1      -1.398  11.934  18.162  0.00  0.00    +0.000 A 
ATOM      9  S   UNL     1      -2.372  11.193  16.989  0.00  0.00    +0.000 S 
ATOM     10  C   UNL     1      -3.797  11.469  17.903  0.00  0.00    +0.000 A 
ATOM     11  C   UNL     1      -5.107  11.117  17.519  0.00  0.00    +0.000 A 
ATOM     12  C   UNL     1      -6.173  11.475  18.340  0.00  0.00    +0.000 A 
ATOM     13  C   UNL     1      -5.944  12.144  19.532  0.00  0.00    +0.000 A 
ATOM     14  C   UNL     1      -4.634  12.446  19.936  0.00  0.00    +0.000 A 
ATOM     15  C   UNL     1      -3.520  12.118  19.116  0.00  0.00    +0.000 A 
ENDBRANCH   3   7
BRANCH   1  17
ATOM     16  O   UNL     1       3.356  13.698  20.995  0.00  0.00    +0.000 OA
ATOM     17  C   UNL     1       2.380  13.596  20.253  0.00  0.00    +0.000 C 
ATOM     18  N   UNL     1       2.356  14.036  18.948  0.00  0.00    +0.000 N 
ATOM     19  H   UNL     1       1.490  13.946  18.433  0.00  0.00    +0.000 HD
BRANCH  18  20
ATOM     20  C   UNL     1       3.458  14.741  18.370  0.00  0.00    +0.000 C 
ATOM     21  C   UNL     1       3.243  15.722  17.251  0.00  0.00    +0.000 C 
ATOM     22  C   UNL     1       3.661  16.211  18.605  0.00  0.00    +0.000 C 
ENDBRANCH  18  20
ENDBRANCH   1  17
BRANCH   5  23
ATOM     23  O   UNL     1      -0.167  10.172  20.664  0.00  0.00    +0.000 OA
BRANCH  23  24
ATOM     24  C   UNL     1       0.333   8.903  21.085  0.00  0.00    +0.000 C 
BRANCH  24  25
ATOM     25  C   UNL     1       1.354   8.338  20.123  0.00  0.00    +0.000 A 
ATOM     26  C   UNL     1       1.964   7.106  20.406  0.00  0.00    +0.000 A 
ATOM     27  C   UNL     1       2.812   6.493  19.479  0.00  0.00    +0.000 A 
ATOM     28  C   UNL     1       3.058   7.084  18.234  0.00  0.00    +0.000 A 
ATOM     29  C   UNL     1       2.493   8.339  17.970  0.00  0.00    +0.000 A 
ATOM     30  C   UNL     1       1.642   8.954  18.899  0.00  0.00    +0.000 A 
BRANCH  28  31
ATOM     31  C   UNL     1       3.960   6.386  17.245  0.00  0.00    +0.000 C 
BRANCH  31  32
ATOM     32  O   UNL     1       4.920   5.557  17.888  0.00  0.00    +0.000 OA
ATOM     33  H   UNL     1       4.952   4.727  17.382  0.00  0.00    +0.000 HD
ENDBRANCH  31  32
ENDBRANCH  28  31
ENDBRANCH  24  25
ENDBRANCH  23  24
ENDBRANCH   5  23
TORSDOF 8
ENDMDL
MODEL 7
REMARK VINA RESULT:      -7.1      4.698      8.472
REMARK  Name = 
REMARK  8 active torsions:
REMARK  status: ('A' for Active; 'I' for Inactive)
REMARK    1  A    between atoms: C_2  and  C_7
REMARK    2  A    between atoms: N_3  and  C_4
REMARK    3  A    between atoms: C_9  and  C_10
REMARK    4  A    between atoms: C_20  and  O_21
REMARK    5  A    between atoms: O_21  and  C_22
REMARK    6  A    between atoms: C_22  and  C_23
REMARK    7  A    between atoms: C_26  and  C_27
REMARK    8  A    between atoms: C_27  and  O_28
REMARK                            x       y       z     vdW  Elec       q    Type
REMARK                         _______ _______ _______ _____ _____    ______ ____
ROOT
ATOM      1  C   UNL     1       1.027  12.811  19.612  0.00  0.00    +0.000 C 
ATOM      2  C   UNL     1      -0.130  13.305  19.141  0.00  0.00    +0.000 C 
ATOM      3  C   UNL     1      -1.465  13.075  19.790  0.00  0.00    +0.000 C 
ATOM      4  C   UNL     1      -1.253  12.493  21.197  0.00  0.00    +0.000 C 
ATOM      5  C   UNL     1      -0.105  11.476  21.234  0.00  0.00    +0.000 C 
ATOM      6  O   UNL     1       1.128  12.038  20.756  0.00  0.00    +0.000 OA
ENDROOT
BRANCH   3   7
ATOM      7  C   UNL     1      -2.385  12.240  18.905  0.00  0.00    +0.000 A 
ATOM      8  C   UNL     1      -1.974  11.596  17.751  0.00  0.00    +0.000 A 
ATOM      9  S   UNL     1      -3.187  10.674  17.008  0.00  0.00    +0.000 S 
ATOM     10  C   UNL     1      -4.362  11.177  18.151  0.00  0.00    +0.000 A 
ATOM     11  C   UNL     1      -5.722  10.805  18.158  0.00  0.00    +0.000 A 
ATOM     12  C   UNL     1      -6.571  11.357  19.115  0.00  0.00    +0.000 A 
ATOM     13  C   UNL     1      -6.077  12.238  20.062  0.00  0.00    +0.000 A 
ATOM     14  C   UNL     1      -4.712  12.566  20.083  0.00  0.00    +0.000 A 
ATOM     15  C   UNL     1      -3.817  12.042  19.112  0.00  0.00    +0.000 A 
ENDBRANCH   3   7
BRANCH   1  17
ATOM     16  O   UNL     1       2.704  12.292  17.975  0.00  0.00    +0.000 OA
ATOM     17  C   UNL     1       2.279  13.078  18.820  0.00  0.00    +0.000 C 
ATOM     18  N   UNL     1       2.906  14.257  19.159  0.00  0.00    +0.000 N 
ATOM     19  H   UNL     1       2.500  14.814  19.899  0.00  0.00    +0.000 HD
BRANCH  18  20
ATOM     20  C   UNL     1       4.172  14.624  18.605  0.00  0.00    +0.000 C 
ATOM     21  C   UNL     1       4.527  16.068  18.385  0.00  0.00    +0.000 C 
ATOM     22  C   UNL     1       5.237  15.276  19.441  0.00  0.00    +0.000 C 
ENDBRANCH  18  20
ENDBRANCH   1  17
BRANCH   5  23
ATOM     23  O   UNL     1      -0.465  10.272  20.548  0.00  0.00    +0.000 OA
BRANCH  23  24
ATOM     24  C   UNL     1       0.183   9.125  21.096  0.00  0.00    +0.000 C 
BRANCH  24  25
ATOM     25  C   UNL     1       1.206   8.535  20.151  0.00  0.00    +0.000 A 
ATOM     26  C   UNL     1       1.829   7.320  20.477  0.00  0.00    +0.000 A 
ATOM     27  C   UNL     1       2.679   6.682  19.569  0.00  0.00    +0.000 A 
ATOM     28  C   UNL     1       2.916   7.229  18.302  0.00  0.00    +0.000 A 
ATOM     29  C   UNL     1       2.338   8.469  17.995  0.00  0.00    +0.000 A 
ATOM     30  C   UNL     1       1.484   9.109  18.905  0.00  0.00    +0.000 A 
BRANCH  28  31
ATOM     31  C   UNL     1       3.820   6.504  17.336  0.00  0.00    +0.000 C 
BRANCH  31  32
ATOM     32  O   UNL     1       5.013   6.046  17.959  0.00  0.00    +0.000 OA
ATOM     33  H   UNL     1       5.750   6.328  17.391  0.00  0.00    +0.000 HD
ENDBRANCH  31  32
ENDBRANCH  28  31
ENDBRANCH  24  25
ENDBRANCH  23  24
ENDBRANCH   5  23
TORSDOF 8
ENDMDL
MODEL 8
REMARK VINA RESULT:      -7.0      0.875      1.030
REMARK  Name = 
REMARK  8 active torsions:
REMARK  status: ('A' for Active; 'I' for Inactive)
REMARK    1  A    between atoms: C_2  and  C_7
REMARK    2  A    between atoms: N_3  and  C_4
REMARK    3  A    between atoms: C_9  and  C_10
REMARK    4  A    between atoms: C_20  and  O_21
REMARK    5  A    between atoms: O_21  and  C_22
REMARK    6  A    between atoms: C_22  and  C_23
REMARK    7  A    between atoms: C_26  and  C_27
REMARK    8  A    between atoms: C_27  and  O_28
REMARK                            x       y       z     vdW  Elec       q    Type
REMARK                         _______ _______ _______ _____ _____    ______ ____
ROOT
ATOM      1  C   UNL     1       6.620   6.681  17.686  0.00  0.00    +0.000 C 
ATOM      2  C   UNL     1       6.547   5.340  17.696  0.00  0.00    +0.000 C 
ATOM      3  C   UNL     1       5.352   4.562  17.223  0.00  0.00    +0.000 C 
ATOM      4  C   UNL     1       4.409   5.499  16.451  0.00  0.00    +0.000 C 
ATOM      5  C   UNL     1       4.316   6.887  17.098  0.00  0.00    +0.000 C 
ATOM      6  O   UNL     1       5.605   7.507  17.231  0.00  0.00    +0.000 OA
ENDROOT
BRANCH   3   7
ATOM      7  C   UNL     1       4.680   3.811  18.367  0.00  0.00    +0.000 A 
ATOM      8  C   UNL     1       5.359   3.286  19.453  0.00  0.00    +0.000 A 
ATOM      9  S   UNL     1       4.353   2.570  20.615  0.00  0.00    +0.000 S 
ATOM     10  C   UNL     1       2.951   2.841  19.663  0.00  0.00    +0.000 A 
ATOM     11  C   UNL     1       1.637   2.460  20.000  0.00  0.00    +0.000 A 
ATOM     12  C   UNL     1       0.611   2.685  19.086  0.00  0.00    +0.000 A 
ATOM     13  C   UNL     1       0.877   3.300  17.874  0.00  0.00    +0.000 A 
ATOM     14  C   UNL     1       2.179   3.725  17.564  0.00  0.00    +0.000 A 
ATOM     15  C   UNL     1       3.257   3.494  18.460  0.00  0.00    +0.000 A 
ENDBRANCH   3   7
BRANCH   1  17
ATOM     16  O   UNL     1       8.594   6.747  19.050  0.00  0.00    +0.000 OA
ATOM     17  C   UNL     1       7.861   7.322  18.247  0.00  0.00    +0.000 C 
ATOM     18  N   UNL     1       8.068   8.608  17.799  0.00  0.00    +0.000 N 
ATOM     19  H   UNL     1       7.383   9.009  17.172  0.00  0.00    +0.000 HD
BRANCH  18  20
ATOM     20  C   UNL     1       9.125   9.424  18.311  0.00  0.00    +0.000 C 
ATOM     21  C   UNL     1       9.035  10.924  18.261  0.00  0.00    +0.000 C 
ATOM     22  C   UNL     1       8.964  10.214  19.580  0.00  0.00    +0.000 C 
ENDBRANCH  18  20
ENDBRANCH   1  17
BRANCH   5  23
ATOM     23  O   UNL     1       3.603   6.827  18.338  0.00  0.00    +0.000 OA
BRANCH  23  24
ATOM     24  C   UNL     1       2.217   7.122  18.177  0.00  0.00    +0.000 C 
BRANCH  24  25
ATOM     25  C   UNL     1       1.824   8.425  18.839  0.00  0.00    +0.000 A 
ATOM     26  C   UNL     1       1.792   9.605  18.079  0.00  0.00    +0.000 A 
ATOM     27  C   UNL     1       1.310  10.798  18.624  0.00  0.00    +0.000 A 
ATOM     28  C   UNL     1       0.825  10.842  19.937  0.00  0.00    +0.000 A 
ATOM     29  C   UNL     1       0.904   9.678  20.714  0.00  0.00    +0.000 A 
ATOM     30  C   UNL     1       1.388   8.481  20.168  0.00  0.00    +0.000 A 
BRANCH  28  31
ATOM     31  C   UNL     1       0.288  12.140  20.489  0.00  0.00    +0.000 C 
BRANCH  31  32
ATOM     32  O   UNL     1       0.291  12.159  21.911  0.00  0.00    +0.000 OA
ATOM     33  H   UNL     1       1.164  12.488  22.182  0.00  0.00    +0.000 HD
ENDBRANCH  31  32
ENDBRANCH  28  31
ENDBRANCH  24  25
ENDBRANCH  23  24
ENDBRANCH   5  23
TORSDOF 8
ENDMDL
MODEL 9
REMARK VINA RESULT:      -7.0      5.388     10.369
REMARK  Name = 
REMARK  8 active torsions:
REMARK  status: ('A' for Active; 'I' for Inactive)
REMARK    1  A    between atoms: C_2  and  C_7
REMARK    2  A    between atoms: N_3  and  C_4
REMARK    3  A    between atoms: C_9  and  C_10
REMARK    4  A    between atoms: C_20  and  O_21
REMARK    5  A    between atoms: O_21  and  C_22
REMARK    6  A    between atoms: C_22  and  C_23
REMARK    7  A    between atoms: C_26  and  C_27
REMARK    8  A    between atoms: C_27  and  O_28
REMARK                            x       y       z     vdW  Elec       q    Type
REMARK                         _______ _______ _______ _____ _____    ______ ____
ROOT
ATOM      1  C   UNL     1       8.884   9.784  18.531  0.00  0.00    +0.000 C 
ATOM      2  C   UNL     1       9.299  10.768  17.718  0.00  0.00    +0.000 C 
ATOM      3  C   UNL     1      10.164  11.913  18.163  0.00  0.00    +0.000 C 
ATOM      4  C   UNL     1      10.742  11.604  19.553  0.00  0.00    +0.000 C 
ATOM      5  C   UNL     1       9.720  10.909  20.463  0.00  0.00    +0.000 C 
ATOM      6  O   UNL     1       9.210   9.702  19.875  0.00  0.00    +0.000 OA
ENDROOT
BRANCH   3   7
ATOM      7  C   UNL     1       9.423  13.244  18.082  0.00  0.00    +0.000 A 
ATOM      8  C   UNL     1       8.081  13.364  17.764  0.00  0.00    +0.000 A 
ATOM      9  S   UNL     1       7.499  14.955  17.825  0.00  0.00    +0.000 S 
ATOM     10  C   UNL     1       9.055  15.581  18.186  0.00  0.00    +0.000 A 
ATOM     11  C   UNL     1       9.377  16.941  18.367  0.00  0.00    +0.000 A 
ATOM     12  C   UNL     1      10.706  17.299  18.584  0.00  0.00    +0.000 A 
ATOM     13  C   UNL     1      11.690  16.327  18.647  0.00  0.00    +0.000 A 
ATOM     14  C   UNL     1      11.357  14.970  18.518  0.00  0.00    +0.000 A 
ATOM     15  C   UNL     1      10.018  14.564  18.274  0.00  0.00    +0.000 A 
ENDBRANCH   3   7
BRANCH   1  17
ATOM     16  O   UNL     1       7.073   9.006  17.161  0.00  0.00    +0.000 OA
ATOM     17  C   UNL     1       7.972   8.733  17.955  0.00  0.00    +0.000 C 
ATOM     18  N   UNL     1       8.226   7.464  18.426  0.00  0.00    +0.000 N 
ATOM     19  H   UNL     1       8.961   7.350  19.111  0.00  0.00    +0.000 HD
BRANCH  18  20
ATOM     20  C   UNL     1       7.389   6.354  18.089  0.00  0.00    +0.000 C 
ATOM     21  C   UNL     1       7.843   4.943  18.340  0.00  0.00    +0.000 C 
ATOM     22  C   UNL     1       6.722   5.523  19.149  0.00  0.00    +0.000 C 
ENDBRANCH  18  20
ENDBRANCH   1  17
BRANCH   5  23
ATOM     23  O   UNL     1       8.682  11.814  20.851  0.00  0.00    +0.000 OA
BRANCH  23  24
ATOM     24  C   UNL     1       8.625  11.994  22.265  0.00  0.00    +0.000 C 
BRANCH  24  25
ATOM     25  C   UNL     1       9.001  13.398  22.684  0.00  0.00    +0.000 A 
ATOM     26  C   UNL     1       9.707  14.220  21.791  0.00  0.00    +0.000 A 
ATOM     27  C   UNL     1       9.956  15.562  22.094  0.00  0.00    +0.000 A 
ATOM     28  C   UNL     1       9.489  16.126  23.287  0.00  0.00    +0.000 A 
ATOM     29  C   UNL     1       8.830  15.295  24.203  0.00  0.00    +0.000 A 
ATOM     30  C   UNL     1       8.579  13.948  23.900  0.00  0.00    +0.000 A 
BRANCH  28  31
ATOM     31  C   UNL     1       9.753  17.584  23.574  0.00  0.00    +0.000 C 
BRANCH  31  32
ATOM     32  O   UNL     1       8.565  18.364  23.524  0.00  0.00    +0.000 OA
ATOM     33  H   UNL     1       8.841  19.279  23.346  0.00  0.00    +0.000 HD
ENDBRANCH  31  32
ENDBRANCH  28  31
ENDBRANCH  24  25
ENDBRANCH  23  24
ENDBRANCH   5  23
TORSDOF 8
ENDMDL
