MODEL 1
REMARK VINA RESULT:      -9.0      0.000      0.000
REMARK  Name = 
REMARK  5 active torsions:
REMARK  status: ('A' for Active; 'I' for Inactive)
REMARK    1  A    between atoms: C_1  and  C_2
REMARK    2  A    between atoms: C_17  and  N_18
REMARK    3  A    between atoms: N_19  and  C_20
REMARK    4  A    between atoms: C_25  and  C_26
REMARK    5  A    between atoms: C_26  and  O_28
REMARK                            x       y       z     vdW  Elec       q    Type
REMARK                         _______ _______ _______ _____ _____    ______ ____
ROOT
ATOM      1  C   UNL     1       2.541   4.189  20.551  0.00  0.00    +0.000 C 
ATOM      2  C   UNL     1       2.422   5.621  20.154  0.00  0.00    +0.000 A 
ATOM      3  N   UNL     1       1.747   6.540  20.948  0.00  0.00    +0.000 N 
ATOM      4  N   UNL     1       1.608   7.705  20.172  0.00  0.00    +0.000 N 
ATOM      5  C   UNL     1       0.895   8.808  20.608  0.00  0.00    +0.000 A 
ATOM      6  N   UNL     1       0.429   8.968  21.831  0.00  0.00    +0.000 NA
ATOM      7  C   UNL     1      -0.256  10.171  21.925  0.00  0.00    +0.000 A 
ATOM      8  C   UNL     1      -0.831  10.720  23.090  0.00  0.00    +0.000 A 
ATOM      9  C   UNL     1      -1.556  11.917  23.015  0.00  0.00    +0.000 A 
ATOM     10  C   UNL     1      -1.711  12.565  21.795  0.00  0.00    +0.000 A 
ATOM     11 CL   UNL     1      -2.644  14.011  21.712  0.00  0.00    +0.000 Cl
ATOM     12  C   UNL     1      -1.126  12.065  20.629  0.00  0.00    +0.000 A 
ATOM     13  C   UNL     1      -0.390  10.872  20.724  0.00  0.00    +0.000 A 
ATOM     14  S   UNL     1       0.475  10.037  19.497  0.00  0.00    +0.000 S 
ATOM     15  C   UNL     1       2.331   7.561  18.990  0.00  0.00    +0.000 A 
ATOM     16  O   UNL     1       2.528   8.349  18.078  0.00  0.00    +0.000 OA
ATOM     17  C   UNL     1       2.881   6.164  19.010  0.00  0.00    +0.000 A 
ATOM     18  H   UNL     1       0.871   6.203  21.354  0.00  0.00    +0.000 HD
ENDROOT
BRANCH  17  19
ATOM     19  N   UNL     1       3.615   5.647  17.979  0.00  0.00    +0.000 NA
ATOM     20  N   UNL     1       4.845   5.535  18.182  0.00  0.00    +0.000 NA
BRANCH  20  21
ATOM     21  C   UNL     1       5.541   5.159  17.007  0.00  0.00    +0.000 A 
ATOM     22  C   UNL     1       4.983   4.219  16.119  0.00  0.00    +0.000 A 
ATOM     23  C   UNL     1       5.627   3.873  14.929  0.00  0.00    +0.000 A 
ATOM     24  C   UNL     1       6.834   4.474  14.592  0.00  0.00    +0.000 A 
ATOM     25  C   UNL     1       7.399   5.418  15.449  0.00  0.00    +0.000 A 
ATOM     26  C   UNL     1       6.759   5.769  16.653  0.00  0.00    +0.000 A 
BRANCH  26  27
ATOM     27  C   UNL     1       7.459   6.774  17.497  0.00  0.00    +0.000 C 
ATOM     28  O   UNL     1       7.658   7.922  17.123  0.00  0.00    +0.000 OA
BRANCH  27  29
ATOM     29  O   UNL     1       7.790   6.354  18.734  0.00  0.00    +0.000 OA
ATOM     30  H   UNL     1       7.197   5.667  19.095  0.00  0.00    +0.000 HD
ENDBRANCH  27  29
ENDBRANCH  26  27
ENDBRANCH  20  21
ENDBRANCH  17  19
TORSDOF 4
ENDMDL
MODEL 2
REMARK VINA RESULT:      -8.3      1.732      2.190
REMARK  Name = 
REMARK  5 active torsions:
REMARK  status: ('A' for Active; 'I' for Inactive)
REMARK    1  A    between atoms: C_1  and  C_2
REMARK    2  A    between atoms: C_17  and  N_18
REMARK    3  A    between atoms: N_19  and  C_20
REMARK    4  A    between atoms: C_25  and  C_26
REMARK    5  A    between atoms: C_26  and  O_28
REMARK                            x       y       z     vdW  Elec       q    Type
REMARK                         _______ _______ _______ _____ _____    ______ ____
ROOT
ATOM      1  C   UNL     1       2.112   5.098  20.920  0.00  0.00    +0.000 C 
ATOM      2  C   UNL     1       2.040   6.449  20.294  0.00  0.00    +0.000 A 
ATOM      3  N   UNL     1       1.481   7.530  20.965  0.00  0.00    +0.000 N 
ATOM      4  N   UNL     1       1.344   8.557  20.014  0.00  0.00    +0.000 N 
ATOM      5  C   UNL     1       0.729   9.763  20.304  0.00  0.00    +0.000 A 
ATOM      6  N   UNL     1       0.371  10.153  21.512  0.00  0.00    +0.000 NA
ATOM      7  C   UNL     1      -0.238  11.398  21.447  0.00  0.00    +0.000 A 
ATOM      8  C   UNL     1      -0.689  12.169  22.539  0.00  0.00    +0.000 A 
ATOM      9  C   UNL     1      -1.352  13.383  22.312  0.00  0.00    +0.000 A 
ATOM     10  C   UNL     1      -1.568  13.830  21.013  0.00  0.00    +0.000 A 
ATOM     11 CL   UNL     1      -2.424  15.301  20.750  0.00  0.00    +0.000 Cl
ATOM     12  C   UNL     1      -1.105  13.105  19.912  0.00  0.00    +0.000 A 
ATOM     13  C   UNL     1      -0.429  11.898  20.157  0.00  0.00    +0.000 A 
ATOM     14  S   UNL     1       0.290  10.816  19.033  0.00  0.00    +0.000 S 
ATOM     15  C   UNL     1       1.962   8.172  18.827  0.00  0.00    +0.000 A 
ATOM     16  O   UNL     1       2.129   8.783  17.783  0.00  0.00    +0.000 OA
ATOM     17  C   UNL     1       2.436   6.763  19.045  0.00  0.00    +0.000 A 
ATOM     18  H   UNL     1       0.623   7.324  21.482  0.00  0.00    +0.000 HD
ENDROOT
BRANCH  17  19
ATOM     19  N   UNL     1       3.057   6.035  18.069  0.00  0.00    +0.000 NA
ATOM     20  N   UNL     1       4.308   6.041  18.092  0.00  0.00    +0.000 NA
BRANCH  20  21
ATOM     21  C   UNL     1       4.858   5.410  16.949  0.00  0.00    +0.000 A 
ATOM     22  C   UNL     1       5.348   6.180  15.876  0.00  0.00    +0.000 A 
ATOM     23  C   UNL     1       5.941   5.581  14.763  0.00  0.00    +0.000 A 
ATOM     24  C   UNL     1       6.074   4.198  14.707  0.00  0.00    +0.000 A 
ATOM     25  C   UNL     1       5.609   3.416  15.764  0.00  0.00    +0.000 A 
ATOM     26  C   UNL     1       5.006   4.012  16.887  0.00  0.00    +0.000 A 
BRANCH  26  27
ATOM     27  C   UNL     1       4.533   3.081  17.947  0.00  0.00    +0.000 C 
ATOM     28  O   UNL     1       3.653   2.255  17.752  0.00  0.00    +0.000 OA
BRANCH  27  29
ATOM     29  O   UNL     1       5.197   3.160  19.118  0.00  0.00    +0.000 OA
ATOM     30  H   UNL     1       6.165   3.252  19.023  0.00  0.00    +0.000 HD
ENDBRANCH  27  29
ENDBRANCH  26  27
ENDBRANCH  20  21
ENDBRANCH  17  19
TORSDOF 4
ENDMDL
MODEL 3
REMARK VINA RESULT:      -8.1      1.255      1.438
REMARK  Name = 
REMARK  5 active torsions:
REMARK  status: ('A' for Active; 'I' for Inactive)
REMARK    1  A    between atoms: C_1  and  C_2
REMARK    2  A    between atoms: C_17  and  N_18
REMARK    3  A    between atoms: N_19  and  C_20
REMARK    4  A    between atoms: C_25  and  C_26
REMARK    5  A    between atoms: C_26  and  O_28
REMARK                            x       y       z     vdW  Elec       q    Type
REMARK                         _______ _______ _______ _____ _____    ______ ____
ROOT
ATOM      1  C   UNL     1       2.309   5.016  20.684  0.00  0.00    +0.000 C 
ATOM      2  C   UNL     1       2.205   6.407  20.160  0.00  0.00    +0.000 A 
ATOM      3  N   UNL     1       1.546   7.403  20.870  0.00  0.00    +0.000 N 
ATOM      4  N   UNL     1       1.415   8.494  19.993  0.00  0.00    +0.000 N 
ATOM      5  C   UNL     1       0.718   9.641  20.331  0.00  0.00    +0.000 A 
ATOM      6  N   UNL     1       0.261   9.917  21.537  0.00  0.00    +0.000 NA
ATOM      7  C   UNL     1      -0.410  11.131  21.524  0.00  0.00    +0.000 A 
ATOM      8  C   UNL     1      -0.971  11.791  22.637  0.00  0.00    +0.000 A 
ATOM      9  C   UNL     1      -1.683  12.985  22.458  0.00  0.00    +0.000 A 
ATOM     10  C   UNL     1      -1.838  13.522  21.185  0.00  0.00    +0.000 A 
ATOM     11 CL   UNL     1      -2.754  14.965  20.976  0.00  0.00    +0.000 Cl
ATOM     12  C   UNL     1      -1.265  12.911  20.067  0.00  0.00    +0.000 A 
ATOM     13  C   UNL     1      -0.542  11.722  20.266  0.00  0.00    +0.000 A 
ATOM     14  S   UNL     1       0.306  10.769  19.115  0.00  0.00    +0.000 S 
ATOM     15  C   UNL     1       2.129   8.235  18.826  0.00  0.00    +0.000 A 
ATOM     16  O   UNL     1       2.330   8.935  17.845  0.00  0.00    +0.000 OA
ATOM     17  C   UNL     1       2.664   6.839  18.969  0.00  0.00    +0.000 A 
ATOM     18  H   UNL     1       0.668   7.114  21.310  0.00  0.00    +0.000 HD
ENDROOT
BRANCH  17  19
ATOM     19  N   UNL     1       3.385   6.222  17.986  0.00  0.00    +0.000 NA
ATOM     20  N   UNL     1       4.628   6.352  18.053  0.00  0.00    +0.000 NA
BRANCH  20  21
ATOM     21  C   UNL     1       5.275   5.832  16.905  0.00  0.00    +0.000 A 
ATOM     22  C   UNL     1       4.888   6.251  15.618  0.00  0.00    +0.000 A 
ATOM     23  C   UNL     1       5.545   5.792  14.475  0.00  0.00    +0.000 A 
ATOM     24  C   UNL     1       6.618   4.916  14.596  0.00  0.00    +0.000 A 
ATOM     25  C   UNL     1       7.029   4.497  15.861  0.00  0.00    +0.000 A 
ATOM     26  C   UNL     1       6.368   4.952  17.018  0.00  0.00    +0.000 A 
BRANCH  26  27
ATOM     27  C   UNL     1       6.880   4.429  18.313  0.00  0.00    +0.000 C 
ATOM     28  O   UNL     1       8.035   4.594  18.678  0.00  0.00    +0.000 OA
BRANCH  27  29
ATOM     29  O   UNL     1       5.960   3.826  19.092  0.00  0.00    +0.000 OA
ATOM     30  H   UNL     1       5.150   3.555  18.618  0.00  0.00    +0.000 HD
ENDBRANCH  27  29
ENDBRANCH  26  27
ENDBRANCH  20  21
ENDBRANCH  17  19
TORSDOF 4
ENDMDL
MODEL 4
REMARK VINA RESULT:      -8.0      1.411      1.770
REMARK  Name = 
REMARK  5 active torsions:
REMARK  status: ('A' for Active; 'I' for Inactive)
REMARK    1  A    between atoms: C_1  and  C_2
REMARK    2  A    between atoms: C_17  and  N_18
REMARK    3  A    between atoms: N_19  and  C_20
REMARK    4  A    between atoms: C_25  and  C_26
REMARK    5  A    between atoms: C_26  and  O_28
REMARK                            x       y       z     vdW  Elec       q    Type
REMARK                         _______ _______ _______ _____ _____    ______ ____
ROOT
ATOM      1  C   UNL     1       4.083   3.902  19.085  0.00  0.00    +0.000 C 
ATOM      2  C   UNL     1       3.697   5.333  18.920  0.00  0.00    +0.000 A 
ATOM      3  N   UNL     1       3.010   6.017  19.915  0.00  0.00    +0.000 N 
ATOM      4  N   UNL     1       2.590   7.231  19.341  0.00  0.00    +0.000 N 
ATOM      5  C   UNL     1       1.788   8.135  20.016  0.00  0.00    +0.000 A 
ATOM      6  N   UNL     1       1.479   8.058  21.296  0.00  0.00    +0.000 NA
ATOM      7  C   UNL     1       0.641   9.107  21.646  0.00  0.00    +0.000 A 
ATOM      8  C   UNL     1       0.159   9.399  22.939  0.00  0.00    +0.000 A 
ATOM      9  C   UNL     1      -0.741  10.457  23.127  0.00  0.00    +0.000 A 
ATOM     10  C   UNL     1      -1.161  11.220  22.043  0.00  0.00    +0.000 A 
ATOM     11 CL   UNL     1      -2.302  12.487  22.285  0.00  0.00    +0.000 Cl
ATOM     12  C   UNL     1      -0.676  10.976  20.756  0.00  0.00    +0.000 A 
ATOM     13  C   UNL     1       0.237   9.922  20.586  0.00  0.00    +0.000 A 
ATOM     14  S   UNL     1       1.037   9.406  19.156  0.00  0.00    +0.000 S 
ATOM     15  C   UNL     1       3.154   7.362  18.075  0.00  0.00    +0.000 A 
ATOM     16  O   UNL     1       3.102   8.281  17.272  0.00  0.00    +0.000 OA
ATOM     17  C   UNL     1       3.905   6.086  17.823  0.00  0.00    +0.000 A 
ATOM     18  H   UNL     1       2.260   5.489  20.367  0.00  0.00    +0.000 HD
ENDROOT
BRANCH  17  19
ATOM     19  N   UNL     1       4.557   5.834  16.648  0.00  0.00    +0.000 NA
ATOM     20  N   UNL     1       4.568   4.640  16.270  0.00  0.00    +0.000 NA
BRANCH  20  21
ATOM     21  C   UNL     1       5.408   4.452  15.146  0.00  0.00    +0.000 A 
ATOM     22  C   UNL     1       4.868   4.030  13.916  0.00  0.00    +0.000 A 
ATOM     23  C   UNL     1       5.670   3.887  12.781  0.00  0.00    +0.000 A 
ATOM     24  C   UNL     1       7.027   4.182  12.848  0.00  0.00    +0.000 A 
ATOM     25  C   UNL     1       7.581   4.615  14.052  0.00  0.00    +0.000 A 
ATOM     26  C   UNL     1       6.781   4.756  15.201  0.00  0.00    +0.000 A 
BRANCH  26  27
ATOM     27  C   UNL     1       7.480   5.210  16.434  0.00  0.00    +0.000 C 
ATOM     28  O   UNL     1       8.021   4.431  17.207  0.00  0.00    +0.000 OA
BRANCH  27  29
ATOM     29  O   UNL     1       7.542   6.546  16.600  0.00  0.00    +0.000 OA
ATOM     30  H   UNL     1       8.351   6.957  16.238  0.00  0.00    +0.000 HD
ENDBRANCH  27  29
ENDBRANCH  26  27
ENDBRANCH  20  21
ENDBRANCH  17  19
TORSDOF 4
ENDMDL
MODEL 5
REMARK VINA RESULT:      -8.0      0.887      1.005
REMARK  Name = 
REMARK  5 active torsions:
REMARK  status: ('A' for Active; 'I' for Inactive)
REMARK    1  A    between atoms: C_1  and  C_2
REMARK    2  A    between atoms: C_17  and  N_18
REMARK    3  A    between atoms: N_19  and  C_20
REMARK    4  A    between atoms: C_25  and  C_26
REMARK    5  A    between atoms: C_26  and  O_28
REMARK                            x       y       z     vdW  Elec       q    Type
REMARK                         _______ _______ _______ _____ _____    ______ ____
ROOT
ATOM      1  C   UNL     1       3.227   4.338  19.662  0.00  0.00    +0.000 C 
ATOM      2  C   UNL     1       2.963   5.788  19.436  0.00  0.00    +0.000 A 
ATOM      3  N   UNL     1       2.231   6.542  20.346  0.00  0.00    +0.000 N 
ATOM      4  N   UNL     1       1.958   7.768  19.713  0.00  0.00    +0.000 N 
ATOM      5  C   UNL     1       1.160   8.741  20.289  0.00  0.00    +0.000 A 
ATOM      6  N   UNL     1       0.720   8.716  21.532  0.00  0.00    +0.000 NA
ATOM      7  C   UNL     1      -0.071   9.828  21.779  0.00  0.00    +0.000 A 
ATOM      8  C   UNL     1      -0.657  10.184  23.012  0.00  0.00    +0.000 A 
ATOM      9  C   UNL     1      -1.493  11.306  23.091  0.00  0.00    +0.000 A 
ATOM     10  C   UNL     1      -1.747  12.070  21.958  0.00  0.00    +0.000 A 
ATOM     11 CL   UNL     1      -2.813  13.419  22.063  0.00  0.00    +0.000 Cl
ATOM     12  C   UNL     1      -1.155  11.764  20.730  0.00  0.00    +0.000 A 
ATOM     13  C   UNL     1      -0.308  10.644  20.671  0.00  0.00    +0.000 A 
ATOM     14  S   UNL     1       0.591  10.041  19.337  0.00  0.00    +0.000 S 
ATOM     15  C   UNL     1       2.653   7.829  18.508  0.00  0.00    +0.000 A 
ATOM     16  O   UNL     1       2.746   8.731  17.689  0.00  0.00    +0.000 OA
ATOM     17  C   UNL     1       3.332   6.499  18.353  0.00  0.00    +0.000 A 
ATOM     18  H   UNL     1       1.403   6.078  20.729  0.00  0.00    +0.000 HD
ENDROOT
BRANCH  17  19
ATOM     19  N   UNL     1       4.077   6.175  17.254  0.00  0.00    +0.000 NA
ATOM     20  N   UNL     1       4.249   4.952  17.048  0.00  0.00    +0.000 NA
BRANCH  20  21
ATOM     21  C   UNL     1       5.171   4.720  15.998  0.00  0.00    +0.000 A 
ATOM     22  C   UNL     1       4.714   4.415  14.702  0.00  0.00    +0.000 A 
ATOM     23  C   UNL     1       5.603   4.234  13.641  0.00  0.00    +0.000 A 
ATOM     24  C   UNL     1       6.971   4.372  13.850  0.00  0.00    +0.000 A 
ATOM     25  C   UNL     1       7.447   4.688  15.122  0.00  0.00    +0.000 A 
ATOM     26  C   UNL     1       6.557   4.868  16.197  0.00  0.00    +0.000 A 
BRANCH  26  27
ATOM     27  C   UNL     1       7.175   5.186  17.513  0.00  0.00    +0.000 C 
ATOM     28  O   UNL     1       7.774   6.232  17.721  0.00  0.00    +0.000 OA
BRANCH  27  29
ATOM     29  O   UNL     1       6.963   4.274  18.482  0.00  0.00    +0.000 OA
ATOM     30  H   UNL     1       6.958   4.645  19.386  0.00  0.00    +0.000 HD
ENDBRANCH  27  29
ENDBRANCH  26  27
ENDBRANCH  20  21
ENDBRANCH  17  19
TORSDOF 4
ENDMDL
MODEL 6
REMARK VINA RESULT:      -7.7      3.898      9.232
REMARK  Name = 
REMARK  5 active torsions:
REMARK  status: ('A' for Active; 'I' for Inactive)
REMARK    1  A    between atoms: C_1  and  C_2
REMARK    2  A    between atoms: C_17  and  N_18
REMARK    3  A    between atoms: N_19  and  C_20
REMARK    4  A    between atoms: C_25  and  C_26
REMARK    5  A    between atoms: C_26  and  O_28
REMARK                            x       y       z     vdW  Elec       q    Type
REMARK                         _______ _______ _______ _____ _____    ______ ____
ROOT
ATOM      1  C   UNL     1       0.142   9.416  23.113  0.00  0.00    +0.000 C 
ATOM      2  C   UNL     1       0.553   9.230  21.692  0.00  0.00    +0.000 A 
ATOM      3  N   UNL     1       1.081   8.026  21.242  0.00  0.00    +0.000 N 
ATOM      4  N   UNL     1       1.588   8.274  19.954  0.00  0.00    +0.000 N 
ATOM      5  C   UNL     1       2.279   7.319  19.229  0.00  0.00    +0.000 A 
ATOM      6  N   UNL     1       2.387   6.049  19.569  0.00  0.00    +0.000 NA
ATOM      7  C   UNL     1       3.164   5.373  18.639  0.00  0.00    +0.000 A 
ATOM      8  C   UNL     1       3.442   3.990  18.625  0.00  0.00    +0.000 A 
ATOM      9  C   UNL     1       4.306   3.460  17.656  0.00  0.00    +0.000 A 
ATOM     10  C   UNL     1       4.890   4.293  16.709  0.00  0.00    +0.000 A 
ATOM     11 CL   UNL     1       5.984   3.633  15.555  0.00  0.00    +0.000 Cl
ATOM     12  C   UNL     1       4.609   5.661  16.676  0.00  0.00    +0.000 A 
ATOM     13  C   UNL     1       3.729   6.175  17.645  0.00  0.00    +0.000 A 
ATOM     14  S   UNL     1       3.158   7.783  17.839  0.00  0.00    +0.000 S 
ATOM     15  C   UNL     1       1.227   9.559  19.556  0.00  0.00    +0.000 A 
ATOM     16  O   UNL     1       1.405  10.144  18.499  0.00  0.00    +0.000 OA
ATOM     17  C   UNL     1       0.519  10.172  20.731  0.00  0.00    +0.000 A 
ATOM     18  H   UNL     1       1.751   7.581  21.875  0.00  0.00    +0.000 HD
ENDROOT
BRANCH  17  19
ATOM     19  N   UNL     1       0.056  11.458  20.722  0.00  0.00    +0.000 NA
ATOM     20  N   UNL     1       0.855  12.332  21.129  0.00  0.00    +0.000 NA
BRANCH  20  21
ATOM     21  C   UNL     1       0.232  13.598  21.249  0.00  0.00    +0.000 A 
ATOM     22  C   UNL     1      -0.416  13.964  22.445  0.00  0.00    +0.000 A 
ATOM     23  C   UNL     1      -0.991  15.226  22.604  0.00  0.00    +0.000 A 
ATOM     24  C   UNL     1      -0.914  16.159  21.575  0.00  0.00    +0.000 A 
ATOM     25  C   UNL     1      -0.266  15.825  20.386  0.00  0.00    +0.000 A 
ATOM     26  C   UNL     1       0.312  14.553  20.217  0.00  0.00    +0.000 A 
BRANCH  26  27
ATOM     27  C   UNL     1       0.965  14.300  18.904  0.00  0.00    +0.000 C 
ATOM     28  O   UNL     1       1.857  15.012  18.465  0.00  0.00    +0.000 OA
BRANCH  27  29
ATOM     29  O   UNL     1       0.555  13.186  18.265  0.00  0.00    +0.000 OA
ATOM     30  H   UNL     1       0.982  13.042  17.398  0.00  0.00    +0.000 HD
ENDBRANCH  27  29
ENDBRANCH  26  27
ENDBRANCH  20  21
ENDBRANCH  17  19
TORSDOF 4
ENDMDL
MODEL 7
REMARK VINA RESULT:      -7.5      4.374     10.500
REMARK  Name = 
REMARK  5 active torsions:
REMARK  status: ('A' for Active; 'I' for Inactive)
REMARK    1  A    between atoms: C_1  and  C_2
REMARK    2  A    between atoms: C_17  and  N_18
REMARK    3  A    between atoms: N_19  and  C_20
REMARK    4  A    between atoms: C_25  and  C_26
REMARK    5  A    between atoms: C_26  and  O_28
REMARK                            x       y       z     vdW  Elec       q    Type
REMARK                         _______ _______ _______ _____ _____    ______ ____
ROOT
ATOM      1  C   UNL     1      -0.521  12.985  18.802  0.00  0.00    +0.000 C 
ATOM      2  C   UNL     1       0.158  11.931  19.608  0.00  0.00    +0.000 A 
ATOM      3  N   UNL     1       0.749  10.827  19.007  0.00  0.00    +0.000 N 
ATOM      4  N   UNL     1       1.058   9.929  20.045  0.00  0.00    +0.000 N 
ATOM      5  C   UNL     1       1.576   8.668  19.808  0.00  0.00    +0.000 A 
ATOM      6  N   UNL     1       1.997   8.234  18.636  0.00  0.00    +0.000 NA
ATOM      7  C   UNL     1       2.431   6.921  18.743  0.00  0.00    +0.000 A 
ATOM      8  C   UNL     1       3.017   6.145  17.721  0.00  0.00    +0.000 A 
ATOM      9  C   UNL     1       3.342   4.803  17.961  0.00  0.00    +0.000 A 
ATOM     10  C   UNL     1       3.090   4.234  19.204  0.00  0.00    +0.000 A 
ATOM     11 CL   UNL     1       3.454   2.571  19.468  0.00  0.00    +0.000 Cl
ATOM     12  C   UNL     1       2.543   4.985  20.247  0.00  0.00    +0.000 A 
ATOM     13  C   UNL     1       2.235   6.333  19.994  0.00  0.00    +0.000 A 
ATOM     14  S   UNL     1       1.602   7.514  21.068  0.00  0.00    +0.000 S 
ATOM     15  C   UNL     1       0.817  10.543  21.271  0.00  0.00    +0.000 A 
ATOM     16  O   UNL     1       1.009  10.146  22.410  0.00  0.00    +0.000 OA
ATOM     17  C   UNL     1       0.231  11.889  20.953  0.00  0.00    +0.000 A 
ATOM     18  H   UNL     1       0.213  10.410  18.241  0.00  0.00    +0.000 HD
ENDROOT
BRANCH  17  19
ATOM     19  N   UNL     1      -0.176  12.763  21.921  0.00  0.00    +0.000 NA
ATOM     20  N   UNL     1      -1.280  12.514  22.457  0.00  0.00    +0.000 NA
BRANCH  20  21
ATOM     21  C   UNL     1      -1.696  13.561  23.314  0.00  0.00    +0.000 A 
ATOM     22  C   UNL     1      -0.837  14.643  23.589  0.00  0.00    +0.000 A 
ATOM     23  C   UNL     1      -1.245  15.711  24.389  0.00  0.00    +0.000 A 
ATOM     24  C   UNL     1      -2.530  15.731  24.919  0.00  0.00    +0.000 A 
ATOM     25  C   UNL     1      -3.405  14.678  24.650  0.00  0.00    +0.000 A 
ATOM     26  C   UNL     1      -2.999  13.595  23.847  0.00  0.00    +0.000 A 
BRANCH  26  27
ATOM     27  C   UNL     1      -4.007  12.521  23.639  0.00  0.00    +0.000 C 
ATOM     28  O   UNL     1      -4.514  11.907  24.567  0.00  0.00    +0.000 OA
BRANCH  27  29
ATOM     29  O   UNL     1      -4.379  12.324  22.359  0.00  0.00    +0.000 OA
ATOM     30  H   UNL     1      -5.346  12.331  22.218  0.00  0.00    +0.000 HD
ENDBRANCH  27  29
ENDBRANCH  26  27
ENDBRANCH  20  21
ENDBRANCH  17  19
TORSDOF 4
ENDMDL
MODEL 8
REMARK VINA RESULT:      -7.4      2.253      3.219
REMARK  Name = 
REMARK  5 active torsions:
REMARK  status: ('A' for Active; 'I' for Inactive)
REMARK    1  A    between atoms: C_1  and  C_2
REMARK    2  A    between atoms: C_17  and  N_18
REMARK    3  A    between atoms: N_19  and  C_20
REMARK    4  A    between atoms: C_25  and  C_26
REMARK    5  A    between atoms: C_26  and  O_28
REMARK                            x       y       z     vdW  Elec       q    Type
REMARK                         _______ _______ _______ _____ _____    ______ ____
ROOT
ATOM      1  C   UNL     1       3.630   2.149  18.178  0.00  0.00    +0.000 C 
ATOM      2  C   UNL     1       3.701   3.632  18.041  0.00  0.00    +0.000 A 
ATOM      3  N   UNL     1       3.120   4.475  18.980  0.00  0.00    +0.000 N 
ATOM      4  N   UNL     1       3.149   5.766  18.423  0.00  0.00    +0.000 N 
ATOM      5  C   UNL     1       2.564   6.857  19.042  0.00  0.00    +0.000 A 
ATOM      6  N   UNL     1       2.083   6.858  20.270  0.00  0.00    +0.000 NA
ATOM      7  C   UNL     1       1.549   8.102  20.570  0.00  0.00    +0.000 A 
ATOM      8  C   UNL     1       1.010   8.506  21.809  0.00  0.00    +0.000 A 
ATOM      9  C   UNL     1       0.440   9.780  21.942  0.00  0.00    +0.000 A 
ATOM     10  C   UNL     1       0.403  10.647  20.855  0.00  0.00    +0.000 A 
ATOM     11 CL   UNL     1      -0.341  12.190  21.023  0.00  0.00    +0.000 Cl
ATOM     12  C   UNL     1       0.959  10.289  19.625  0.00  0.00    +0.000 A 
ATOM     13  C   UNL     1       1.540   9.014  19.512  0.00  0.00    +0.000 A 
ATOM     14  S   UNL     1       2.333   8.305  18.164  0.00  0.00    +0.000 S 
ATOM     15  C   UNL     1       3.885   5.742  17.241  0.00  0.00    +0.000 A 
ATOM     16  O   UNL     1       4.206   6.646  16.485  0.00  0.00    +0.000 OA
ATOM     17  C   UNL     1       4.259   4.304  17.016  0.00  0.00    +0.000 A 
ATOM     18  H   UNL     1       2.197   4.186  19.312  0.00  0.00    +0.000 HD
ENDROOT
BRANCH  17  19
ATOM     19  N   UNL     1       4.955   3.888  15.916  0.00  0.00    +0.000 NA
ATOM     20  N   UNL     1       5.010   4.696  14.962  0.00  0.00    +0.000 NA
BRANCH  20  21
ATOM     21  C   UNL     1       5.596   4.114  13.812  0.00  0.00    +0.000 A 
ATOM     22  C   UNL     1       4.854   3.231  13.003  0.00  0.00    +0.000 A 
ATOM     23  C   UNL     1       5.394   2.686  11.836  0.00  0.00    +0.000 A 
ATOM     24  C   UNL     1       6.683   3.027  11.443  0.00  0.00    +0.000 A 
ATOM     25  C   UNL     1       7.433   3.909  12.220  0.00  0.00    +0.000 A 
ATOM     26  C   UNL     1       6.897   4.459  13.400  0.00  0.00    +0.000 A 
BRANCH  26  27
ATOM     27  C   UNL     1       7.790   5.376  14.159  0.00  0.00    +0.000 C 
ATOM     28  O   UNL     1       8.730   5.959  13.637  0.00  0.00    +0.000 OA
BRANCH  27  29
ATOM     29  O   UNL     1       7.443   5.580  15.445  0.00  0.00    +0.000 OA
ATOM     30  H   UNL     1       6.585   5.186  15.696  0.00  0.00    +0.000 HD
ENDBRANCH  27  29
ENDBRANCH  26  27
ENDBRANCH  20  21
ENDBRANCH  17  19
TORSDOF 4
ENDMDL
MODEL 9
REMARK VINA RESULT:      -7.4      2.474      4.174
REMARK  Name = 
REMARK  5 active torsions:
REMARK  status: ('A' for Active; 'I' for Inactive)
REMARK    1  A    between atoms: C_1  and  C_2
REMARK    2  A    between atoms: C_17  and  N_18
REMARK    3  A    between atoms: N_19  and  C_20
REMARK    4  A    between atoms: C_25  and  C_26
REMARK    5  A    between atoms: C_26  and  O_28
REMARK                            x       y       z     vdW  Elec       q    Type
REMARK                         _______ _______ _______ _____ _____    ______ ____
ROOT
ATOM      1  C   UNL     1       2.316   8.918  17.628  0.00  0.00    +0.000 C 
ATOM      2  C   UNL     1       1.488   9.014  18.864  0.00  0.00    +0.000 A 
ATOM      3  N   UNL     1       0.609  10.070  19.067  0.00  0.00    +0.000 N 
ATOM      4  N   UNL     1       0.196   9.988  20.410  0.00  0.00    +0.000 N 
ATOM      5  C   UNL     1      -0.616  10.941  20.999  0.00  0.00    +0.000 A 
ATOM      6  N   UNL     1      -1.227  11.913  20.350  0.00  0.00    +0.000 NA
ATOM      7  C   UNL     1      -1.939  12.703  21.241  0.00  0.00    +0.000 A 
ATOM      8  C   UNL     1      -2.776  13.791  20.914  0.00  0.00    +0.000 A 
ATOM      9  C   UNL     1      -3.377  14.542  21.933  0.00  0.00    +0.000 A 
ATOM     10  C   UNL     1      -3.152  14.218  23.266  0.00  0.00    +0.000 A 
ATOM     11 CL   UNL     1      -3.863  15.179  24.507  0.00  0.00    +0.000 Cl
ATOM     12  C   UNL     1      -2.357  13.127  23.622  0.00  0.00    +0.000 A 
ATOM     13  C   UNL     1      -1.773  12.375  22.588  0.00  0.00    +0.000 A 
ATOM     14  S   UNL     1      -0.793  10.968  22.698  0.00  0.00    +0.000 S 
ATOM     15  C   UNL     1       0.680   8.807  20.968  0.00  0.00    +0.000 A 
ATOM     16  O   UNL     1       0.504   8.321  22.075  0.00  0.00    +0.000 OA
ATOM     17  C   UNL     1       1.528   8.164  19.908  0.00  0.00    +0.000 A 
ATOM     18  H   UNL     1       0.965  10.990  18.797  0.00  0.00    +0.000 HD
ENDROOT
BRANCH  17  19
ATOM     19  N   UNL     1       2.208   6.997  20.116  0.00  0.00    +0.000 NA
ATOM     20  N   UNL     1       1.828   6.012  19.445  0.00  0.00    +0.000 NA
BRANCH  20  21
ATOM     21  C   UNL     1       2.470   4.817  19.853  0.00  0.00    +0.000 A 
ATOM     22  C   UNL     1       1.999   4.101  20.970  0.00  0.00    +0.000 A 
ATOM     23  C   UNL     1       2.584   2.894  21.360  0.00  0.00    +0.000 A 
ATOM     24  C   UNL     1       3.642   2.368  20.627  0.00  0.00    +0.000 A 
ATOM     25  C   UNL     1       4.117   3.052  19.509  0.00  0.00    +0.000 A 
ATOM     26  C   UNL     1       3.535   4.271  19.114  0.00  0.00    +0.000 A 
BRANCH  26  27
ATOM     27  C   UNL     1       4.132   4.922  17.916  0.00  0.00    +0.000 C 
ATOM     28  O   UNL     1       4.237   4.349  16.841  0.00  0.00    +0.000 OA
BRANCH  27  29
ATOM     29  O   UNL     1       4.477   6.215  18.078  0.00  0.00    +0.000 OA
ATOM     30  H   UNL     1       5.441   6.368  18.129  0.00  0.00    +0.000 HD
ENDBRANCH  27  29
ENDBRANCH  26  27
ENDBRANCH  20  21
ENDBRANCH  17  19
TORSDOF 4
ENDMDL
