MODEL 1
REMARK VINA RESULT:      -7.6      0.000      0.000
REMARK  Name = 
REMARK  6 active torsions:
REMARK  status: ('A' for Active; 'I' for Inactive)
REMARK    1  A    between atoms: C_1  and  C_2
REMARK    2  A    between atoms: C_5  and  N_6
REMARK    3  A    between atoms: C_7  and  S_8
REMARK    4  A    between atoms: N_9  and  N_10
REMARK    5  A    between atoms: C_11  and  C_13
REMARK    6  A    between atoms: C_17  and  N_18
REMARK                            x       y       z     vdW  Elec       q    Type
REMARK                         _______ _______ _______ _____ _____    ______ ____
ROOT
ATOM      1  N   UNL     1       3.509   4.404  18.974  0.00  0.00    +0.000 N 
ATOM      2  C   UNL     1       2.836   5.349  19.709  0.00  0.00    +0.000 C 
ATOM      3  N   UNL     1       2.777   6.628  19.491  0.00  0.00    +0.000 NA
ATOM      4  H   UNL     1       3.530   3.479  19.381  0.00  0.00    +0.000 HD
ENDROOT
BRANCH   1   9
ATOM      5  C   UNL     1       7.214   5.192  14.628  0.00  0.00    +0.000 C 
ATOM      6  C   UNL     1       6.259   4.996  15.772  0.00  0.00    +0.000 A 
ATOM      7  C   UNL     1       5.240   4.046  15.662  0.00  0.00    +0.000 A 
ATOM      8  C   UNL     1       4.328   3.837  16.705  0.00  0.00    +0.000 A 
ATOM      9  C   UNL     1       4.391   4.577  17.888  0.00  0.00    +0.000 A 
ATOM     10  C   UNL     1       5.432   5.515  18.005  0.00  0.00    +0.000 A 
ATOM     11  C   UNL     1       6.349   5.725  16.963  0.00  0.00    +0.000 A 
ATOM     12 CL   UNL     1       7.589   6.906  17.204  0.00  0.00    +0.000 Cl
ENDBRANCH   1   9
BRANCH   3  13
ATOM     13  N   UNL     1       2.039   7.403  20.341  0.00  0.00    +0.000 N 
ATOM     14  C   UNL     1       1.485   8.593  19.903  0.00  0.00    +0.000 C 
ATOM     15  O   UNL     1       1.593   9.053  18.772  0.00  0.00    +0.000 OA
ATOM     16  H   UNL     1       1.858   7.023  21.264  0.00  0.00    +0.000 HD
BRANCH  14  17
ATOM     17  C   UNL     1       0.667   9.332  20.911  0.00  0.00    +0.000 A 
ATOM     18  C   UNL     1       0.719   8.903  22.245  0.00  0.00    +0.000 A 
ATOM     19  C   UNL     1      -0.024   9.550  23.236  0.00  0.00    +0.000 A 
ATOM     20  C   UNL     1      -0.837  10.632  22.899  0.00  0.00    +0.000 A 
ATOM     21  C   UNL     1      -0.906  11.053  21.562  0.00  0.00    +0.000 A 
ATOM     22  C   UNL     1      -0.160  10.408  20.563  0.00  0.00    +0.000 A 
BRANCH  21  23
ATOM     23  N   UNL     1      -1.772  12.184  21.204  0.00  0.00    +0.000 N 
ATOM     24  O   UNL     1      -2.216  12.888  22.123  0.00  0.00    +0.000 OA
ATOM     25  O   UNL     1      -1.999  12.372  20.001  0.00  0.00    +0.000 OA
ENDBRANCH  21  23
ENDBRANCH  14  17
ENDBRANCH   3  13
BRANCH   2  26
ATOM     26  S   UNL     1       1.999   4.628  21.101  0.00  0.00    +0.000 S 
ATOM     27  H   UNL     1       2.308   5.585  21.983  0.00  0.00    +0.000 HD
ENDBRANCH   2  26
TORSDOF 5
ENDMDL
MODEL 2
REMARK VINA RESULT:      -7.5      1.979      2.579
REMARK  Name = 
REMARK  6 active torsions:
REMARK  status: ('A' for Active; 'I' for Inactive)
REMARK    1  A    between atoms: C_1  and  C_2
REMARK    2  A    between atoms: C_5  and  N_6
REMARK    3  A    between atoms: C_7  and  S_8
REMARK    4  A    between atoms: N_9  and  N_10
REMARK    5  A    between atoms: C_11  and  C_13
REMARK    6  A    between atoms: C_17  and  N_18
REMARK                            x       y       z     vdW  Elec       q    Type
REMARK                         _______ _______ _______ _____ _____    ______ ____
ROOT
ATOM      1  N   UNL     1       4.009   4.702  18.200  0.00  0.00    +0.000 N 
ATOM      2  C   UNL     1       3.195   5.668  18.738  0.00  0.00    +0.000 C 
ATOM      3  N   UNL     1       3.036   6.890  18.327  0.00  0.00    +0.000 NA
ATOM      4  H   UNL     1       4.082   3.852  18.743  0.00  0.00    +0.000 HD
ENDROOT
BRANCH   1   9
ATOM      5  C   UNL     1       7.768   5.098  13.847  0.00  0.00    +0.000 C 
ATOM      6  C   UNL     1       6.775   4.990  14.969  0.00  0.00    +0.000 A 
ATOM      7  C   UNL     1       7.091   5.526  16.222  0.00  0.00    +0.000 A 
ATOM      8  C   UNL     1       6.193   5.441  17.294  0.00  0.00    +0.000 A 
ATOM      9  C   UNL     1       4.956   4.808  17.160  0.00  0.00    +0.000 A 
ATOM     10  C   UNL     1       4.630   4.292  15.894  0.00  0.00    +0.000 A 
ATOM     11  C   UNL     1       5.526   4.377  14.816  0.00  0.00    +0.000 A 
ATOM     12 CL   UNL     1       5.033   3.706  13.300  0.00  0.00    +0.000 Cl
ENDBRANCH   1   9
BRANCH   3  13
ATOM     13  N   UNL     1       2.164   7.699  19.001  0.00  0.00    +0.000 N 
ATOM     14  C   UNL     1       1.755   8.901  18.451  0.00  0.00    +0.000 C 
ATOM     15  O   UNL     1       2.112   9.343  17.365  0.00  0.00    +0.000 OA
ATOM     16  H   UNL     1       1.781   7.336  19.867  0.00  0.00    +0.000 HD
BRANCH  14  17
ATOM     17  C   UNL     1       0.770   9.678  19.262  0.00  0.00    +0.000 A 
ATOM     18  C   UNL     1      -0.145  10.494  18.583  0.00  0.00    +0.000 A 
ATOM     19  C   UNL     1      -1.089  11.249  19.284  0.00  0.00    +0.000 A 
ATOM     20  C   UNL     1      -1.122  11.200  20.677  0.00  0.00    +0.000 A 
ATOM     21  C   UNL     1      -0.197  10.398  21.361  0.00  0.00    +0.000 A 
ATOM     22  C   UNL     1       0.754   9.636  20.662  0.00  0.00    +0.000 A 
BRANCH  21  23
ATOM     23  N   UNL     1      -0.222  10.356  22.830  0.00  0.00    +0.000 N 
ATOM     24  O   UNL     1      -1.131  10.964  23.411  0.00  0.00    +0.000 OA
ATOM     25  O   UNL     1       0.666   9.704  23.399  0.00  0.00    +0.000 OA
ENDBRANCH  21  23
ENDBRANCH  14  17
ENDBRANCH   3  13
BRANCH   2  26
ATOM     26  S   UNL     1       2.320   5.072  20.166  0.00  0.00    +0.000 S 
ATOM     27  H   UNL     1       2.477   6.168  20.916  0.00  0.00    +0.000 HD
ENDBRANCH   2  26
TORSDOF 5
ENDMDL
MODEL 3
REMARK VINA RESULT:      -7.5      1.378      1.941
REMARK  Name = 
REMARK  6 active torsions:
REMARK  status: ('A' for Active; 'I' for Inactive)
REMARK    1  A    between atoms: C_1  and  C_2
REMARK    2  A    between atoms: C_5  and  N_6
REMARK    3  A    between atoms: C_7  and  S_8
REMARK    4  A    between atoms: N_9  and  N_10
REMARK    5  A    between atoms: C_11  and  C_13
REMARK    6  A    between atoms: C_17  and  N_18
REMARK                            x       y       z     vdW  Elec       q    Type
REMARK                         _______ _______ _______ _____ _____    ______ ____
ROOT
ATOM      1  N   UNL     1       3.392   4.930  18.748  0.00  0.00    +0.000 N 
ATOM      2  C   UNL     1       2.642   5.982  19.213  0.00  0.00    +0.000 C 
ATOM      3  N   UNL     1       2.584   7.188  18.735  0.00  0.00    +0.000 NA
ATOM      4  H   UNL     1       3.390   4.109  19.336  0.00  0.00    +0.000 HD
ENDROOT
BRANCH   1   9
ATOM      5  C   UNL     1       7.470   4.938  14.673  0.00  0.00    +0.000 C 
ATOM      6  C   UNL     1       6.418   4.948  15.745  0.00  0.00    +0.000 A 
ATOM      7  C   UNL     1       5.388   4.002  15.707  0.00  0.00    +0.000 A 
ATOM      8  C   UNL     1       4.387   3.981  16.686  0.00  0.00    +0.000 A 
ATOM      9  C   UNL     1       4.368   4.910  17.729  0.00  0.00    +0.000 A 
ATOM     10  C   UNL     1       5.417   5.843  17.779  0.00  0.00    +0.000 A 
ATOM     11  C   UNL     1       6.424   5.865  16.801  0.00  0.00    +0.000 A 
ATOM     12 CL   UNL     1       7.668   7.059  16.949  0.00  0.00    +0.000 Cl
ENDBRANCH   1   9
BRANCH   3  13
ATOM     13  N   UNL     1       1.760   8.094  19.342  0.00  0.00    +0.000 N 
ATOM     14  C   UNL     1       1.389   9.254  18.685  0.00  0.00    +0.000 C 
ATOM     15  O   UNL     1       1.742   9.576  17.556  0.00  0.00    +0.000 OA
ATOM     16  H   UNL     1       1.381   7.832  20.245  0.00  0.00    +0.000 HD
BRANCH  14  17
ATOM     17  C   UNL     1       0.455  10.147  19.434  0.00  0.00    +0.000 A 
ATOM     18  C   UNL     1      -0.321  11.054  18.699  0.00  0.00    +0.000 A 
ATOM     19  C   UNL     1      -1.213  11.918  19.341  0.00  0.00    +0.000 A 
ATOM     20  C   UNL     1      -1.330  11.890  20.730  0.00  0.00    +0.000 A 
ATOM     21  C   UNL     1      -0.542  10.996  21.470  0.00  0.00    +0.000 A 
ATOM     22  C   UNL     1       0.354  10.124  20.831  0.00  0.00    +0.000 A 
BRANCH  21  23
ATOM     23  N   UNL     1      -0.655  10.975  22.935  0.00  0.00    +0.000 N 
ATOM     24  O   UNL     1      -1.348  11.848  23.475  0.00  0.00    +0.000 OA
ATOM     25  O   UNL     1      -0.058  10.074  23.542  0.00  0.00    +0.000 OA
ENDBRANCH  21  23
ENDBRANCH  14  17
ENDBRANCH   3  13
BRANCH   2  26
ATOM     26  S   UNL     1       1.692   5.530  20.647  0.00  0.00    +0.000 S 
ATOM     27  H   UNL     1       2.726   5.149  21.406  0.00  0.00    +0.000 HD
ENDBRANCH   2  26
TORSDOF 5
ENDMDL
MODEL 4
REMARK VINA RESULT:      -7.3      1.802      2.339
REMARK  Name = 
REMARK  6 active torsions:
REMARK  status: ('A' for Active; 'I' for Inactive)
REMARK    1  A    between atoms: C_1  and  C_2
REMARK    2  A    between atoms: C_5  and  N_6
REMARK    3  A    between atoms: C_7  and  S_8
REMARK    4  A    between atoms: N_9  and  N_10
REMARK    5  A    between atoms: C_11  and  C_13
REMARK    6  A    between atoms: C_17  and  N_18
REMARK                            x       y       z     vdW  Elec       q    Type
REMARK                         _______ _______ _______ _____ _____    ______ ____
ROOT
ATOM      1  N   UNL     1       4.636   4.095  17.643  0.00  0.00    +0.000 N 
ATOM      2  C   UNL     1       3.840   4.974  18.335  0.00  0.00    +0.000 C 
ATOM      3  N   UNL     1       3.568   6.207  18.030  0.00  0.00    +0.000 NA
ATOM      4  H   UNL     1       4.818   3.220  18.114  0.00  0.00    +0.000 HD
ENDROOT
BRANCH   1   9
ATOM      5  C   UNL     1       7.833   5.000  12.933  0.00  0.00    +0.000 C 
ATOM      6  C   UNL     1       6.985   4.761  14.149  0.00  0.00    +0.000 A 
ATOM      7  C   UNL     1       7.451   5.168  15.403  0.00  0.00    +0.000 A 
ATOM      8  C   UNL     1       6.691   4.958  16.562  0.00  0.00    +0.000 A 
ATOM      9  C   UNL     1       5.448   4.323  16.513  0.00  0.00    +0.000 A 
ATOM     10  C   UNL     1       4.972   3.938  15.249  0.00  0.00    +0.000 A 
ATOM     11  C   UNL     1       5.729   4.148  14.085  0.00  0.00    +0.000 A 
ATOM     12 CL   UNL     1       5.056   3.631  12.578  0.00  0.00    +0.000 Cl
ENDBRANCH   1   9
BRANCH   3  13
ATOM     13  N   UNL     1       2.738   6.917  18.851  0.00  0.00    +0.000 N 
ATOM     14  C   UNL     1       2.262   8.158  18.464  0.00  0.00    +0.000 C 
ATOM     15  O   UNL     1       2.521   8.720  17.406  0.00  0.00    +0.000 OA
ATOM     16  H   UNL     1       2.435   6.457  19.702  0.00  0.00    +0.000 HD
BRANCH  14  17
ATOM     17  C   UNL     1       1.332   8.819  19.428  0.00  0.00    +0.000 A 
ATOM     18  C   UNL     1       1.304   8.346  20.747  0.00  0.00    +0.000 A 
ATOM     19  C   UNL     1       0.454   8.921  21.697  0.00  0.00    +0.000 A 
ATOM     20  C   UNL     1      -0.385   9.972  21.331  0.00  0.00    +0.000 A 
ATOM     21  C   UNL     1      -0.373  10.437  20.008  0.00  0.00    +0.000 A 
ATOM     22  C   UNL     1       0.480   9.865  19.050  0.00  0.00    +0.000 A 
BRANCH  21  23
ATOM     23  N   UNL     1      -1.267  11.537  19.619  0.00  0.00    +0.000 N 
ATOM     24  O   UNL     1      -1.865  12.143  20.519  0.00  0.00    +0.000 OA
ATOM     25  O   UNL     1      -1.359  11.798  18.411  0.00  0.00    +0.000 OA
ENDBRANCH  21  23
ENDBRANCH  14  17
ENDBRANCH   3  13
BRANCH   2  26
ATOM     26  S   UNL     1       3.169   4.238  19.807  0.00  0.00    +0.000 S 
ATOM     27  H   UNL     1       4.101   4.697  20.651  0.00  0.00    +0.000 HD
ENDBRANCH   2  26
TORSDOF 5
ENDMDL
MODEL 5
REMARK VINA RESULT:      -7.1      1.155      1.598
REMARK  Name = 
REMARK  6 active torsions:
REMARK  status: ('A' for Active; 'I' for Inactive)
REMARK    1  A    between atoms: C_1  and  C_2
REMARK    2  A    between atoms: C_5  and  N_6
REMARK    3  A    between atoms: C_7  and  S_8
REMARK    4  A    between atoms: N_9  and  N_10
REMARK    5  A    between atoms: C_11  and  C_13
REMARK    6  A    between atoms: C_17  and  N_18
REMARK                            x       y       z     vdW  Elec       q    Type
REMARK                         _______ _______ _______ _____ _____    ______ ____
ROOT
ATOM      1  N   UNL     1       3.858   4.224  18.958  0.00  0.00    +0.000 N 
ATOM      2  C   UNL     1       3.142   5.168  19.652  0.00  0.00    +0.000 C 
ATOM      3  N   UNL     1       3.129   6.453  19.461  0.00  0.00    +0.000 NA
ATOM      4  H   UNL     1       3.823   3.291  19.344  0.00  0.00    +0.000 HD
ENDROOT
BRANCH   1   9
ATOM      5  C   UNL     1       7.752   4.945  14.770  0.00  0.00    +0.000 C 
ATOM      6  C   UNL     1       6.724   4.756  15.848  0.00  0.00    +0.000 A 
ATOM      7  C   UNL     1       7.072   5.001  17.180  0.00  0.00    +0.000 A 
ATOM      8  C   UNL     1       6.142   4.833  18.214  0.00  0.00    +0.000 A 
ATOM      9  C   UNL     1       4.838   4.401  17.960  0.00  0.00    +0.000 A 
ATOM     10  C   UNL     1       4.485   4.180  16.618  0.00  0.00    +0.000 A 
ATOM     11  C   UNL     1       5.412   4.350  15.578  0.00  0.00    +0.000 A 
ATOM     12 CL   UNL     1       4.879   4.046  13.961  0.00  0.00    +0.000 Cl
ENDBRANCH   1   9
BRANCH   3  13
ATOM     13  N   UNL     1       2.334   7.226  20.260  0.00  0.00    +0.000 N 
ATOM     14  C   UNL     1       1.784   8.399  19.776  0.00  0.00    +0.000 C 
ATOM     15  O   UNL     1       1.943   8.846  18.646  0.00  0.00    +0.000 OA
ATOM     16  H   UNL     1       2.111   6.855  21.177  0.00  0.00    +0.000 HD
BRANCH  14  17
ATOM     17  C   UNL     1       0.901   9.137  20.729  0.00  0.00    +0.000 A 
ATOM     18  C   UNL     1       0.932   8.764  22.080  0.00  0.00    +0.000 A 
ATOM     19  C   UNL     1       0.128   9.413  23.022  0.00  0.00    +0.000 A 
ATOM     20  C   UNL     1      -0.723  10.440  22.617  0.00  0.00    +0.000 A 
ATOM     21  C   UNL     1      -0.769  10.805  21.264  0.00  0.00    +0.000 A 
ATOM     22  C   UNL     1       0.037  10.158  20.314  0.00  0.00    +0.000 A 
BRANCH  21  23
ATOM     23  N   UNL     1      -1.676  11.879  20.835  0.00  0.00    +0.000 N 
ATOM     24  O   UNL     1      -1.665  12.204  19.640  0.00  0.00    +0.000 OA
ATOM     25  O   UNL     1      -2.407  12.388  21.697  0.00  0.00    +0.000 OA
ENDBRANCH  21  23
ENDBRANCH  14  17
ENDBRANCH   3  13
BRANCH   2  26
ATOM     26  S   UNL     1       2.168   4.436  20.947  0.00  0.00    +0.000 S 
ATOM     27  H   UNL     1       2.627   3.188  20.802  0.00  0.00    +0.000 HD
ENDBRANCH   2  26
TORSDOF 5
ENDMDL
MODEL 6
REMARK VINA RESULT:      -7.0      3.406      4.614
REMARK  Name = 
REMARK  6 active torsions:
REMARK  status: ('A' for Active; 'I' for Inactive)
REMARK    1  A    between atoms: C_1  and  C_2
REMARK    2  A    between atoms: C_5  and  N_6
REMARK    3  A    between atoms: C_7  and  S_8
REMARK    4  A    between atoms: N_9  and  N_10
REMARK    5  A    between atoms: C_11  and  C_13
REMARK    6  A    between atoms: C_17  and  N_18
REMARK                            x       y       z     vdW  Elec       q    Type
REMARK                         _______ _______ _______ _____ _____    ______ ____
ROOT
ATOM      1  N   UNL     1       2.062   8.261  18.969  0.00  0.00    +0.000 N 
ATOM      2  C   UNL     1       1.248   9.214  19.528  0.00  0.00    +0.000 C 
ATOM      3  N   UNL     1       0.446   9.078  20.540  0.00  0.00    +0.000 NA
ATOM      4  H   UNL     1       2.517   8.536  18.110  0.00  0.00    +0.000 HD
ENDROOT
BRANCH   1   9
ATOM      5  C   UNL     1       2.515   2.609  20.012  0.00  0.00    +0.000 C 
ATOM      6  C   UNL     1       2.406   4.079  19.724  0.00  0.00    +0.000 A 
ATOM      7  C   UNL     1       2.021   4.953  20.745  0.00  0.00    +0.000 A 
ATOM      8  C   UNL     1       1.904   6.330  20.515  0.00  0.00    +0.000 A 
ATOM      9  C   UNL     1       2.153   6.883  19.257  0.00  0.00    +0.000 A 
ATOM     10  C   UNL     1       2.564   6.005  18.239  0.00  0.00    +0.000 A 
ATOM     11  C   UNL     1       2.685   4.625  18.466  0.00  0.00    +0.000 A 
ATOM     12 CL   UNL     1       3.191   3.630  17.145  0.00  0.00    +0.000 Cl
ENDBRANCH   1   9
BRANCH   3  13
ATOM     13  N   UNL     1      -0.278  10.162  20.952  0.00  0.00    +0.000 N 
ATOM     14  C   UNL     1      -0.229  10.578  22.271  0.00  0.00    +0.000 C 
ATOM     15  O   UNL     1       0.429  10.047  23.159  0.00  0.00    +0.000 OA
ATOM     16  H   UNL     1      -0.775  10.678  20.235  0.00  0.00    +0.000 HD
BRANCH  14  17
ATOM     17  C   UNL     1      -1.031  11.796  22.592  0.00  0.00    +0.000 A 
ATOM     18  C   UNL     1      -0.485  13.047  22.272  0.00  0.00    +0.000 A 
ATOM     19  C   UNL     1      -1.184  14.226  22.549  0.00  0.00    +0.000 A 
ATOM     20  C   UNL     1      -2.436  14.164  23.159  0.00  0.00    +0.000 A 
ATOM     21  C   UNL     1      -2.978  12.915  23.497  0.00  0.00    +0.000 A 
ATOM     22  C   UNL     1      -2.281  11.727  23.220  0.00  0.00    +0.000 A 
BRANCH  21  23
ATOM     23  N   UNL     1      -4.291  12.849  24.152  0.00  0.00    +0.000 N 
ATOM     24  O   UNL     1      -5.096  13.764  23.929  0.00  0.00    +0.000 OA
ATOM     25  O   UNL     1      -4.518  11.873  24.882  0.00  0.00    +0.000 OA
ENDBRANCH  21  23
ENDBRANCH  14  17
ENDBRANCH   3  13
BRANCH   2  26
ATOM     26  S   UNL     1       1.378  10.771  18.679  0.00  0.00    +0.000 S 
ATOM     27  H   UNL     1       2.513  11.173  19.262  0.00  0.00    +0.000 HD
ENDBRANCH   2  26
TORSDOF 5
ENDMDL
MODEL 7
REMARK VINA RESULT:      -7.0      1.379      1.687
REMARK  Name = 
REMARK  6 active torsions:
REMARK  status: ('A' for Active; 'I' for Inactive)
REMARK    1  A    between atoms: C_1  and  C_2
REMARK    2  A    between atoms: C_5  and  N_6
REMARK    3  A    between atoms: C_7  and  S_8
REMARK    4  A    between atoms: N_9  and  N_10
REMARK    5  A    between atoms: C_11  and  C_13
REMARK    6  A    between atoms: C_17  and  N_18
REMARK                            x       y       z     vdW  Elec       q    Type
REMARK                         _______ _______ _______ _____ _____    ______ ____
ROOT
ATOM      1  N   UNL     1       3.392   4.956  18.787  0.00  0.00    +0.000 N 
ATOM      2  C   UNL     1       2.631   6.009  19.231  0.00  0.00    +0.000 C 
ATOM      3  N   UNL     1       2.559   7.204  18.727  0.00  0.00    +0.000 NA
ATOM      4  H   UNL     1       3.399   4.147  19.393  0.00  0.00    +0.000 HD
ENDROOT
BRANCH   1   9
ATOM      5  C   UNL     1       7.468   4.920  14.711  0.00  0.00    +0.000 C 
ATOM      6  C   UNL     1       6.417   4.941  15.783  0.00  0.00    +0.000 A 
ATOM      7  C   UNL     1       5.385   3.997  15.753  0.00  0.00    +0.000 A 
ATOM      8  C   UNL     1       4.384   3.987  16.733  0.00  0.00    +0.000 A 
ATOM      9  C   UNL     1       4.367   4.924  17.769  0.00  0.00    +0.000 A 
ATOM     10  C   UNL     1       5.419   5.856  17.810  0.00  0.00    +0.000 A 
ATOM     11  C   UNL     1       6.426   5.867  16.832  0.00  0.00    +0.000 A 
ATOM     12 CL   UNL     1       7.672   7.059  16.969  0.00  0.00    +0.000 Cl
ENDBRANCH   1   9
BRANCH   3  13
ATOM     13  N   UNL     1       1.726   8.114  19.315  0.00  0.00    +0.000 N 
ATOM     14  C   UNL     1       1.433   9.308  18.682  0.00  0.00    +0.000 C 
ATOM     15  O   UNL     1       1.866   9.659  17.590  0.00  0.00    +0.000 OA
ATOM     16  H   UNL     1       1.282   7.832  20.183  0.00  0.00    +0.000 HD
BRANCH  14  17
ATOM     17  C   UNL     1       0.480  10.203  19.404  0.00  0.00    +0.000 A 
ATOM     18  C   UNL     1       0.819  10.619  20.699  0.00  0.00    +0.000 A 
ATOM     19  C   UNL     1      -0.030  11.455  21.429  0.00  0.00    +0.000 A 
ATOM     20  C   UNL     1      -1.236  11.877  20.872  0.00  0.00    +0.000 A 
ATOM     21  C   UNL     1      -1.588  11.449  19.583  0.00  0.00    +0.000 A 
ATOM     22  C   UNL     1      -0.737  10.611  18.844  0.00  0.00    +0.000 A 
BRANCH  21  23
ATOM     23  N   UNL     1      -2.865  11.883  19.000  0.00  0.00    +0.000 N 
ATOM     24  O   UNL     1      -3.080  11.612  17.811  0.00  0.00    +0.000 OA
ATOM     25  O   UNL     1      -3.656  12.485  19.740  0.00  0.00    +0.000 OA
ENDBRANCH  21  23
ENDBRANCH  14  17
ENDBRANCH   3  13
BRANCH   2  26
ATOM     26  S   UNL     1       1.687   5.577  20.674  0.00  0.00    +0.000 S 
ATOM     27  H   UNL     1       2.297   4.412  20.918  0.00  0.00    +0.000 HD
ENDBRANCH   2  26
TORSDOF 5
ENDMDL
MODEL 8
REMARK VINA RESULT:      -6.9      4.306      9.601
REMARK  Name = 
REMARK  6 active torsions:
REMARK  status: ('A' for Active; 'I' for Inactive)
REMARK    1  A    between atoms: C_1  and  C_2
REMARK    2  A    between atoms: C_5  and  N_6
REMARK    3  A    between atoms: C_7  and  S_8
REMARK    4  A    between atoms: N_9  and  N_10
REMARK    5  A    between atoms: C_11  and  C_13
REMARK    6  A    between atoms: C_17  and  N_18
REMARK                            x       y       z     vdW  Elec       q    Type
REMARK                         _______ _______ _______ _____ _____    ______ ____
ROOT
ATOM      1  N   UNL     1       0.086  12.296  19.919  0.00  0.00    +0.000 N 
ATOM      2  C   UNL     1       0.804  11.219  19.462  0.00  0.00    +0.000 C 
ATOM      3  N   UNL     1       0.657   9.971  19.789  0.00  0.00    +0.000 NA
ATOM      4  H   UNL     1       0.439  13.199  19.633  0.00  0.00    +0.000 HD
ENDROOT
BRANCH   1   9
ATOM      5  C   UNL     1      -4.033  12.517  23.946  0.00  0.00    +0.000 C 
ATOM      6  C   UNL     1      -2.973  12.458  22.883  0.00  0.00    +0.000 A 
ATOM      7  C   UNL     1      -1.648  12.197  23.247  0.00  0.00    +0.000 A 
ATOM      8  C   UNL     1      -0.631  12.138  22.286  0.00  0.00    +0.000 A 
ATOM      9  C   UNL     1      -0.894  12.353  20.931  0.00  0.00    +0.000 A 
ATOM     10  C   UNL     1      -2.230  12.591  20.566  0.00  0.00    +0.000 A 
ATOM     11  C   UNL     1      -3.253  12.647  21.526  0.00  0.00    +0.000 A 
ATOM     12 CL   UNL     1      -4.864  12.953  20.974  0.00  0.00    +0.000 Cl
ENDBRANCH   1   9
BRANCH   3  13
ATOM     13  N   UNL     1       1.473   9.040  19.209  0.00  0.00    +0.000 N 
ATOM     14  C   UNL     1       1.806   7.880  19.885  0.00  0.00    +0.000 C 
ATOM     15  O   UNL     1       1.429   7.582  21.013  0.00  0.00    +0.000 OA
ATOM     16  H   UNL     1       1.744   9.209  18.246  0.00  0.00    +0.000 HD
BRANCH  14  17
ATOM     17  C   UNL     1       2.671   6.922  19.133  0.00  0.00    +0.000 A 
ATOM     18  C   UNL     1       3.254   7.361  17.936  0.00  0.00    +0.000 A 
ATOM     19  C   UNL     1       4.071   6.513  17.184  0.00  0.00    +0.000 A 
ATOM     20  C   UNL     1       4.307   5.210  17.620  0.00  0.00    +0.000 A 
ATOM     21  C   UNL     1       3.712   4.761  18.808  0.00  0.00    +0.000 A 
ATOM     22  C   UNL     1       2.891   5.609  19.569  0.00  0.00    +0.000 A 
BRANCH  21  23
ATOM     23  N   UNL     1       3.949   3.384  19.261  0.00  0.00    +0.000 N 
ATOM     24  O   UNL     1       5.079   3.098  19.680  0.00  0.00    +0.000 OA
ATOM     25  O   UNL     1       2.997   2.592  19.206  0.00  0.00    +0.000 OA
ENDBRANCH  21  23
ENDBRANCH  14  17
ENDBRANCH   3  13
BRANCH   2  26
ATOM     26  S   UNL     1       2.062  11.708  18.304  0.00  0.00    +0.000 S 
ATOM     27  H   UNL     1       1.809  13.021  18.345  0.00  0.00    +0.000 HD
ENDBRANCH   2  26
TORSDOF 5
ENDMDL
MODEL 9
REMARK VINA RESULT:      -6.9      4.318      9.422
REMARK  Name = 
REMARK  6 active torsions:
REMARK  status: ('A' for Active; 'I' for Inactive)
REMARK    1  A    between atoms: C_1  and  C_2
REMARK    2  A    between atoms: C_5  and  N_6
REMARK    3  A    between atoms: C_7  and  S_8
REMARK    4  A    between atoms: N_9  and  N_10
REMARK    5  A    between atoms: C_11  and  C_13
REMARK    6  A    between atoms: C_17  and  N_18
REMARK                            x       y       z     vdW  Elec       q    Type
REMARK                         _______ _______ _______ _____ _____    ______ ____
ROOT
ATOM      1  N   UNL     1       0.418  12.243  19.660  0.00  0.00    +0.000 N 
ATOM      2  C   UNL     1       1.040  11.133  19.144  0.00  0.00    +0.000 C 
ATOM      3  N   UNL     1       0.757   9.886  19.375  0.00  0.00    +0.000 NA
ATOM      4  H   UNL     1       0.870  13.123  19.451  0.00  0.00    +0.000 HD
ENDROOT
BRANCH   1   9
ATOM      5  C   UNL     1      -3.797  12.583  23.577  0.00  0.00    +0.000 C 
ATOM      6  C   UNL     1      -2.711  12.494  22.542  0.00  0.00    +0.000 A 
ATOM      7  C   UNL     1      -1.405  12.195  22.941  0.00  0.00    +0.000 A 
ATOM      8  C   UNL     1      -0.365  12.107  22.007  0.00  0.00    +0.000 A 
ATOM      9  C   UNL     1      -0.586  12.328  20.645  0.00  0.00    +0.000 A 
ATOM     10  C   UNL     1      -1.905  12.605  20.245  0.00  0.00    +0.000 A 
ATOM     11  C   UNL     1      -2.951  12.691  21.178  0.00  0.00    +0.000 A 
ATOM     12 CL   UNL     1      -4.536  13.043  20.584  0.00  0.00    +0.000 Cl
ENDBRANCH   1   9
BRANCH   3  13
ATOM     13  N   UNL     1       1.496   8.921  18.750  0.00  0.00    +0.000 N 
ATOM     14  C   UNL     1       1.940   7.814  19.451  0.00  0.00    +0.000 C 
ATOM     15  O   UNL     1       1.733   7.596  20.640  0.00  0.00    +0.000 OA
ATOM     16  H   UNL     1       1.624   9.021  17.749  0.00  0.00    +0.000 HD
BRANCH  14  17
ATOM     17  C   UNL     1       2.703   6.809  18.652  0.00  0.00    +0.000 A 
ATOM     18  C   UNL     1       2.396   5.453  18.833  0.00  0.00    +0.000 A 
ATOM     19  C   UNL     1       3.075   4.463  18.117  0.00  0.00    +0.000 A 
ATOM     20  C   UNL     1       4.077   4.821  17.216  0.00  0.00    +0.000 A 
ATOM     21  C   UNL     1       4.399   6.176  17.045  0.00  0.00    +0.000 A 
ATOM     22  C   UNL     1       3.719   7.175  17.760  0.00  0.00    +0.000 A 
BRANCH  21  23
ATOM     23  N   UNL     1       5.464   6.553  16.106  0.00  0.00    +0.000 N 
ATOM     24  O   UNL     1       6.636   6.331  16.439  0.00  0.00    +0.000 OA
ATOM     25  O   UNL     1       5.122   7.062  15.028  0.00  0.00    +0.000 OA
ENDBRANCH  21  23
ENDBRANCH  14  17
ENDBRANCH   3  13
BRANCH   2  26
ATOM     26  S   UNL     1       2.380  11.571  18.061  0.00  0.00    +0.000 S 
ATOM     27  H   UNL     1       3.073  12.290  18.952  0.00  0.00    +0.000 HD
ENDBRANCH   2  26
TORSDOF 5
ENDMDL
