MODEL 1
REMARK VINA RESULT:      -7.6      0.000      0.000
REMARK  Name = 
REMARK  4 active torsions:
REMARK  status: ('A' for Active; 'I' for Inactive)
REMARK    1  A    between atoms: O_1  and  C_2
REMARK    2  A    between atoms: C_5  and  C_6
REMARK    3  A    between atoms: C_7  and  O_8
REMARK    4  A    between atoms: C_9  and  O_10
REMARK                            x       y       z     vdW  Elec       q    Type
REMARK                         _______ _______ _______ _____ _____    ______ ____
ROOT
ATOM      1  C   UNL     1       3.908   4.957  18.501  0.00  0.00    +0.000 A 
ATOM      2  C   UNL     1       3.827   3.769  19.284  0.00  0.00    +0.000 A 
ATOM      3  C   UNL     1       3.045   3.673  20.442  0.00  0.00    +0.000 A 
ATOM      4  C   UNL     1       2.260   4.719  20.853  0.00  0.00    +0.000 A 
ATOM      5  C   UNL     1       2.249   5.922  20.123  0.00  0.00    +0.000 A 
ATOM      6  C   UNL     1       3.084   6.085  18.903  0.00  0.00    +0.000 A 
ATOM      7  C   UNL     1       3.307   7.472  18.105  0.00  0.00    +0.000 C 
ATOM      8  C   UNL     1       2.294   8.743  17.847  0.00  0.00    +0.000 C 
ATOM      9  N   UNL     1       1.438   9.249  18.983  0.00  0.00    +0.000 NA
ATOM     10  C   UNL     1       1.441   8.082  19.784  0.00  0.00    +0.000 C 
ATOM     11  C   UNL     1       1.294   6.991  20.763  0.00  0.00    +0.000 C 
ATOM     12  H   UNL     1       0.505   9.467  18.636  0.00  0.00    +0.000 HD
ENDROOT
BRANCH   1  16
ATOM     13  C   UNL     1       6.787   5.082  15.276  0.00  0.00    +0.000 A 
ATOM     14  C   UNL     1       5.549   4.494  15.060  0.00  0.00    +0.000 A 
ATOM     15  C   UNL     1       4.631   4.407  16.119  0.00  0.00    +0.000 A 
ATOM     16  C   UNL     1       4.890   4.991  17.371  0.00  0.00    +0.000 A 
ATOM     17  C   UNL     1       6.166   5.571  17.548  0.00  0.00    +0.000 A 
ATOM     18  C   UNL     1       7.118   5.588  16.523  0.00  0.00    +0.000 A 
BRANCH  13  19
ATOM     19  O   UNL     1       7.714   5.178  14.284  0.00  0.00    +0.000 OA
ATOM     20  H   UNL     1       7.966   6.110  14.176  0.00  0.00    +0.000 HD
ENDBRANCH  13  19
ENDBRANCH   1  16
BRANCH   2  21
ATOM     21  O   UNL     1       4.518   2.609  18.990  0.00  0.00    +0.000 OA
ATOM     22  H   UNL     1       4.617   2.551  18.024  0.00  0.00    +0.000 HD
ENDBRANCH   2  21
BRANCH   3  23
ATOM     23  O   UNL     1       3.068   2.528  21.183  0.00  0.00    +0.000 OA
ATOM     24  H   UNL     1       2.359   1.973  20.799  0.00  0.00    +0.000 HD
ENDBRANCH   3  23
TORSDOF 4
ENDMDL
MODEL 2
REMARK VINA RESULT:      -7.5      2.891      5.518
REMARK  Name = 
REMARK  4 active torsions:
REMARK  status: ('A' for Active; 'I' for Inactive)
REMARK    1  A    between atoms: O_1  and  C_2
REMARK    2  A    between atoms: C_5  and  C_6
REMARK    3  A    between atoms: C_7  and  O_8
REMARK    4  A    between atoms: C_9  and  O_10
REMARK                            x       y       z     vdW  Elec       q    Type
REMARK                         _______ _______ _______ _____ _____    ______ ____
ROOT
ATOM      1  C   UNL     1       3.122   5.587  18.078  0.00  0.00    +0.000 A 
ATOM      2  C   UNL     1       2.382   4.370  18.093  0.00  0.00    +0.000 A 
ATOM      3  C   UNL     1       2.844   3.192  17.492  0.00  0.00    +0.000 A 
ATOM      4  C   UNL     1       4.079   3.138  16.900  0.00  0.00    +0.000 A 
ATOM      5  C   UNL     1       4.895   4.284  16.866  0.00  0.00    +0.000 A 
ATOM      6  C   UNL     1       4.439   5.567  17.465  0.00  0.00    +0.000 A 
ATOM      7  C   UNL     1       5.195   6.987  17.311  0.00  0.00    +0.000 C 
ATOM      8  C   UNL     1       6.796   7.352  17.211  0.00  0.00    +0.000 C 
ATOM      9  N   UNL     1       7.695   6.501  16.345  0.00  0.00    +0.000 NA
ATOM     10  C   UNL     1       6.903   5.330  16.306  0.00  0.00    +0.000 C 
ATOM     11  C   UNL     1       6.260   4.014  16.139  0.00  0.00    +0.000 C 
ATOM     12  H   UNL     1       8.580   6.344  16.824  0.00  0.00    +0.000 HD
ENDROOT
BRANCH   1  16
ATOM     13  C   UNL     1       1.229   9.120  19.705  0.00  0.00    +0.000 A 
ATOM     14  C   UNL     1       1.469   9.044  18.340  0.00  0.00    +0.000 A 
ATOM     15  C   UNL     1       2.128   7.921  17.816  0.00  0.00    +0.000 A 
ATOM     16  C   UNL     1       2.464   6.819  18.621  0.00  0.00    +0.000 A 
ATOM     17  C   UNL     1       2.208   6.943  20.005  0.00  0.00    +0.000 A 
ATOM     18  C   UNL     1       1.627   8.095  20.548  0.00  0.00    +0.000 A 
BRANCH  13  19
ATOM     19  O   UNL     1       0.604  10.194  20.261  0.00  0.00    +0.000 OA
ATOM     20  H   UNL     1       0.444  10.015  21.202  0.00  0.00    +0.000 HD
ENDBRANCH  13  19
ENDBRANCH   1  16
BRANCH   2  21
ATOM     21  O   UNL     1       1.140   4.235  18.683  0.00  0.00    +0.000 OA
ATOM     22  H   UNL     1       1.268   4.132  19.642  0.00  0.00    +0.000 HD
ENDBRANCH   2  21
BRANCH   3  23
ATOM     23  O   UNL     1       2.053   2.080  17.483  0.00  0.00    +0.000 OA
ATOM     24  H   UNL     1       2.120   1.724  18.392  0.00  0.00    +0.000 HD
ENDBRANCH   3  23
TORSDOF 4
ENDMDL
MODEL 3
REMARK VINA RESULT:      -7.5      2.890      5.546
REMARK  Name = 
REMARK  4 active torsions:
REMARK  status: ('A' for Active; 'I' for Inactive)
REMARK    1  A    between atoms: O_1  and  C_2
REMARK    2  A    between atoms: C_5  and  C_6
REMARK    3  A    between atoms: C_7  and  O_8
REMARK    4  A    between atoms: C_9  and  O_10
REMARK                            x       y       z     vdW  Elec       q    Type
REMARK                         _______ _______ _______ _____ _____    ______ ____
ROOT
ATOM      1  C   UNL     1       3.135   5.561  18.139  0.00  0.00    +0.000 A 
ATOM      2  C   UNL     1       2.391   4.346  18.155  0.00  0.00    +0.000 A 
ATOM      3  C   UNL     1       2.835   3.174  17.532  0.00  0.00    +0.000 A 
ATOM      4  C   UNL     1       4.057   3.122  16.913  0.00  0.00    +0.000 A 
ATOM      5  C   UNL     1       4.878   4.264  16.875  0.00  0.00    +0.000 A 
ATOM      6  C   UNL     1       4.440   5.543  17.498  0.00  0.00    +0.000 A 
ATOM      7  C   UNL     1       5.198   6.961  17.345  0.00  0.00    +0.000 C 
ATOM      8  C   UNL     1       6.798   7.321  17.214  0.00  0.00    +0.000 C 
ATOM      9  N   UNL     1       7.675   6.477  16.320  0.00  0.00    +0.000 NA
ATOM     10  C   UNL     1       6.877   5.309  16.285  0.00  0.00    +0.000 C 
ATOM     11  C   UNL     1       6.225   3.998  16.117  0.00  0.00    +0.000 C 
ATOM     12  H   UNL     1       8.569   6.310  16.779  0.00  0.00    +0.000 HD
ENDROOT
BRANCH   1  16
ATOM     13  C   UNL     1       1.279   9.130  19.728  0.00  0.00    +0.000 A 
ATOM     14  C   UNL     1       1.609   8.094  20.589  0.00  0.00    +0.000 A 
ATOM     15  C   UNL     1       2.164   6.914  20.070  0.00  0.00    +0.000 A 
ATOM     16  C   UNL     1       2.495   6.789  18.710  0.00  0.00    +0.000 A 
ATOM     17  C   UNL     1       2.134   7.866  17.869  0.00  0.00    +0.000 A 
ATOM     18  C   UNL     1       1.503   9.011  18.366  0.00  0.00    +0.000 A 
BRANCH  13  19
ATOM     19  O   UNL     1       0.726  10.288  20.183  0.00  0.00    +0.000 OA
ATOM     20  H   UNL     1       1.383  10.763  20.718  0.00  0.00    +0.000 HD
ENDBRANCH  13  19
ENDBRANCH   1  16
BRANCH   2  21
ATOM     21  O   UNL     1       1.161   4.210  18.770  0.00  0.00    +0.000 OA
ATOM     22  H   UNL     1       0.686   3.477  18.341  0.00  0.00    +0.000 HD
ENDBRANCH   2  21
BRANCH   3  23
ATOM     23  O   UNL     1       2.040   2.065  17.526  0.00  0.00    +0.000 OA
ATOM     24  H   UNL     1       2.431   1.487  16.840  0.00  0.00    +0.000 HD
ENDBRANCH   3  23
TORSDOF 4
ENDMDL
MODEL 4
REMARK VINA RESULT:      -7.5      0.088      1.078
REMARK  Name = 
REMARK  4 active torsions:
REMARK  status: ('A' for Active; 'I' for Inactive)
REMARK    1  A    between atoms: O_1  and  C_2
REMARK    2  A    between atoms: C_5  and  C_6
REMARK    3  A    between atoms: C_7  and  O_8
REMARK    4  A    between atoms: C_9  and  O_10
REMARK                            x       y       z     vdW  Elec       q    Type
REMARK                         _______ _______ _______ _____ _____    ______ ____
ROOT
ATOM      1  C   UNL     1       3.946   5.011  18.557  0.00  0.00    +0.000 A 
ATOM      2  C   UNL     1       3.866   3.815  19.328  0.00  0.00    +0.000 A 
ATOM      3  C   UNL     1       3.057   3.697  20.465  0.00  0.00    +0.000 A 
ATOM      4  C   UNL     1       2.244   4.726  20.864  0.00  0.00    +0.000 A 
ATOM      5  C   UNL     1       2.232   5.935  20.145  0.00  0.00    +0.000 A 
ATOM      6  C   UNL     1       3.095   6.122  18.947  0.00  0.00    +0.000 A 
ATOM      7  C   UNL     1       3.315   7.520  18.167  0.00  0.00    +0.000 C 
ATOM      8  C   UNL     1       2.288   8.776  17.893  0.00  0.00    +0.000 C 
ATOM      9  N   UNL     1       1.396   9.259  19.012  0.00  0.00    +0.000 NA
ATOM     10  C   UNL     1       1.398   8.086  19.803  0.00  0.00    +0.000 C 
ATOM     11  C   UNL     1       1.244   6.983  20.769  0.00  0.00    +0.000 C 
ATOM     12  H   UNL     1       0.469   9.465  18.643  0.00  0.00    +0.000 HD
ENDROOT
BRANCH   1  16
ATOM     13  C   UNL     1       6.818   5.158  15.326  0.00  0.00    +0.000 A 
ATOM     14  C   UNL     1       7.165   5.670  16.568  0.00  0.00    +0.000 A 
ATOM     15  C   UNL     1       6.218   5.670  17.604  0.00  0.00    +0.000 A 
ATOM     16  C   UNL     1       4.956   5.071  17.452  0.00  0.00    +0.000 A 
ATOM     17  C   UNL     1       4.643   4.570  16.168  0.00  0.00    +0.000 A 
ATOM     18  C   UNL     1       5.551   4.642  15.106  0.00  0.00    +0.000 A 
BRANCH  13  19
ATOM     19  O   UNL     1       7.698   5.149  14.287  0.00  0.00    +0.000 OA
ATOM     20  H   UNL     1       8.509   4.692  14.564  0.00  0.00    +0.000 HD
ENDBRANCH  13  19
ENDBRANCH   1  16
BRANCH   2  21
ATOM     21  O   UNL     1       4.582   2.669  19.041  0.00  0.00    +0.000 OA
ATOM     22  H   UNL     1       4.407   2.424  18.116  0.00  0.00    +0.000 HD
ENDBRANCH   2  21
BRANCH   3  23
ATOM     23  O   UNL     1       3.080   2.546  21.197  0.00  0.00    +0.000 OA
ATOM     24  H   UNL     1       3.497   2.803  22.044  0.00  0.00    +0.000 HD
ENDBRANCH   3  23
TORSDOF 4
ENDMDL
MODEL 5
REMARK VINA RESULT:      -6.9      3.111      5.849
REMARK  Name = 
REMARK  4 active torsions:
REMARK  status: ('A' for Active; 'I' for Inactive)
REMARK    1  A    between atoms: O_1  and  C_2
REMARK    2  A    between atoms: C_5  and  C_6
REMARK    3  A    between atoms: C_7  and  O_8
REMARK    4  A    between atoms: C_9  and  O_10
REMARK                            x       y       z     vdW  Elec       q    Type
REMARK                         _______ _______ _______ _____ _____    ______ ____
ROOT
ATOM      1  C   UNL     1       3.355   6.018  17.997  0.00  0.00    +0.000 A 
ATOM      2  C   UNL     1       4.613   6.301  17.390  0.00  0.00    +0.000 A 
ATOM      3  C   UNL     1       5.501   5.300  16.978  0.00  0.00    +0.000 A 
ATOM      4  C   UNL     1       5.171   3.974  17.088  0.00  0.00    +0.000 A 
ATOM      5  C   UNL     1       3.935   3.598  17.645  0.00  0.00    +0.000 A 
ATOM      6  C   UNL     1       2.968   4.623  18.124  0.00  0.00    +0.000 A 
ATOM      7  C   UNL     1       1.619   4.312  18.958  0.00  0.00    +0.000 C 
ATOM      8  C   UNL     1       0.573   3.044  18.884  0.00  0.00    +0.000 C 
ATOM      9  N   UNL     1       1.119   1.641  18.771  0.00  0.00    +0.000 NA
ATOM     10  C   UNL     1       2.396   1.953  18.245  0.00  0.00    +0.000 C 
ATOM     11  C   UNL     1       3.757   2.040  17.687  0.00  0.00    +0.000 C 
ATOM     12  H   UNL     1       0.558   1.109  18.109  0.00  0.00    +0.000 HD
ENDROOT
BRANCH   1  16
ATOM     13  C   UNL     1       1.055   9.310  19.601  0.00  0.00    +0.000 A 
ATOM     14  C   UNL     1       1.320   9.265  18.240  0.00  0.00    +0.000 A 
ATOM     15  C   UNL     1       2.109   8.226  17.724  0.00  0.00    +0.000 A 
ATOM     16  C   UNL     1       2.556   7.166  18.532  0.00  0.00    +0.000 A 
ATOM     17  C   UNL     1       2.269   7.258  19.912  0.00  0.00    +0.000 A 
ATOM     18  C   UNL     1       1.555   8.335  20.448  0.00  0.00    +0.000 A 
BRANCH  13  19
ATOM     19  O   UNL     1       0.305  10.306  20.150  0.00  0.00    +0.000 OA
ATOM     20  H   UNL     1       0.866  10.834  20.742  0.00  0.00    +0.000 HD
ENDBRANCH  13  19
ENDBRANCH   1  16
BRANCH   2  21
ATOM     21  O   UNL     1       5.083   7.581  17.164  0.00  0.00    +0.000 OA
ATOM     22  H   UNL     1       5.951   7.513  16.729  0.00  0.00    +0.000 HD
ENDBRANCH   2  21
BRANCH   3  23
ATOM     23  O   UNL     1       6.719   5.642  16.468  0.00  0.00    +0.000 OA
ATOM     24  H   UNL     1       6.516   6.283  15.756  0.00  0.00    +0.000 HD
ENDBRANCH   3  23
TORSDOF 4
ENDMDL
MODEL 6
REMARK VINA RESULT:      -6.9      3.125      5.885
REMARK  Name = 
REMARK  4 active torsions:
REMARK  status: ('A' for Active; 'I' for Inactive)
REMARK    1  A    between atoms: O_1  and  C_2
REMARK    2  A    between atoms: C_5  and  C_6
REMARK    3  A    between atoms: C_7  and  O_8
REMARK    4  A    between atoms: C_9  and  O_10
REMARK                            x       y       z     vdW  Elec       q    Type
REMARK                         _______ _______ _______ _____ _____    ______ ____
ROOT
ATOM      1  C   UNL     1       3.366   6.029  18.013  0.00  0.00    +0.000 A 
ATOM      2  C   UNL     1       4.619   6.313  17.395  0.00  0.00    +0.000 A 
ATOM      3  C   UNL     1       5.498   5.312  16.964  0.00  0.00    +0.000 A 
ATOM      4  C   UNL     1       5.165   3.987  17.065  0.00  0.00    +0.000 A 
ATOM      5  C   UNL     1       3.933   3.611  17.632  0.00  0.00    +0.000 A 
ATOM      6  C   UNL     1       2.976   4.634  18.132  0.00  0.00    +0.000 A 
ATOM      7  C   UNL     1       1.635   4.321  18.978  0.00  0.00    +0.000 C 
ATOM      8  C   UNL     1       0.583   3.058  18.904  0.00  0.00    +0.000 C 
ATOM      9  N   UNL     1       1.123   1.653  18.772  0.00  0.00    +0.000 NA
ATOM     10  C   UNL     1       2.394   1.966  18.235  0.00  0.00    +0.000 C 
ATOM     11  C   UNL     1       3.749   2.052  17.662  0.00  0.00    +0.000 C 
ATOM     12  H   UNL     1       0.551   1.130  18.111  0.00  0.00    +0.000 HD
ENDROOT
BRANCH   1  16
ATOM     13  C   UNL     1       1.080   9.360  19.555  0.00  0.00    +0.000 A 
ATOM     14  C   UNL     1       1.534   8.384  20.430  0.00  0.00    +0.000 A 
ATOM     15  C   UNL     1       2.232   7.276  19.927  0.00  0.00    +0.000 A 
ATOM     16  C   UNL     1       2.578   7.175  18.568  0.00  0.00    +0.000 A 
ATOM     17  C   UNL     1       2.087   8.188  17.713  0.00  0.00    +0.000 A 
ATOM     18  C   UNL     1       1.319   9.252  18.195  0.00  0.00    +0.000 A 
BRANCH  13  19
ATOM     19  O   UNL     1       0.387  10.447  19.996  0.00  0.00    +0.000 OA
ATOM     20  H   UNL     1      -0.553  10.213  20.069  0.00  0.00    +0.000 HD
ENDBRANCH  13  19
ENDBRANCH   1  16
BRANCH   2  21
ATOM     21  O   UNL     1       5.091   7.593  17.175  0.00  0.00    +0.000 OA
ATOM     22  H   UNL     1       5.787   7.777  17.830  0.00  0.00    +0.000 HD
ENDBRANCH   2  21
BRANCH   3  23
ATOM     23  O   UNL     1       6.712   5.654  16.443  0.00  0.00    +0.000 OA
ATOM     24  H   UNL     1       6.862   5.007  15.724  0.00  0.00    +0.000 HD
ENDBRANCH   3  23
TORSDOF 4
ENDMDL
MODEL 7
REMARK VINA RESULT:      -6.9      1.286      1.782
REMARK  Name = 
REMARK  4 active torsions:
REMARK  status: ('A' for Active; 'I' for Inactive)
REMARK    1  A    between atoms: O_1  and  C_2
REMARK    2  A    between atoms: C_5  and  C_6
REMARK    3  A    between atoms: C_7  and  O_8
REMARK    4  A    between atoms: C_9  and  O_10
REMARK                            x       y       z     vdW  Elec       q    Type
REMARK                         _______ _______ _______ _____ _____    ______ ____
ROOT
ATOM      1  C   UNL     1       3.899   3.939  17.884  0.00  0.00    +0.000 A 
ATOM      2  C   UNL     1       3.633   2.554  18.093  0.00  0.00    +0.000 A 
ATOM      3  C   UNL     1       2.728   2.091  19.055  0.00  0.00    +0.000 A 
ATOM      4  C   UNL     1       1.997   2.965  19.817  0.00  0.00    +0.000 A 
ATOM      5  C   UNL     1       2.168   4.353  19.658  0.00  0.00    +0.000 A 
ATOM      6  C   UNL     1       3.138   4.896  18.669  0.00  0.00    +0.000 A 
ATOM      7  C   UNL     1       3.564   6.450  18.540  0.00  0.00    +0.000 C 
ATOM      8  C   UNL     1       2.698   7.829  18.775  0.00  0.00    +0.000 C 
ATOM      9  N   UNL     1       1.773   7.927  19.965  0.00  0.00    +0.000 NA
ATOM     10  C   UNL     1       1.590   6.545  20.204  0.00  0.00    +0.000 C 
ATOM     11  C   UNL     1       1.247   5.175  20.626  0.00  0.00    +0.000 C 
ATOM     12  H   UNL     1       0.905   8.381  19.685  0.00  0.00    +0.000 HD
ENDROOT
BRANCH   1  16
ATOM     13  C   UNL     1       7.019   5.019  15.090  0.00  0.00    +0.000 A 
ATOM     14  C   UNL     1       7.341   4.815  16.424  0.00  0.00    +0.000 A 
ATOM     15  C   UNL     1       6.323   4.515  17.343  0.00  0.00    +0.000 A 
ATOM     16  C   UNL     1       4.994   4.311  16.933  0.00  0.00    +0.000 A 
ATOM     17  C   UNL     1       4.711   4.537  15.566  0.00  0.00    +0.000 A 
ATOM     18  C   UNL     1       5.705   4.919  14.660  0.00  0.00    +0.000 A 
BRANCH  13  19
ATOM     19  O   UNL     1       7.970   5.326  14.165  0.00  0.00    +0.000 OA
ATOM     20  H   UNL     1       8.703   4.693  14.244  0.00  0.00    +0.000 HD
ENDBRANCH  13  19
ENDBRANCH   1  16
BRANCH   2  21
ATOM     21  O   UNL     1       4.248   1.541  17.383  0.00  0.00    +0.000 OA
ATOM     22  H   UNL     1       4.698   0.955  18.017  0.00  0.00    +0.000 HD
ENDBRANCH   2  21
BRANCH   3  23
ATOM     23  O   UNL     1       2.573   0.750  19.250  0.00  0.00    +0.000 OA
ATOM     24  H   UNL     1       2.968   0.339  18.454  0.00  0.00    +0.000 HD
ENDBRANCH   3  23
TORSDOF 4
ENDMDL
MODEL 8
REMARK VINA RESULT:      -6.9      1.231      1.369
REMARK  Name = 
REMARK  4 active torsions:
REMARK  status: ('A' for Active; 'I' for Inactive)
REMARK    1  A    between atoms: O_1  and  C_2
REMARK    2  A    between atoms: C_5  and  C_6
REMARK    3  A    between atoms: C_7  and  O_8
REMARK    4  A    between atoms: C_9  and  O_10
REMARK                            x       y       z     vdW  Elec       q    Type
REMARK                         _______ _______ _______ _____ _____    ______ ____
ROOT
ATOM      1  C   UNL     1       3.891   4.032  17.827  0.00  0.00    +0.000 A 
ATOM      2  C   UNL     1       3.639   2.657  18.100  0.00  0.00    +0.000 A 
ATOM      3  C   UNL     1       2.764   2.228  19.105  0.00  0.00    +0.000 A 
ATOM      4  C   UNL     1       2.050   3.130  19.852  0.00  0.00    +0.000 A 
ATOM      5  C   UNL     1       2.208   4.510  19.631  0.00  0.00    +0.000 A 
ATOM      6  C   UNL     1       3.147   5.018  18.595  0.00  0.00    +0.000 A 
ATOM      7  C   UNL     1       3.560   6.566  18.390  0.00  0.00    +0.000 C 
ATOM      8  C   UNL     1       2.693   7.950  18.594  0.00  0.00    +0.000 C 
ATOM      9  N   UNL     1       1.801   8.092  19.805  0.00  0.00    +0.000 NA
ATOM     10  C   UNL     1       1.633   6.720  20.105  0.00  0.00    +0.000 C 
ATOM     11  C   UNL     1       1.310   5.367  20.592  0.00  0.00    +0.000 C 
ATOM     12  H   UNL     1       0.923   8.530  19.531  0.00  0.00    +0.000 HD
ENDROOT
BRANCH   1  16
ATOM     13  C   UNL     1       7.013   5.007  14.997  0.00  0.00    +0.000 A 
ATOM     14  C   UNL     1       5.713   4.834  14.544  0.00  0.00    +0.000 A 
ATOM     15  C   UNL     1       4.707   4.469  15.451  0.00  0.00    +0.000 A 
ATOM     16  C   UNL     1       4.957   4.371  16.831  0.00  0.00    +0.000 A 
ATOM     17  C   UNL     1       6.296   4.546  17.247  0.00  0.00    +0.000 A 
ATOM     18  C   UNL     1       7.320   4.829  16.336  0.00  0.00    +0.000 A 
BRANCH  13  19
ATOM     19  O   UNL     1       8.024   5.349  14.152  0.00  0.00    +0.000 OA
ATOM     20  H   UNL     1       8.813   5.568  14.676  0.00  0.00    +0.000 HD
ENDBRANCH  13  19
ENDBRANCH   1  16
BRANCH   2  21
ATOM     21  O   UNL     1       4.240   1.618  17.414  0.00  0.00    +0.000 OA
ATOM     22  H   UNL     1       4.970   1.276  17.959  0.00  0.00    +0.000 HD
ENDBRANCH   2  21
BRANCH   3  23
ATOM     23  O   UNL     1       2.622   0.895  19.359  0.00  0.00    +0.000 OA
ATOM     24  H   UNL     1       3.220   0.459  18.718  0.00  0.00    +0.000 HD
ENDBRANCH   3  23
TORSDOF 4
ENDMDL
MODEL 9
REMARK VINA RESULT:      -6.7      2.764      3.811
REMARK  Name = 
REMARK  4 active torsions:
REMARK  status: ('A' for Active; 'I' for Inactive)
REMARK    1  A    between atoms: O_1  and  C_2
REMARK    2  A    between atoms: C_5  and  C_6
REMARK    3  A    between atoms: C_7  and  O_8
REMARK    4  A    between atoms: C_9  and  O_10
REMARK                            x       y       z     vdW  Elec       q    Type
REMARK                         _______ _______ _______ _____ _____    ______ ____
ROOT
ATOM      1  C   UNL     1       3.930   5.753  18.536  0.00  0.00    +0.000 A 
ATOM      2  C   UNL     1       3.194   6.970  18.608  0.00  0.00    +0.000 A 
ATOM      3  C   UNL     1       2.142   7.171  19.511  0.00  0.00    +0.000 A 
ATOM      4  C   UNL     1       1.803   6.207  20.425  0.00  0.00    +0.000 A 
ATOM      5  C   UNL     1       2.496   4.983  20.450  0.00  0.00    +0.000 A 
ATOM      6  C   UNL     1       3.602   4.710  19.493  0.00  0.00    +0.000 A 
ATOM      7  C   UNL     1       4.330   3.281  19.295  0.00  0.00    +0.000 C 
ATOM      8  C   UNL     1       4.676   2.087  20.374  0.00  0.00    +0.000 C 
ATOM      9  N   UNL     1       3.639   1.693  21.398  0.00  0.00    +0.000 NA
ATOM     10  C   UNL     1       2.874   2.884  21.392  0.00  0.00    +0.000 C 
ATOM     11  C   UNL     1       1.950   4.019  21.561  0.00  0.00    +0.000 C 
ATOM     12  H   UNL     1       4.091   1.539  22.298  0.00  0.00    +0.000 HD
ENDROOT
BRANCH   1  16
ATOM     13  C   UNL     1       6.868   5.333  15.389  0.00  0.00    +0.000 A 
ATOM     14  C   UNL     1       5.577   4.867  15.182  0.00  0.00    +0.000 A 
ATOM     15  C   UNL     1       4.636   4.956  16.218  0.00  0.00    +0.000 A 
ATOM     16  C   UNL     1       4.932   5.599  17.433  0.00  0.00    +0.000 A 
ATOM     17  C   UNL     1       6.260   6.050  17.603  0.00  0.00    +0.000 A 
ATOM     18  C   UNL     1       7.228   5.889  16.606  0.00  0.00    +0.000 A 
BRANCH  13  19
ATOM     19  O   UNL     1       7.819   5.256  14.418  0.00  0.00    +0.000 OA
ATOM     20  H   UNL     1       7.607   5.894  13.717  0.00  0.00    +0.000 HD
ENDBRANCH  13  19
ENDBRANCH   1  16
BRANCH   2  21
ATOM     21  O   UNL     1       3.433   8.060  17.792  0.00  0.00    +0.000 OA
ATOM     22  H   UNL     1       3.250   7.797  16.873  0.00  0.00    +0.000 HD
ENDBRANCH   2  21
BRANCH   3  23
ATOM     23  O   UNL     1       1.434   8.336  19.479  0.00  0.00    +0.000 OA
ATOM     24  H   UNL     1       0.497   8.053  19.452  0.00  0.00    +0.000 HD
ENDBRANCH   3  23
TORSDOF 4
ENDMDL
