MODEL 1
REMARK VINA RESULT:      -7.4      0.000      0.000
REMARK  Name = 
REMARK  11 active torsions:
REMARK  status: ('A' for Active; 'I' for Inactive)
REMARK    1  A    between atoms: C_1  and  C_2
REMARK    2  A    between atoms: C_2  and  O_3
REMARK    3  A    between atoms: O_3  and  C_4
REMARK    4  A    between atoms: C_6  and  C_7
REMARK    5  A    between atoms: C_8  and  C_9
REMARK    6  A    between atoms: C_9  and  O_11
REMARK    7  A    between atoms: C_14  and  O_15
REMARK    8  A    between atoms: O_15  and  C_16
REMARK    9  A    between atoms: C_16  and  C_18
REMARK   10  A    between atoms: C_18  and  C_19
REMARK   11  A    between atoms: C_19  and  C_20
REMARK                            x       y       z     vdW  Elec       q    Type
REMARK                         _______ _______ _______ _____ _____    ______ ____
ROOT
ATOM      1  C   UNL     1       1.773   4.923  19.648  0.00  0.00    +0.000 A 
ATOM      2  C   UNL     1       1.392   5.862  20.611  0.00  0.00    +0.000 A 
ATOM      3  C   UNL     1       1.648   7.232  20.448  0.00  0.00    +0.000 A 
ATOM      4  C   UNL     1       2.326   7.668  19.304  0.00  0.00    +0.000 A 
ATOM      5  C   UNL     1       2.736   6.744  18.339  0.00  0.00    +0.000 A 
ATOM      6  C   UNL     1       2.457   5.385  18.520  0.00  0.00    +0.000 A 
ENDROOT
BRANCH   3   7
ATOM      7  C   UNL     1       1.079   8.132  21.456  0.00  0.00    +0.000 C 
ATOM      8  C   UNL     1       0.401   9.261  21.196  0.00  0.00    +0.000 C 
BRANCH   8   9
ATOM      9  C   UNL     1      -0.070  10.070  22.338  0.00  0.00    +0.000 C 
ATOM     10  O   UNL     1       0.271   9.900  23.497  0.00  0.00    +0.000 OA
BRANCH   9  11
ATOM     11  O   UNL     1      -0.926  11.033  21.953  0.00  0.00    +0.000 OA
ATOM     12  H   UNL     1      -0.554  11.716  21.370  0.00  0.00    +0.000 HD
ENDBRANCH   9  11
ENDBRANCH   8   9
ENDBRANCH   3   7
BRANCH   1  13
ATOM     13  O   UNL     1       1.456   3.590  19.704  0.00  0.00    +0.000 OA
BRANCH  13  15
ATOM     14  C   UNL     1       2.634   2.641  21.572  0.00  0.00    +0.000 C 
ATOM     15  C   UNL     1       1.285   3.044  21.013  0.00  0.00    +0.000 C 
ENDBRANCH  13  15
ENDBRANCH   1  13
BRANCH   6  16
ATOM     16  O   UNL     1       2.696   4.553  17.414  0.00  0.00    +0.000 OA
BRANCH  16  17
ATOM     17  C   UNL     1       3.902   3.856  17.316  0.00  0.00    +0.000 C 
ATOM     18  O   UNL     1       4.300   2.978  18.069  0.00  0.00    +0.000 OA
BRANCH  17  19
ATOM     19  C   UNL     1       4.633   4.326  16.081  0.00  0.00    +0.000 C 
BRANCH  19  20
ATOM     20  C   UNL     1       6.137   4.054  16.150  0.00  0.00    +0.000 C 
BRANCH  20  21
ATOM     21  C   UNL     1       6.842   5.085  16.992  0.00  0.00    +0.000 A 
ATOM     22  C   UNL     1       7.453   4.715  18.200  0.00  0.00    +0.000 A 
ATOM     23  C   UNL     1       8.053   5.679  19.011  0.00  0.00    +0.000 A 
ATOM     24  C   UNL     1       8.049   7.019  18.621  0.00  0.00    +0.000 A 
ATOM     25  C   UNL     1       7.454   7.391  17.416  0.00  0.00    +0.000 A 
ATOM     26  C   UNL     1       6.855   6.430  16.604  0.00  0.00    +0.000 A 
ENDBRANCH  20  21
ENDBRANCH  19  20
ENDBRANCH  17  19
ENDBRANCH  16  17
ENDBRANCH   6  16
TORSDOF 10
ENDMDL
MODEL 2
REMARK VINA RESULT:      -7.4      3.708      6.500
REMARK  Name = 
REMARK  11 active torsions:
REMARK  status: ('A' for Active; 'I' for Inactive)
REMARK    1  A    between atoms: C_1  and  C_2
REMARK    2  A    between atoms: C_2  and  O_3
REMARK    3  A    between atoms: O_3  and  C_4
REMARK    4  A    between atoms: C_6  and  C_7
REMARK    5  A    between atoms: C_8  and  C_9
REMARK    6  A    between atoms: C_9  and  O_11
REMARK    7  A    between atoms: C_14  and  O_15
REMARK    8  A    between atoms: O_15  and  C_16
REMARK    9  A    between atoms: C_16  and  C_18
REMARK   10  A    between atoms: C_18  and  C_19
REMARK   11  A    between atoms: C_19  and  C_20
REMARK                            x       y       z     vdW  Elec       q    Type
REMARK                         _______ _______ _______ _____ _____    ______ ____
ROOT
ATOM      1  C   UNL     1       6.511   4.520  17.130  0.00  0.00    +0.000 A 
ATOM      2  C   UNL     1       5.337   3.803  17.380  0.00  0.00    +0.000 A 
ATOM      3  C   UNL     1       4.609   3.971  18.568  0.00  0.00    +0.000 A 
ATOM      4  C   UNL     1       5.084   4.860  19.540  0.00  0.00    +0.000 A 
ATOM      5  C   UNL     1       6.268   5.569  19.320  0.00  0.00    +0.000 A 
ATOM      6  C   UNL     1       6.968   5.392  18.122  0.00  0.00    +0.000 A 
ENDROOT
BRANCH   3   7
ATOM      7  C   UNL     1       3.323   3.273  18.656  0.00  0.00    +0.000 C 
ATOM      8  C   UNL     1       2.180   3.801  19.119  0.00  0.00    +0.000 C 
BRANCH   8   9
ATOM      9  C   UNL     1       0.984   2.938  19.172  0.00  0.00    +0.000 C 
ATOM     10  O   UNL     1       0.624   2.192  18.276  0.00  0.00    +0.000 OA
BRANCH   9  11
ATOM     11  O   UNL     1       0.325   3.063  20.339  0.00  0.00    +0.000 OA
ATOM     12  H   UNL     1      -0.640   2.964  20.288  0.00  0.00    +0.000 HD
ENDBRANCH   9  11
ENDBRANCH   8   9
ENDBRANCH   3   7
BRANCH   1  13
ATOM     13  O   UNL     1       7.204   4.475  15.947  0.00  0.00    +0.000 OA
BRANCH  13  15
ATOM     14  C   UNL     1       5.657   5.083  14.210  0.00  0.00    +0.000 C 
ATOM     15  C   UNL     1       6.483   3.971  14.822  0.00  0.00    +0.000 C 
ENDBRANCH  13  15
ENDBRANCH   1  13
BRANCH   6  16
ATOM     16  O   UNL     1       8.015   6.297  17.879  0.00  0.00    +0.000 OA
BRANCH  16  17
ATOM     17  C   UNL     1       7.727   7.631  17.584  0.00  0.00    +0.000 C 
ATOM     18  O   UNL     1       6.906   8.037  16.774  0.00  0.00    +0.000 OA
BRANCH  17  19
ATOM     19  C   UNL     1       8.566   8.515  18.476  0.00  0.00    +0.000 C 
BRANCH  19  20
ATOM     20  C   UNL     1       8.410  10.000  18.143  0.00  0.00    +0.000 C 
BRANCH  20  21
ATOM     21  C   UNL     1       9.529  10.816  18.737  0.00  0.00    +0.000 A 
ATOM     22  C   UNL     1      10.584  11.266  17.929  0.00  0.00    +0.000 A 
ATOM     23  C   UNL     1      11.652  11.968  18.490  0.00  0.00    +0.000 A 
ATOM     24  C   UNL     1      11.673  12.226  19.860  0.00  0.00    +0.000 A 
ATOM     25  C   UNL     1      10.622  11.793  20.667  0.00  0.00    +0.000 A 
ATOM     26  C   UNL     1       9.554  11.092  20.109  0.00  0.00    +0.000 A 
ENDBRANCH  20  21
ENDBRANCH  19  20
ENDBRANCH  17  19
ENDBRANCH  16  17
ENDBRANCH   6  16
TORSDOF 10
ENDMDL
MODEL 3
REMARK VINA RESULT:      -7.3      2.904      8.224
REMARK  Name = 
REMARK  11 active torsions:
REMARK  status: ('A' for Active; 'I' for Inactive)
REMARK    1  A    between atoms: C_1  and  C_2
REMARK    2  A    between atoms: C_2  and  O_3
REMARK    3  A    between atoms: O_3  and  C_4
REMARK    4  A    between atoms: C_6  and  C_7
REMARK    5  A    between atoms: C_8  and  C_9
REMARK    6  A    between atoms: C_9  and  O_11
REMARK    7  A    between atoms: C_14  and  O_15
REMARK    8  A    between atoms: O_15  and  C_16
REMARK    9  A    between atoms: C_16  and  C_18
REMARK   10  A    between atoms: C_18  and  C_19
REMARK   11  A    between atoms: C_19  and  C_20
REMARK                            x       y       z     vdW  Elec       q    Type
REMARK                         _______ _______ _______ _____ _____    ______ ____
ROOT
ATOM      1  C   UNL     1       5.936   6.421  16.689  0.00  0.00    +0.000 A 
ATOM      2  C   UNL     1       6.361   5.576  15.659  0.00  0.00    +0.000 A 
ATOM      3  C   UNL     1       5.685   4.384  15.357  0.00  0.00    +0.000 A 
ATOM      4  C   UNL     1       4.571   4.018  16.121  0.00  0.00    +0.000 A 
ATOM      5  C   UNL     1       4.144   4.836  17.170  0.00  0.00    +0.000 A 
ATOM      6  C   UNL     1       4.828   6.025  17.443  0.00  0.00    +0.000 A 
ENDROOT
BRANCH   3   7
ATOM      7  C   UNL     1       6.138   3.654  14.168  0.00  0.00    +0.000 C 
ATOM      8  C   UNL     1       5.484   3.588  12.998  0.00  0.00    +0.000 C 
BRANCH   8   9
ATOM      9  C   UNL     1       6.070   2.772  11.917  0.00  0.00    +0.000 C 
ATOM     10  O   UNL     1       5.515   1.827  11.382  0.00  0.00    +0.000 OA
BRANCH   9  11
ATOM     11  O   UNL     1       7.301   3.196  11.578  0.00  0.00    +0.000 OA
ATOM     12  H   UNL     1       7.543   3.075  10.645  0.00  0.00    +0.000 HD
ENDBRANCH   9  11
ENDBRANCH   8   9
ENDBRANCH   3   7
BRANCH   1  13
ATOM     13  O   UNL     1       6.492   7.645  16.959  0.00  0.00    +0.000 OA
BRANCH  13  15
ATOM     14  C   UNL     1       8.168   9.048  17.960  0.00  0.00    +0.000 C 
ATOM     15  C   UNL     1       7.698   7.627  17.724  0.00  0.00    +0.000 C 
ENDBRANCH  13  15
ENDBRANCH   1  13
BRANCH   6  16
ATOM     16  O   UNL     1       4.211   6.898  18.355  0.00  0.00    +0.000 OA
BRANCH  16  17
ATOM     17  C   UNL     1       3.043   7.571  17.991  0.00  0.00    +0.000 C 
ATOM     18  O   UNL     1       2.936   8.432  17.130  0.00  0.00    +0.000 OA
BRANCH  17  19
ATOM     19  C   UNL     1       1.895   7.024  18.807  0.00  0.00    +0.000 C 
BRANCH  19  20
ATOM     20  C   UNL     1       2.353   6.430  20.140  0.00  0.00    +0.000 C 
BRANCH  20  21
ATOM     21  C   UNL     1       1.967   4.978  20.255  0.00  0.00    +0.000 A 
ATOM     22  C   UNL     1       2.255   4.259  21.424  0.00  0.00    +0.000 A 
ATOM     23  C   UNL     1       1.953   2.899  21.509  0.00  0.00    +0.000 A 
ATOM     24  C   UNL     1       1.361   2.248  20.426  0.00  0.00    +0.000 A 
ATOM     25  C   UNL     1       1.061   2.960  19.266  0.00  0.00    +0.000 A 
ATOM     26  C   UNL     1       1.361   4.318  19.180  0.00  0.00    +0.000 A 
ENDBRANCH  20  21
ENDBRANCH  19  20
ENDBRANCH  17  19
ENDBRANCH  16  17
ENDBRANCH   6  16
TORSDOF 10
ENDMDL
MODEL 4
REMARK VINA RESULT:      -7.3      0.676      1.410
REMARK  Name = 
REMARK  11 active torsions:
REMARK  status: ('A' for Active; 'I' for Inactive)
REMARK    1  A    between atoms: C_1  and  C_2
REMARK    2  A    between atoms: C_2  and  O_3
REMARK    3  A    between atoms: O_3  and  C_4
REMARK    4  A    between atoms: C_6  and  C_7
REMARK    5  A    between atoms: C_8  and  C_9
REMARK    6  A    between atoms: C_9  and  O_11
REMARK    7  A    between atoms: C_14  and  O_15
REMARK    8  A    between atoms: O_15  and  C_16
REMARK    9  A    between atoms: C_16  and  C_18
REMARK   10  A    between atoms: C_18  and  C_19
REMARK   11  A    between atoms: C_19  and  C_20
REMARK                            x       y       z     vdW  Elec       q    Type
REMARK                         _______ _______ _______ _____ _____    ______ ____
ROOT
ATOM      1  C   UNL     1       2.247   5.056  19.696  0.00  0.00    +0.000 A 
ATOM      2  C   UNL     1       1.905   6.042  20.626  0.00  0.00    +0.000 A 
ATOM      3  C   UNL     1       1.886   7.403  20.285  0.00  0.00    +0.000 A 
ATOM      4  C   UNL     1       2.241   7.786  18.987  0.00  0.00    +0.000 A 
ATOM      5  C   UNL     1       2.609   6.818  18.048  0.00  0.00    +0.000 A 
ATOM      6  C   UNL     1       2.609   5.468  18.410  0.00  0.00    +0.000 A 
ENDROOT
BRANCH   3   7
ATOM      7  C   UNL     1       1.377   8.328  21.302  0.00  0.00    +0.000 C 
ATOM      8  C   UNL     1       0.828   9.529  21.057  0.00  0.00    +0.000 C 
BRANCH   8   9
ATOM      9  C   UNL     1       0.403  10.349  22.208  0.00  0.00    +0.000 C 
ATOM     10  O   UNL     1      -0.041  11.482  22.128  0.00  0.00    +0.000 OA
BRANCH   9  11
ATOM     11  O   UNL     1       0.558   9.697  23.375  0.00  0.00    +0.000 OA
ATOM     12  H   UNL     1       1.024   8.846  23.321  0.00  0.00    +0.000 HD
ENDBRANCH   9  11
ENDBRANCH   8   9
ENDBRANCH   3   7
BRANCH   1  13
ATOM     13  O   UNL     1       2.181   3.708  19.943  0.00  0.00    +0.000 OA
BRANCH  13  15
ATOM     14  C   UNL     1       0.709   2.203  18.783  0.00  0.00    +0.000 C 
ATOM     15  C   UNL     1       0.870   3.141  19.962  0.00  0.00    +0.000 C 
ENDBRANCH  13  15
ENDBRANCH   1  13
BRANCH   6  16
ATOM     16  O   UNL     1       2.767   4.546  17.361  0.00  0.00    +0.000 OA
BRANCH  16  17
ATOM     17  C   UNL     1       3.987   3.889  17.192  0.00  0.00    +0.000 C 
ATOM     18  O   UNL     1       4.385   2.918  17.820  0.00  0.00    +0.000 OA
BRANCH  17  19
ATOM     19  C   UNL     1       4.735   4.542  16.055  0.00  0.00    +0.000 C 
BRANCH  19  20
ATOM     20  C   UNL     1       6.248   4.338  16.152  0.00  0.00    +0.000 C 
BRANCH  20  21
ATOM     21  C   UNL     1       6.880   5.351  17.071  0.00  0.00    +0.000 A 
ATOM     22  C   UNL     1       6.986   6.693  16.680  0.00  0.00    +0.000 A 
ATOM     23  C   UNL     1       7.626   7.620  17.504  0.00  0.00    +0.000 A 
ATOM     24  C   UNL     1       8.164   7.212  18.725  0.00  0.00    +0.000 A 
ATOM     25  C   UNL     1       8.051   5.881  19.125  0.00  0.00    +0.000 A 
ATOM     26  C   UNL     1       7.411   4.955  18.304  0.00  0.00    +0.000 A 
ENDBRANCH  20  21
ENDBRANCH  19  20
ENDBRANCH  17  19
ENDBRANCH  16  17
ENDBRANCH   6  16
TORSDOF 10
ENDMDL
MODEL 5
REMARK VINA RESULT:      -7.1      3.973      6.571
REMARK  Name = 
REMARK  11 active torsions:
REMARK  status: ('A' for Active; 'I' for Inactive)
REMARK    1  A    between atoms: C_1  and  C_2
REMARK    2  A    between atoms: C_2  and  O_3
REMARK    3  A    between atoms: O_3  and  C_4
REMARK    4  A    between atoms: C_6  and  C_7
REMARK    5  A    between atoms: C_8  and  C_9
REMARK    6  A    between atoms: C_9  and  O_11
REMARK    7  A    between atoms: C_14  and  O_15
REMARK    8  A    between atoms: O_15  and  C_16
REMARK    9  A    between atoms: C_16  and  C_18
REMARK   10  A    between atoms: C_18  and  C_19
REMARK   11  A    between atoms: C_19  and  C_20
REMARK                            x       y       z     vdW  Elec       q    Type
REMARK                         _______ _______ _______ _____ _____    ______ ____
ROOT
ATOM      1  C   UNL     1       5.905   5.183  16.773  0.00  0.00    +0.000 A 
ATOM      2  C   UNL     1       4.853   4.394  17.247  0.00  0.00    +0.000 A 
ATOM      3  C   UNL     1       4.699   4.114  18.614  0.00  0.00    +0.000 A 
ATOM      4  C   UNL     1       5.637   4.616  19.523  0.00  0.00    +0.000 A 
ATOM      5  C   UNL     1       6.709   5.388  19.067  0.00  0.00    +0.000 A 
ATOM      6  C   UNL     1       6.833   5.662  17.702  0.00  0.00    +0.000 A 
ENDROOT
BRANCH   3   7
ATOM      7  C   UNL     1       3.482   3.395  19.005  0.00  0.00    +0.000 C 
ATOM      8  C   UNL     1       2.273   3.548  18.444  0.00  0.00    +0.000 C 
BRANCH   8   9
ATOM      9  C   UNL     1       1.146   2.769  18.992  0.00  0.00    +0.000 C 
ATOM     10  O   UNL     1       0.284   2.226  18.320  0.00  0.00    +0.000 OA
BRANCH   9  11
ATOM     11  O   UNL     1       1.177   2.717  20.336  0.00  0.00    +0.000 OA
ATOM     12  H   UNL     1       0.646   3.389  20.794  0.00  0.00    +0.000 HD
ENDBRANCH   9  11
ENDBRANCH   8   9
ENDBRANCH   3   7
BRANCH   1  13
ATOM     13  O   UNL     1       6.044   5.575  15.466  0.00  0.00    +0.000 OA
BRANCH  13  15
ATOM     14  C   UNL     1       6.096   3.876  13.766  0.00  0.00    +0.000 C 
ATOM     15  C   UNL     1       6.917   4.778  14.665  0.00  0.00    +0.000 C 
ENDBRANCH  13  15
ENDBRANCH   1  13
BRANCH   6  16
ATOM     16  O   UNL     1       7.796   6.622  17.349  0.00  0.00    +0.000 OA
BRANCH  16  17
ATOM     17  C   UNL     1       7.485   7.981  17.426  0.00  0.00    +0.000 C 
ATOM     18  O   UNL     1       6.502   8.531  16.951  0.00  0.00    +0.000 OA
BRANCH  17  19
ATOM     19  C   UNL     1       8.545   8.674  18.248  0.00  0.00    +0.000 C 
BRANCH  19  20
ATOM     20  C   UNL     1       8.416  10.198  18.209  0.00  0.00    +0.000 C 
BRANCH  20  21
ATOM     21  C   UNL     1       9.646  10.867  18.763  0.00  0.00    +0.000 A 
ATOM     22  C   UNL     1       9.736  11.164  20.131  0.00  0.00    +0.000 A 
ATOM     23  C   UNL     1      10.848  11.839  20.635  0.00  0.00    +0.000 A 
ATOM     24  C   UNL     1      11.879  12.221  19.777  0.00  0.00    +0.000 A 
ATOM     25  C   UNL     1      11.802  11.918  18.418  0.00  0.00    +0.000 A 
ATOM     26  C   UNL     1      10.693  11.243  17.913  0.00  0.00    +0.000 A 
ENDBRANCH  20  21
ENDBRANCH  19  20
ENDBRANCH  17  19
ENDBRANCH  16  17
ENDBRANCH   6  16
TORSDOF 10
ENDMDL
MODEL 6
REMARK VINA RESULT:      -7.1      2.393      3.387
REMARK  Name = 
REMARK  11 active torsions:
REMARK  status: ('A' for Active; 'I' for Inactive)
REMARK    1  A    between atoms: C_1  and  C_2
REMARK    2  A    between atoms: C_2  and  O_3
REMARK    3  A    between atoms: O_3  and  C_4
REMARK    4  A    between atoms: C_6  and  C_7
REMARK    5  A    between atoms: C_8  and  C_9
REMARK    6  A    between atoms: C_9  and  O_11
REMARK    7  A    between atoms: C_14  and  O_15
REMARK    8  A    between atoms: O_15  and  C_16
REMARK    9  A    between atoms: C_16  and  C_18
REMARK   10  A    between atoms: C_18  and  C_19
REMARK   11  A    between atoms: C_19  and  C_20
REMARK                            x       y       z     vdW  Elec       q    Type
REMARK                         _______ _______ _______ _____ _____    ______ ____
ROOT
ATOM      1  C   UNL     1       2.854   6.142  19.592  0.00  0.00    +0.000 A 
ATOM      2  C   UNL     1       2.109   7.305  19.805  0.00  0.00    +0.000 A 
ATOM      3  C   UNL     1       2.054   8.331  18.849  0.00  0.00    +0.000 A 
ATOM      4  C   UNL     1       2.784   8.198  17.662  0.00  0.00    +0.000 A 
ATOM      5  C   UNL     1       3.554   7.054  17.440  0.00  0.00    +0.000 A 
ATOM      6  C   UNL     1       3.582   6.041  18.404  0.00  0.00    +0.000 A 
ENDROOT
BRANCH   3   7
ATOM      7  C   UNL     1       1.129   9.436  19.122  0.00  0.00    +0.000 C 
ATOM      8  C   UNL     1       1.211  10.668  18.595  0.00  0.00    +0.000 C 
BRANCH   8   9
ATOM      9  C   UNL     1       0.214  11.672  19.013  0.00  0.00    +0.000 C 
ATOM     10  O   UNL     1      -0.358  11.677  20.090  0.00  0.00    +0.000 OA
BRANCH   9  11
ATOM     11  O   UNL     1       0.004  12.600  18.060  0.00  0.00    +0.000 OA
ATOM     12  H   UNL     1       0.649  12.606  17.333  0.00  0.00    +0.000 HD
ENDBRANCH   9  11
ENDBRANCH   8   9
ENDBRANCH   3   7
BRANCH   1  13
ATOM     13  O   UNL     1       2.860   5.065  20.442  0.00  0.00    +0.000 OA
BRANCH  13  15
ATOM     14  C   UNL     1       1.107   3.576  19.742  0.00  0.00    +0.000 C 
ATOM     15  C   UNL     1       1.578   4.549  20.803  0.00  0.00    +0.000 C 
ENDBRANCH  13  15
ENDBRANCH   1  13
BRANCH   6  16
ATOM     16  O   UNL     1       4.190   4.835  18.015  0.00  0.00    +0.000 OA
BRANCH  16  17
ATOM     17  C   UNL     1       5.549   4.631  18.258  0.00  0.00    +0.000 C 
ATOM     18  O   UNL     1       6.077   4.463  19.348  0.00  0.00    +0.000 OA
BRANCH  17  19
ATOM     19  C   UNL     1       6.277   4.598  16.936  0.00  0.00    +0.000 C 
BRANCH  19  20
ATOM     20  C   UNL     1       5.488   3.865  15.849  0.00  0.00    +0.000 C 
BRANCH  20  21
ATOM     21  C   UNL     1       6.087   4.097  14.486  0.00  0.00    +0.000 A 
ATOM     22  C   UNL     1       5.577   3.425  13.365  0.00  0.00    +0.000 A 
ATOM     23  C   UNL     1       6.170   3.592  12.112  0.00  0.00    +0.000 A 
ATOM     24  C   UNL     1       7.274   4.432  11.971  0.00  0.00    +0.000 A 
ATOM     25  C   UNL     1       7.777   5.113  13.078  0.00  0.00    +0.000 A 
ATOM     26  C   UNL     1       7.187   4.948  14.330  0.00  0.00    +0.000 A 
ENDBRANCH  20  21
ENDBRANCH  19  20
ENDBRANCH  17  19
ENDBRANCH  16  17
ENDBRANCH   6  16
TORSDOF 10
ENDMDL
MODEL 7
REMARK VINA RESULT:      -7.1      0.466      1.078
REMARK  Name = 
REMARK  11 active torsions:
REMARK  status: ('A' for Active; 'I' for Inactive)
REMARK    1  A    between atoms: C_1  and  C_2
REMARK    2  A    between atoms: C_2  and  O_3
REMARK    3  A    between atoms: O_3  and  C_4
REMARK    4  A    between atoms: C_6  and  C_7
REMARK    5  A    between atoms: C_8  and  C_9
REMARK    6  A    between atoms: C_9  and  O_11
REMARK    7  A    between atoms: C_14  and  O_15
REMARK    8  A    between atoms: O_15  and  C_16
REMARK    9  A    between atoms: C_16  and  C_18
REMARK   10  A    between atoms: C_18  and  C_19
REMARK   11  A    between atoms: C_19  and  C_20
REMARK                            x       y       z     vdW  Elec       q    Type
REMARK                         _______ _______ _______ _____ _____    ______ ____
ROOT
ATOM      1  C   UNL     1       1.662   4.623  19.398  0.00  0.00    +0.000 A 
ATOM      2  C   UNL     1       1.222   5.505  20.389  0.00  0.00    +0.000 A 
ATOM      3  C   UNL     1       1.569   6.865  20.373  0.00  0.00    +0.000 A 
ATOM      4  C   UNL     1       2.398   7.346  19.352  0.00  0.00    +0.000 A 
ATOM      5  C   UNL     1       2.869   6.475  18.366  0.00  0.00    +0.000 A 
ATOM      6  C   UNL     1       2.498   5.127  18.398  0.00  0.00    +0.000 A 
ENDROOT
BRANCH   3   7
ATOM      7  C   UNL     1       0.934   7.718  21.382  0.00  0.00    +0.000 C 
ATOM      8  C   UNL     1       1.009   9.057  21.429  0.00  0.00    +0.000 C 
BRANCH   8   9
ATOM      9  C   UNL     1       0.338   9.755  22.542  0.00  0.00    +0.000 C 
ATOM     10  O   UNL     1       0.681   9.689  23.711  0.00  0.00    +0.000 OA
BRANCH   9  11
ATOM     11  O   UNL     1      -0.708  10.488  22.119  0.00  0.00    +0.000 OA
ATOM     12  H   UNL     1      -0.592  10.926  21.259  0.00  0.00    +0.000 HD
ENDBRANCH   9  11
ENDBRANCH   8   9
ENDBRANCH   3   7
BRANCH   1  13
ATOM     13  O   UNL     1       1.270   3.312  19.305  0.00  0.00    +0.000 OA
BRANCH  13  15
ATOM     14  C   UNL     1       1.674   2.654  21.581  0.00  0.00    +0.000 C 
ATOM     15  C   UNL     1       1.986   2.386  20.123  0.00  0.00    +0.000 C 
ENDBRANCH  13  15
ENDBRANCH   1  13
BRANCH   6  16
ATOM     16  O   UNL     1       2.820   4.370  17.259  0.00  0.00    +0.000 OA
BRANCH  16  17
ATOM     17  C   UNL     1       4.067   3.750  17.166  0.00  0.00    +0.000 C 
ATOM     18  O   UNL     1       4.497   2.866  17.894  0.00  0.00    +0.000 OA
BRANCH  17  19
ATOM     19  C   UNL     1       4.800   4.313  15.972  0.00  0.00    +0.000 C 
BRANCH  19  20
ATOM     20  C   UNL     1       6.318   4.161  16.089  0.00  0.00    +0.000 C 
BRANCH  20  21
ATOM     21  C   UNL     1       6.903   5.196  17.015  0.00  0.00    +0.000 A 
ATOM     22  C   UNL     1       6.971   6.541  16.622  0.00  0.00    +0.000 A 
ATOM     23  C   UNL     1       7.568   7.490  17.453  0.00  0.00    +0.000 A 
ATOM     24  C   UNL     1       8.101   7.102  18.682  0.00  0.00    +0.000 A 
ATOM     25  C   UNL     1       8.026   5.769  19.084  0.00  0.00    +0.000 A 
ATOM     26  C   UNL     1       7.429   4.821  18.256  0.00  0.00    +0.000 A 
ENDBRANCH  20  21
ENDBRANCH  19  20
ENDBRANCH  17  19
ENDBRANCH  16  17
ENDBRANCH   6  16
TORSDOF 10
ENDMDL
MODEL 8
REMARK VINA RESULT:      -7.1      3.404      6.362
REMARK  Name = 
REMARK  11 active torsions:
REMARK  status: ('A' for Active; 'I' for Inactive)
REMARK    1  A    between atoms: C_1  and  C_2
REMARK    2  A    between atoms: C_2  and  O_3
REMARK    3  A    between atoms: O_3  and  C_4
REMARK    4  A    between atoms: C_6  and  C_7
REMARK    5  A    between atoms: C_8  and  C_9
REMARK    6  A    between atoms: C_9  and  O_11
REMARK    7  A    between atoms: C_14  and  O_15
REMARK    8  A    between atoms: O_15  and  C_16
REMARK    9  A    between atoms: C_16  and  C_18
REMARK   10  A    between atoms: C_18  and  C_19
REMARK   11  A    between atoms: C_19  and  C_20
REMARK                            x       y       z     vdW  Elec       q    Type
REMARK                         _______ _______ _______ _____ _____    ______ ____
ROOT
ATOM      1  C   UNL     1       5.679   5.026  16.256  0.00  0.00    +0.000 A 
ATOM      2  C   UNL     1       6.407   6.134  16.699  0.00  0.00    +0.000 A 
ATOM      3  C   UNL     1       6.737   6.308  18.051  0.00  0.00    +0.000 A 
ATOM      4  C   UNL     1       6.304   5.360  18.986  0.00  0.00    +0.000 A 
ATOM      5  C   UNL     1       5.555   4.257  18.568  0.00  0.00    +0.000 A 
ATOM      6  C   UNL     1       5.251   4.101  17.212  0.00  0.00    +0.000 A 
ENDROOT
BRANCH   3   7
ATOM      7  C   UNL     1       7.621   7.432  18.374  0.00  0.00    +0.000 C 
ATOM      8  C   UNL     1       7.575   8.647  17.805  0.00  0.00    +0.000 C 
BRANCH   8   9
ATOM      9  C   UNL     1       8.571   9.651  18.226  0.00  0.00    +0.000 C 
ATOM     10  O   UNL     1       9.429   9.467  19.074  0.00  0.00    +0.000 OA
BRANCH   9  11
ATOM     11  O   UNL     1       8.430  10.810  17.557  0.00  0.00    +0.000 OA
ATOM     12  H   UNL     1       7.673  11.358  17.823  0.00  0.00    +0.000 HD
ENDBRANCH   9  11
ENDBRANCH   8   9
ENDBRANCH   3   7
BRANCH   1  13
ATOM     13  O   UNL     1       5.420   4.751  14.937  0.00  0.00    +0.000 OA
BRANCH  13  15
ATOM     14  C   UNL     1       6.148   3.668  12.919  0.00  0.00    +0.000 C 
ATOM     15  C   UNL     1       6.562   4.495  14.118  0.00  0.00    +0.000 C 
ENDBRANCH  13  15
ENDBRANCH   1  13
BRANCH   6  16
ATOM     16  O   UNL     1       4.697   2.864  16.841  0.00  0.00    +0.000 OA
BRANCH  16  17
ATOM     17  C   UNL     1       3.626   2.337  17.565  0.00  0.00    +0.000 C 
ATOM     18  O   UNL     1       3.656   1.363  18.305  0.00  0.00    +0.000 OA
BRANCH  17  19
ATOM     19  C   UNL     1       2.411   3.203  17.332  0.00  0.00    +0.000 C 
BRANCH  19  20
ATOM     20  C   UNL     1       1.677   3.548  18.629  0.00  0.00    +0.000 C 
BRANCH  20  21
ATOM     21  C   UNL     1       1.906   4.984  19.024  0.00  0.00    +0.000 A 
ATOM     22  C   UNL     1       1.614   5.415  20.326  0.00  0.00    +0.000 A 
ATOM     23  C   UNL     1       1.768   6.757  20.675  0.00  0.00    +0.000 A 
ATOM     24  C   UNL     1       2.216   7.677  19.727  0.00  0.00    +0.000 A 
ATOM     25  C   UNL     1       2.519   7.253  18.435  0.00  0.00    +0.000 A 
ATOM     26  C   UNL     1       2.367   5.912  18.084  0.00  0.00    +0.000 A 
ENDBRANCH  20  21
ENDBRANCH  19  20
ENDBRANCH  17  19
ENDBRANCH  16  17
ENDBRANCH   6  16
TORSDOF 10
ENDMDL
MODEL 9
REMARK VINA RESULT:      -7.1      2.914      7.973
REMARK  Name = 
REMARK  11 active torsions:
REMARK  status: ('A' for Active; 'I' for Inactive)
REMARK    1  A    between atoms: C_1  and  C_2
REMARK    2  A    between atoms: C_2  and  O_3
REMARK    3  A    between atoms: O_3  and  C_4
REMARK    4  A    between atoms: C_6  and  C_7
REMARK    5  A    between atoms: C_8  and  C_9
REMARK    6  A    between atoms: C_9  and  O_11
REMARK    7  A    between atoms: C_14  and  O_15
REMARK    8  A    between atoms: O_15  and  C_16
REMARK    9  A    between atoms: C_16  and  C_18
REMARK   10  A    between atoms: C_18  and  C_19
REMARK   11  A    between atoms: C_19  and  C_20
REMARK                            x       y       z     vdW  Elec       q    Type
REMARK                         _______ _______ _______ _____ _____    ______ ____
ROOT
ATOM      1  C   UNL     1       6.082   6.268  17.511  0.00  0.00    +0.000 A 
ATOM      2  C   UNL     1       6.598   5.774  16.310  0.00  0.00    +0.000 A 
ATOM      3  C   UNL     1       5.922   4.799  15.562  0.00  0.00    +0.000 A 
ATOM      4  C   UNL     1       4.710   4.288  16.043  0.00  0.00    +0.000 A 
ATOM      5  C   UNL     1       4.188   4.751  17.254  0.00  0.00    +0.000 A 
ATOM      6  C   UNL     1       4.877   5.733  17.974  0.00  0.00    +0.000 A 
ENDROOT
BRANCH   3   7
ATOM      7  C   UNL     1       6.490   4.462  14.252  0.00  0.00    +0.000 C 
ATOM      8  C   UNL     1       5.924   3.653  13.343  0.00  0.00    +0.000 C 
BRANCH   8   9
ATOM      9  C   UNL     1       6.657   3.394  12.089  0.00  0.00    +0.000 C 
ATOM     10  O   UNL     1       7.327   4.220  11.492  0.00  0.00    +0.000 OA
BRANCH   9  11
ATOM     11  O   UNL     1       6.507   2.123  11.672  0.00  0.00    +0.000 OA
ATOM     12  H   UNL     1       5.786   1.627  12.094  0.00  0.00    +0.000 HD
ENDBRANCH   9  11
ENDBRANCH   8   9
ENDBRANCH   3   7
BRANCH   1  13
ATOM     13  O   UNL     1       6.645   7.294  18.227  0.00  0.00    +0.000 OA
BRANCH  13  15
ATOM     14  C   UNL     1       8.202   9.106  17.959  0.00  0.00    +0.000 C 
ATOM     15  C   UNL     1       8.002   7.605  17.909  0.00  0.00    +0.000 C 
ENDBRANCH  13  15
ENDBRANCH   1  13
BRANCH   6  16
ATOM     16  O   UNL     1       4.185   6.306  19.054  0.00  0.00    +0.000 OA
BRANCH  16  17
ATOM     17  C   UNL     1       2.793   6.396  19.019  0.00  0.00    +0.000 C 
ATOM     18  O   UNL     1       2.108   6.736  18.064  0.00  0.00    +0.000 OA
BRANCH  17  19
ATOM     19  C   UNL     1       2.246   5.950  20.354  0.00  0.00    +0.000 C 
BRANCH  19  20
ATOM     20  C   UNL     1       1.329   4.731  20.235  0.00  0.00    +0.000 C 
BRANCH  20  21
ATOM     21  C   UNL     1       2.066   3.542  19.674  0.00  0.00    +0.000 A 
ATOM     22  C   UNL     1       3.265   3.111  20.260  0.00  0.00    +0.000 A 
ATOM     23  C   UNL     1       3.980   2.050  19.704  0.00  0.00    +0.000 A 
ATOM     24  C   UNL     1       3.502   1.411  18.560  0.00  0.00    +0.000 A 
ATOM     25  C   UNL     1       2.305   1.826  17.980  0.00  0.00    +0.000 A 
ATOM     26  C   UNL     1       1.589   2.886  18.534  0.00  0.00    +0.000 A 
ENDBRANCH  20  21
ENDBRANCH  19  20
ENDBRANCH  17  19
ENDBRANCH  16  17
ENDBRANCH   6  16
TORSDOF 10
ENDMDL
