MODEL 1
REMARK VINA RESULT:      -8.6      0.000      0.000
REMARK  Name = 
REMARK  7 active torsions:
REMARK  status: ('A' for Active; 'I' for Inactive)
REMARK    1  A    between atoms: C_2  and  C_13
REMARK    2  A    between atoms: N_3  and  S_4
REMARK    3  A    between atoms: S_4  and  C_7
REMARK    4  A    between atoms: C_15  and  C_16
REMARK    5  A    between atoms: C_19  and  O_20
REMARK    6  A    between atoms: O_20  and  C_21
REMARK    7  A    between atoms: C_21  and  C_22
REMARK                            x       y       z     vdW  Elec       q    Type
REMARK                         _______ _______ _______ _____ _____    ______ ____
ROOT
ATOM      1  C   UNL     1      -0.070  10.553  21.588  0.00  0.00    +0.000 A 
ATOM      2  C   UNL     1       0.263  10.312  20.238  0.00  0.00    +0.000 A 
ATOM      3  C   UNL     1       0.977   9.151  19.832  0.00  0.00    +0.000 A 
ATOM      4  C   UNL     1       1.330   8.219  20.848  0.00  0.00    +0.000 A 
ATOM      5  C   UNL     1       0.968   8.460  22.186  0.00  0.00    +0.000 A 
ATOM      6  C   UNL     1       0.268   9.607  22.535  0.00  0.00    +0.000 A 
ATOM      7  F   UNL     1      -0.015   9.800  23.841  0.00  0.00    +0.000 F 
ENDROOT
BRANCH   1   9
ATOM      8  O   UNL     1       0.076  12.808  22.112  0.00  0.00    +0.000 OA
ATOM      9  C   UNL     1      -0.664  11.845  21.983  0.00  0.00    +0.000 C 
ATOM     10  N   UNL     1      -2.041  11.882  22.269  0.00  0.00    +0.000 N 
ATOM     11  H   UNL     1      -2.596  11.031  22.347  0.00  0.00    +0.000 HD
BRANCH  10  12
ATOM     12  S   UNL     1      -2.861  13.301  22.608  0.00  0.00    +0.000 S 
ATOM     13  O   UNL     1      -2.433  13.799  23.896  0.00  0.00    +0.000 OA
ATOM     14  O   UNL     1      -2.745  14.137  21.431  0.00  0.00    +0.000 OA
BRANCH  12  15
ATOM     15  C   UNL     1      -4.570  12.746  22.752  0.00  0.00    +0.000 C 
ATOM     16  C   UNL     1      -5.350  12.820  21.437  0.00  0.00    +0.000 C 
ATOM     17  C   UNL     1      -6.815  12.471  21.671  0.00  0.00    +0.000 C 
ATOM     18  O   UNL     1      -7.380  13.325  22.663  0.00  0.00    +0.000 OA
ATOM     19  C   UNL     1      -6.747  13.168  23.931  0.00  0.00    +0.000 C 
ATOM     20  C   UNL     1      -5.279  13.550  23.846  0.00  0.00    +0.000 C 
ENDBRANCH  12  15
ENDBRANCH  10  12
ENDBRANCH   1   9
BRANCH   3  21
ATOM     21  C   UNL     1       1.304   9.021  18.335  0.00  0.00    +0.000 C 
ATOM     22  C   UNL     1       2.262   9.936  17.618  0.00  0.00    +0.000 C 
ATOM     23  C   UNL     1       2.656   8.512  17.901  0.00  0.00    +0.000 C 
ENDBRANCH   3  21
BRANCH   4  24
ATOM     24  O   UNL     1       2.027   7.095  20.471  0.00  0.00    +0.000 OA
BRANCH  24  25
ATOM     25  C   UNL     1       1.371   5.818  20.453  0.00  0.00    +0.000 C 
BRANCH  25  26
ATOM     26  C   UNL     1       2.215   4.783  19.657  0.00  0.00    +0.000 C 
ATOM     27  C   UNL     1       3.710   5.191  19.648  0.00  0.00    +0.000 C 
ATOM     28  C   UNL     1       4.552   4.197  18.832  0.00  0.00    +0.000 C 
ATOM     29  C   UNL     1       4.440   2.803  19.465  0.00  0.00    +0.000 C 
ATOM     30  C   UNL     1       2.971   2.350  19.470  0.00  0.00    +0.000 C 
ATOM     31  C   UNL     1       2.450   2.297  18.025  0.00  0.00    +0.000 C 
ATOM     32  C   UNL     1       2.552   3.690  17.384  0.00  0.00    +0.000 C 
ATOM     33  C   UNL     1       4.020   4.144  17.389  0.00  0.00    +0.000 C 
ATOM     34  C   UNL     1       1.714   4.693  18.195  0.00  0.00    +0.000 C 
ATOM     35  C   UNL     1       2.115   3.357  20.270  0.00  0.00    +0.000 C 
ENDBRANCH  25  26
ENDBRANCH  24  25
ENDBRANCH   4  24
TORSDOF 7
ENDMDL
MODEL 2
REMARK VINA RESULT:      -8.6      0.756      1.159
REMARK  Name = 
REMARK  7 active torsions:
REMARK  status: ('A' for Active; 'I' for Inactive)
REMARK    1  A    between atoms: C_2  and  C_13
REMARK    2  A    between atoms: N_3  and  S_4
REMARK    3  A    between atoms: S_4  and  C_7
REMARK    4  A    between atoms: C_15  and  C_16
REMARK    5  A    between atoms: C_19  and  O_20
REMARK    6  A    between atoms: O_20  and  C_21
REMARK    7  A    between atoms: C_21  and  C_22
REMARK                            x       y       z     vdW  Elec       q    Type
REMARK                         _______ _______ _______ _____ _____    ______ ____
ROOT
ATOM      1  C   UNL     1      -0.243  10.921  21.760  0.00  0.00    +0.000 A 
ATOM      2  C   UNL     1       0.218  10.886  20.426  0.00  0.00    +0.000 A 
ATOM      3  C   UNL     1       0.931   9.773  19.903  0.00  0.00    +0.000 A 
ATOM      4  C   UNL     1       1.148   8.672  20.779  0.00  0.00    +0.000 A 
ATOM      5  C   UNL     1       0.660   8.711  22.098  0.00  0.00    +0.000 A 
ATOM      6  C   UNL     1      -0.034   9.819  22.564  0.00  0.00    +0.000 A 
ATOM      7  F   UNL     1      -0.442   9.812  23.851  0.00  0.00    +0.000 F 
ENDROOT
BRANCH   1   9
ATOM      8  O   UNL     1      -0.097  12.941  22.891  0.00  0.00    +0.000 OA
ATOM      9  C   UNL     1      -0.831  12.160  22.306  0.00  0.00    +0.000 C 
ATOM     10  N   UNL     1      -2.222  12.339  22.194  0.00  0.00    +0.000 N 
ATOM     11  H   UNL     1      -2.836  11.588  21.880  0.00  0.00    +0.000 HD
BRANCH  10  12
ATOM     12  S   UNL     1      -2.998  13.747  22.659  0.00  0.00    +0.000 S 
ATOM     13  O   UNL     1      -2.979  13.844  24.101  0.00  0.00    +0.000 OA
ATOM     14  O   UNL     1      -2.439  14.813  21.852  0.00  0.00    +0.000 OA
BRANCH  12  15
ATOM     15  C   UNL     1      -4.697  13.456  22.131  0.00  0.00    +0.000 C 
ATOM     16  C   UNL     1      -5.613  12.969  23.257  0.00  0.00    +0.000 C 
ATOM     17  C   UNL     1      -6.987  12.611  22.704  0.00  0.00    +0.000 C 
ATOM     18  O   UNL     1      -6.871  11.641  21.667  0.00  0.00    +0.000 OA
ATOM     19  C   UNL     1      -6.130  12.130  20.552  0.00  0.00    +0.000 C 
ATOM     20  C   UNL     1      -4.707  12.467  20.962  0.00  0.00    +0.000 C 
ENDBRANCH  12  15
ENDBRANCH  10  12
ENDBRANCH   1   9
BRANCH   3  21
ATOM     21  C   UNL     1       1.403   9.871  18.443  0.00  0.00    +0.000 C 
ATOM     22  C   UNL     1       2.281   8.836  17.789  0.00  0.00    +0.000 C 
ATOM     23  C   UNL     1       0.831   8.941  17.402  0.00  0.00    +0.000 C 
ENDBRANCH   3  21
BRANCH   4  24
ATOM     24  O   UNL     1       1.843   7.592  20.288  0.00  0.00    +0.000 OA
BRANCH  24  25
ATOM     25  C   UNL     1       1.632   6.288  20.853  0.00  0.00    +0.000 C 
BRANCH  25  26
ATOM     26  C   UNL     1       2.208   5.189  19.917  0.00  0.00    +0.000 C 
ATOM     27  C   UNL     1       3.740   5.359  19.758  0.00  0.00    +0.000 C 
ATOM     28  C   UNL     1       4.320   4.301  18.804  0.00  0.00    +0.000 C 
ATOM     29  C   UNL     1       4.050   2.904  19.377  0.00  0.00    +0.000 C 
ATOM     30  C   UNL     1       2.536   2.685  19.528  0.00  0.00    +0.000 C 
ATOM     31  C   UNL     1       1.865   2.810  18.151  0.00  0.00    +0.000 C 
ATOM     32  C   UNL     1       2.124   4.209  17.570  0.00  0.00    +0.000 C 
ATOM     33  C   UNL     1       3.639   4.428  17.430  0.00  0.00    +0.000 C 
ATOM     34  C   UNL     1       1.549   5.275  18.518  0.00  0.00    +0.000 C 
ATOM     35  C   UNL     1       1.943   3.759  20.467  0.00  0.00    +0.000 C 
ENDBRANCH  25  26
ENDBRANCH  24  25
ENDBRANCH   4  24
TORSDOF 7
ENDMDL
MODEL 3
REMARK VINA RESULT:      -8.6      0.302      1.347
REMARK  Name = 
REMARK  7 active torsions:
REMARK  status: ('A' for Active; 'I' for Inactive)
REMARK    1  A    between atoms: C_2  and  C_13
REMARK    2  A    between atoms: N_3  and  S_4
REMARK    3  A    between atoms: S_4  and  C_7
REMARK    4  A    between atoms: C_15  and  C_16
REMARK    5  A    between atoms: C_19  and  O_20
REMARK    6  A    between atoms: O_20  and  C_21
REMARK    7  A    between atoms: C_21  and  C_22
REMARK                            x       y       z     vdW  Elec       q    Type
REMARK                         _______ _______ _______ _____ _____    ______ ____
ROOT
ATOM      1  C   UNL     1      -0.236  10.701  21.661  0.00  0.00    +0.000 A 
ATOM      2  C   UNL     1       0.092  10.565  20.295  0.00  0.00    +0.000 A 
ATOM      3  C   UNL     1       0.827   9.452  19.802  0.00  0.00    +0.000 A 
ATOM      4  C   UNL     1       1.207   8.457  20.746  0.00  0.00    +0.000 A 
ATOM      5  C   UNL     1       0.851   8.593  22.100  0.00  0.00    +0.000 A 
ATOM      6  C   UNL     1       0.129   9.696  22.535  0.00  0.00    +0.000 A 
ATOM      7  F   UNL     1      -0.149   9.789  23.853  0.00  0.00    +0.000 F 
ENDROOT
BRANCH   1   9
ATOM      8  O   UNL     1      -0.124  12.888  22.424  0.00  0.00    +0.000 OA
ATOM      9  C   UNL     1      -0.853  11.948  22.152  0.00  0.00    +0.000 C 
ATOM     10  N   UNL     1      -2.246  11.963  22.357  0.00  0.00    +0.000 N 
ATOM     11  H   UNL     1      -2.804  11.111  22.312  0.00  0.00    +0.000 HD
BRANCH  10  12
ATOM     12  S   UNL     1      -3.086  13.343  22.792  0.00  0.00    +0.000 S 
ATOM     13  O   UNL     1      -2.739  13.700  24.148  0.00  0.00    +0.000 OA
ATOM     14  O   UNL     1      -2.898  14.297  21.718  0.00  0.00    +0.000 OA
BRANCH  12  15
ATOM     15  C   UNL     1      -4.800  12.785  22.771  0.00  0.00    +0.000 C 
ATOM     16  C   UNL     1      -5.399  12.699  21.365  0.00  0.00    +0.000 C 
ATOM     17  C   UNL     1      -6.883  12.361  21.441  0.00  0.00    +0.000 C 
ATOM     18  O   UNL     1      -7.572  13.314  22.246  0.00  0.00    +0.000 OA
ATOM     19  C   UNL     1      -7.114  13.311  23.596  0.00  0.00    +0.000 C 
ATOM     20  C   UNL     1      -5.647  13.699  23.663  0.00  0.00    +0.000 C 
ENDBRANCH  12  15
ENDBRANCH  10  12
ENDBRANCH   1   9
BRANCH   3  21
ATOM     21  C   UNL     1       1.145   9.437  18.298  0.00  0.00    +0.000 C 
ATOM     22  C   UNL     1       2.331  10.148  17.699  0.00  0.00    +0.000 C 
ATOM     23  C   UNL     1       2.324   8.647  17.785  0.00  0.00    +0.000 C 
ENDBRANCH   3  21
BRANCH   4  24
ATOM     24  O   UNL     1       1.925   7.379  20.285  0.00  0.00    +0.000 OA
BRANCH  24  25
ATOM     25  C   UNL     1       1.512   6.045  20.622  0.00  0.00    +0.000 C 
BRANCH  25  26
ATOM     26  C   UNL     1       2.284   5.002  19.767  0.00  0.00    +0.000 C 
ATOM     27  C   UNL     1       1.670   4.899  18.349  0.00  0.00    +0.000 C 
ATOM     28  C   UNL     1       2.400   3.842  17.503  0.00  0.00    +0.000 C 
ATOM     29  C   UNL     1       3.874   4.243  17.358  0.00  0.00    +0.000 C 
ATOM     30  C   UNL     1       4.528   4.333  18.746  0.00  0.00    +0.000 C 
ATOM     31  C   UNL     1       4.438   2.964  19.440  0.00  0.00    +0.000 C 
ATOM     32  C   UNL     1       2.965   2.556  19.596  0.00  0.00    +0.000 C 
ATOM     33  C   UNL     1       2.311   2.477  18.207  0.00  0.00    +0.000 C 
ATOM     34  C   UNL     1       2.224   3.608  20.440  0.00  0.00    +0.000 C 
ATOM     35  C   UNL     1       3.785   5.377  19.610  0.00  0.00    +0.000 C 
ENDBRANCH  25  26
ENDBRANCH  24  25
ENDBRANCH   4  24
TORSDOF 7
ENDMDL
MODEL 4
REMARK VINA RESULT:      -8.6      0.807      1.655
REMARK  Name = 
REMARK  7 active torsions:
REMARK  status: ('A' for Active; 'I' for Inactive)
REMARK    1  A    between atoms: C_2  and  C_13
REMARK    2  A    between atoms: N_3  and  S_4
REMARK    3  A    between atoms: S_4  and  C_7
REMARK    4  A    between atoms: C_15  and  C_16
REMARK    5  A    between atoms: C_19  and  O_20
REMARK    6  A    between atoms: O_20  and  C_21
REMARK    7  A    between atoms: C_21  and  C_22
REMARK                            x       y       z     vdW  Elec       q    Type
REMARK                         _______ _______ _______ _____ _____    ______ ____
ROOT
ATOM      1  C   UNL     1      -0.393  10.905  21.811  0.00  0.00    +0.000 A 
ATOM      2  C   UNL     1      -0.064  10.852  20.439  0.00  0.00    +0.000 A 
ATOM      3  C   UNL     1       0.611   9.739  19.867  0.00  0.00    +0.000 A 
ATOM      4  C   UNL     1       0.930   8.658  20.737  0.00  0.00    +0.000 A 
ATOM      5  C   UNL     1       0.574   8.715  22.096  0.00  0.00    +0.000 A 
ATOM      6  C   UNL     1      -0.089   9.821  22.609  0.00  0.00    +0.000 A 
ATOM      7  F   UNL     1      -0.369   9.833  23.930  0.00  0.00    +0.000 F 
ENDROOT
BRANCH   1   9
ATOM      8  O   UNL     1      -0.179  12.911  22.956  0.00  0.00    +0.000 OA
ATOM      9  C   UNL     1      -0.944  12.146  22.390  0.00  0.00    +0.000 C 
ATOM     10  N   UNL     1      -2.336  12.344  22.332  0.00  0.00    +0.000 N 
ATOM     11  H   UNL     1      -2.971  11.604  22.033  0.00  0.00    +0.000 HD
BRANCH  10  12
ATOM     12  S   UNL     1      -3.076  13.757  22.839  0.00  0.00    +0.000 S 
ATOM     13  O   UNL     1      -2.969  13.856  24.277  0.00  0.00    +0.000 OA
ATOM     14  O   UNL     1      -2.561  14.818  21.997  0.00  0.00    +0.000 OA
BRANCH  12  15
ATOM     15  C   UNL     1      -4.804  13.473  22.415  0.00  0.00    +0.000 C 
ATOM     16  C   UNL     1      -5.641  12.941  23.582  0.00  0.00    +0.000 C 
ATOM     17  C   UNL     1      -7.048  12.594  23.109  0.00  0.00    +0.000 C 
ATOM     18  O   UNL     1      -6.997  11.661  22.032  0.00  0.00    +0.000 OA
ATOM     19  C   UNL     1      -6.334  12.194  20.888  0.00  0.00    +0.000 C 
ATOM     20  C   UNL     1      -4.888  12.526  21.214  0.00  0.00    +0.000 C 
ENDBRANCH  12  15
ENDBRANCH  10  12
ENDBRANCH   1   9
BRANCH   3  21
ATOM     21  C   UNL     1       0.937   9.816  18.367  0.00  0.00    +0.000 C 
ATOM     22  C   UNL     1       2.057  10.654  17.809  0.00  0.00    +0.000 C 
ATOM     23  C   UNL     1       2.183   9.155  17.831  0.00  0.00    +0.000 C 
ENDBRANCH   3  21
BRANCH   4  24
ATOM     24  O   UNL     1       1.590   7.578  20.199  0.00  0.00    +0.000 OA
BRANCH  24  25
ATOM     25  C   UNL     1       1.738   6.373  20.967  0.00  0.00    +0.000 C 
BRANCH  25  26
ATOM     26  C   UNL     1       2.103   5.179  20.042  0.00  0.00    +0.000 C 
ATOM     27  C   UNL     1       1.558   5.412  18.611  0.00  0.00    +0.000 C 
ATOM     28  C   UNL     1       1.877   4.220  17.693  0.00  0.00    +0.000 C 
ATOM     29  C   UNL     1       3.400   4.048  17.604  0.00  0.00    +0.000 C 
ATOM     30  C   UNL     1       3.978   3.789  19.004  0.00  0.00    +0.000 C 
ATOM     31  C   UNL     1       3.354   2.510  19.584  0.00  0.00    +0.000 C 
ATOM     32  C   UNL     1       1.829   2.674  19.684  0.00  0.00    +0.000 C 
ATOM     33  C   UNL     1       1.255   2.943  18.284  0.00  0.00    +0.000 C 
ATOM     34  C   UNL     1       1.498   3.866  20.599  0.00  0.00    +0.000 C 
ATOM     35  C   UNL     1       3.641   4.973  19.938  0.00  0.00    +0.000 C 
ENDBRANCH  25  26
ENDBRANCH  24  25
ENDBRANCH   4  24
TORSDOF 7
ENDMDL
MODEL 5
REMARK VINA RESULT:      -8.5      0.392      1.349
REMARK  Name = 
REMARK  7 active torsions:
REMARK  status: ('A' for Active; 'I' for Inactive)
REMARK    1  A    between atoms: C_2  and  C_13
REMARK    2  A    between atoms: N_3  and  S_4
REMARK    3  A    between atoms: S_4  and  C_7
REMARK    4  A    between atoms: C_15  and  C_16
REMARK    5  A    between atoms: C_19  and  O_20
REMARK    6  A    between atoms: O_20  and  C_21
REMARK    7  A    between atoms: C_21  and  C_22
REMARK                            x       y       z     vdW  Elec       q    Type
REMARK                         _______ _______ _______ _____ _____    ______ ____
ROOT
ATOM      1  C   UNL     1      -0.221  10.747  21.648  0.00  0.00    +0.000 A 
ATOM      2  C   UNL     1       0.294  10.680  20.335  0.00  0.00    +0.000 A 
ATOM      3  C   UNL     1       1.055   9.569  19.879  0.00  0.00    +0.000 A 
ATOM      4  C   UNL     1       1.263   8.503  20.800  0.00  0.00    +0.000 A 
ATOM      5  C   UNL     1       0.721   8.573  22.096  0.00  0.00    +0.000 A 
ATOM      6  C   UNL     1      -0.018   9.677  22.497  0.00  0.00    +0.000 A 
ATOM      7  F   UNL     1      -0.478   9.703  23.766  0.00  0.00    +0.000 F 
ENDROOT
BRANCH   1   9
ATOM      8  O   UNL     1      -0.145  12.933  22.419  0.00  0.00    +0.000 OA
ATOM      9  C   UNL     1      -0.860  11.988  22.128  0.00  0.00    +0.000 C 
ATOM     10  N   UNL     1      -2.257  11.989  22.301  0.00  0.00    +0.000 N 
ATOM     11  H   UNL     1      -2.806  11.133  22.241  0.00  0.00    +0.000 HD
BRANCH  10  12
ATOM     12  S   UNL     1      -3.119  13.361  22.720  0.00  0.00    +0.000 S 
ATOM     13  O   UNL     1      -2.762  13.752  24.065  0.00  0.00    +0.000 OA
ATOM     14  O   UNL     1      -2.963  14.298  21.626  0.00  0.00    +0.000 OA
BRANCH  12  15
ATOM     15  C   UNL     1      -4.822  12.770  22.733  0.00  0.00    +0.000 C 
ATOM     16  C   UNL     1      -5.556  12.990  21.407  0.00  0.00    +0.000 C 
ATOM     17  C   UNL     1      -7.022  12.597  21.543  0.00  0.00    +0.000 C 
ATOM     18  O   UNL     1      -7.637  13.318  22.608  0.00  0.00    +0.000 OA
ATOM     19  C   UNL     1      -7.047  13.019  23.871  0.00  0.00    +0.000 C 
ATOM     20  C   UNL     1      -5.584  13.427  23.888  0.00  0.00    +0.000 C 
ENDBRANCH  12  15
ENDBRANCH  10  12
ENDBRANCH   1   9
BRANCH   3  21
ATOM     21  C   UNL     1       1.583   9.631  18.437  0.00  0.00    +0.000 C 
ATOM     22  C   UNL     1       2.273   8.474  17.761  0.00  0.00    +0.000 C 
ATOM     23  C   UNL     1       0.882   8.864  17.343  0.00  0.00    +0.000 C 
ENDBRANCH   3  21
BRANCH   4  24
ATOM     24  O   UNL     1       2.003   7.426  20.374  0.00  0.00    +0.000 OA
BRANCH  24  25
ATOM     25  C   UNL     1       1.570   6.091  20.685  0.00  0.00    +0.000 C 
BRANCH  25  26
ATOM     26  C   UNL     1       2.313   5.056  19.795  0.00  0.00    +0.000 C 
ATOM     27  C   UNL     1       2.324   3.663  20.474  0.00  0.00    +0.000 C 
ATOM     28  C   UNL     1       3.090   2.637  19.623  0.00  0.00    +0.000 C 
ATOM     29  C   UNL     1       2.401   2.499  18.259  0.00  0.00    +0.000 C 
ATOM     30  C   UNL     1       2.392   3.858  17.540  0.00  0.00    +0.000 C 
ATOM     31  C   UNL     1       3.839   4.335  17.335  0.00  0.00    +0.000 C 
ATOM     32  C   UNL     1       4.536   4.482  18.697  0.00  0.00    +0.000 C 
ATOM     33  C   UNL     1       4.535   3.124  19.417  0.00  0.00    +0.000 C 
ATOM     34  C   UNL     1       3.776   5.506  19.558  0.00  0.00    +0.000 C 
ATOM     35  C   UNL     1       1.644   4.901  18.401  0.00  0.00    +0.000 C 
ENDBRANCH  25  26
ENDBRANCH  24  25
ENDBRANCH   4  24
TORSDOF 7
ENDMDL
MODEL 6
REMARK VINA RESULT:      -8.3      4.524     10.463
REMARK  Name = 
REMARK  7 active torsions:
REMARK  status: ('A' for Active; 'I' for Inactive)
REMARK    1  A    between atoms: C_2  and  C_13
REMARK    2  A    between atoms: N_3  and  S_4
REMARK    3  A    between atoms: S_4  and  C_7
REMARK    4  A    between atoms: C_15  and  C_16
REMARK    5  A    between atoms: C_19  and  O_20
REMARK    6  A    between atoms: O_20  and  C_21
REMARK    7  A    between atoms: C_21  and  C_22
REMARK                            x       y       z     vdW  Elec       q    Type
REMARK                         _______ _______ _______ _____ _____    ______ ____
ROOT
ATOM      1  C   UNL     1       2.155   7.444  19.356  0.00  0.00    +0.000 A 
ATOM      2  C   UNL     1       1.683   7.807  20.636  0.00  0.00    +0.000 A 
ATOM      3  C   UNL     1       1.113   9.083  20.896  0.00  0.00    +0.000 A 
ATOM      4  C   UNL     1       1.016   9.986  19.800  0.00  0.00    +0.000 A 
ATOM      5  C   UNL     1       1.467   9.600  18.524  0.00  0.00    +0.000 A 
ATOM      6  C   UNL     1       2.014   8.342  18.317  0.00  0.00    +0.000 A 
ATOM      7  F   UNL     1       2.465   8.045  17.079  0.00  0.00    +0.000 F 
ENDROOT
BRANCH   1   9
ATOM      8  O   UNL     1       2.254   5.182  18.852  0.00  0.00    +0.000 OA
ATOM      9  C   UNL     1       2.887   6.176  19.172  0.00  0.00    +0.000 C 
ATOM     10  N   UNL     1       4.266   6.159  19.453  0.00  0.00    +0.000 N 
ATOM     11  H   UNL     1       4.731   6.945  19.905  0.00  0.00    +0.000 HD
BRANCH  10  12
ATOM     12  S   UNL     1       5.236   4.825  19.170  0.00  0.00    +0.000 S 
ATOM     13  O   UNL     1       6.540   5.057  19.748  0.00  0.00    +0.000 OA
ATOM     14  O   UNL     1       4.464   3.663  19.563  0.00  0.00    +0.000 OA
BRANCH  12  15
ATOM     15  C   UNL     1       5.399   4.827  17.375  0.00  0.00    +0.000 C 
ATOM     16  C   UNL     1       6.761   4.327  16.884  0.00  0.00    +0.000 C 
ATOM     17  C   UNL     1       6.872   4.493  15.373  0.00  0.00    +0.000 C 
ATOM     18  O   UNL     1       6.647   5.850  15.002  0.00  0.00    +0.000 OA
ATOM     19  C   UNL     1       5.332   6.289  15.335  0.00  0.00    +0.000 C 
ATOM     20  C   UNL     1       5.114   6.232  16.837  0.00  0.00    +0.000 C 
ENDBRANCH  12  15
ENDBRANCH  10  12
ENDBRANCH   1   9
BRANCH   3  21
ATOM     21  C   UNL     1       0.663   9.365  22.339  0.00  0.00    +0.000 C 
ATOM     22  C   UNL     1      -0.380  10.393  22.691  0.00  0.00    +0.000 C 
ATOM     23  C   UNL     1      -0.705   8.929  22.801  0.00  0.00    +0.000 C 
ENDBRANCH   3  21
BRANCH   4  24
ATOM     24  O   UNL     1       0.473  11.226  20.038  0.00  0.00    +0.000 OA
BRANCH  24  25
ATOM     25  C   UNL     1       0.319  12.161  18.958  0.00  0.00    +0.000 C 
BRANCH  25  26
ATOM     26  C   UNL     1       1.278  13.370  19.143  0.00  0.00    +0.000 C 
ATOM     27  C   UNL     1       1.775  13.452  20.608  0.00  0.00    +0.000 C 
ATOM     28  C   UNL     1       2.695  14.667  20.815  0.00  0.00    +0.000 C 
ATOM     29  C   UNL     1       3.920  14.532  19.901  0.00  0.00    +0.000 C 
ATOM     30  C   UNL     1       3.471  14.473  18.432  0.00  0.00    +0.000 C 
ATOM     31  C   UNL     1       2.711  15.761  18.080  0.00  0.00    +0.000 C 
ATOM     32  C   UNL     1       1.478  15.902  18.987  0.00  0.00    +0.000 C 
ATOM     33  C   UNL     1       1.930  15.952  20.455  0.00  0.00    +0.000 C 
ATOM     34  C   UNL     1       0.550  14.691  18.788  0.00  0.00    +0.000 C 
ATOM     35  C   UNL     1       2.527  13.267  18.222  0.00  0.00    +0.000 C 
ENDBRANCH  25  26
ENDBRANCH  24  25
ENDBRANCH   4  24
TORSDOF 7
ENDMDL
MODEL 7
REMARK VINA RESULT:      -8.3      0.951      1.834
REMARK  Name = 
REMARK  7 active torsions:
REMARK  status: ('A' for Active; 'I' for Inactive)
REMARK    1  A    between atoms: C_2  and  C_13
REMARK    2  A    between atoms: N_3  and  S_4
REMARK    3  A    between atoms: S_4  and  C_7
REMARK    4  A    between atoms: C_15  and  C_16
REMARK    5  A    between atoms: C_19  and  O_20
REMARK    6  A    between atoms: O_20  and  C_21
REMARK    7  A    between atoms: C_21  and  C_22
REMARK                            x       y       z     vdW  Elec       q    Type
REMARK                         _______ _______ _______ _____ _____    ______ ____
ROOT
ATOM      1  C   UNL     1      -0.155  10.457  21.681  0.00  0.00    +0.000 A 
ATOM      2  C   UNL     1       0.161  10.345  20.310  0.00  0.00    +0.000 A 
ATOM      3  C   UNL     1       0.892   9.241  19.792  0.00  0.00    +0.000 A 
ATOM      4  C   UNL     1       1.281   8.230  20.715  0.00  0.00    +0.000 A 
ATOM      5  C   UNL     1       0.935   8.343  22.074  0.00  0.00    +0.000 A 
ATOM      6  C   UNL     1       0.218   9.438  22.534  0.00  0.00    +0.000 A 
ATOM      7  F   UNL     1      -0.049   9.508  23.856  0.00  0.00    +0.000 F 
ENDROOT
BRANCH   1   9
ATOM      8  O   UNL     1      -1.071  11.744  23.380  0.00  0.00    +0.000 OA
ATOM      9  C   UNL     1      -0.769  11.696  22.198  0.00  0.00    +0.000 C 
ATOM     10  N   UNL     1      -1.049  12.729  21.284  0.00  0.00    +0.000 N 
ATOM     11  H   UNL     1      -0.971  12.590  20.278  0.00  0.00    +0.000 HD
BRANCH  10  12
ATOM     12  S   UNL     1      -1.629  14.227  21.754  0.00  0.00    +0.000 S 
ATOM     13  O   UNL     1      -1.171  14.511  23.095  0.00  0.00    +0.000 OA
ATOM     14  O   UNL     1      -1.327  15.144  20.674  0.00  0.00    +0.000 OA
BRANCH  12  15
ATOM     15  C   UNL     1      -3.411  13.963  21.804  0.00  0.00    +0.000 C 
ATOM     16  C   UNL     1      -3.935  13.586  23.193  0.00  0.00    +0.000 C 
ATOM     17  C   UNL     1      -5.418  13.242  23.123  0.00  0.00    +0.000 C 
ATOM     18  O   UNL     1      -5.646  12.201  22.177  0.00  0.00    +0.000 OA
ATOM     19  C   UNL     1      -5.285  12.589  20.853  0.00  0.00    +0.000 C 
ATOM     20  C   UNL     1      -3.801  12.900  20.773  0.00  0.00    +0.000 C 
ENDBRANCH  12  15
ENDBRANCH  10  12
ENDBRANCH   1   9
BRANCH   3  21
ATOM     21  C   UNL     1       1.197   9.252  18.285  0.00  0.00    +0.000 C 
ATOM     22  C   UNL     1       2.234  10.149  17.660  0.00  0.00    +0.000 C 
ATOM     23  C   UNL     1       2.493   8.672  17.774  0.00  0.00    +0.000 C 
ENDBRANCH   3  21
BRANCH   4  24
ATOM     24  O   UNL     1       1.995   7.160  20.230  0.00  0.00    +0.000 OA
BRANCH  24  25
ATOM     25  C   UNL     1       1.666   5.827  20.653  0.00  0.00    +0.000 C 
BRANCH  25  26
ATOM     26  C   UNL     1       2.357   4.779  19.738  0.00  0.00    +0.000 C 
ATOM     27  C   UNL     1       1.786   4.851  18.299  0.00  0.00    +0.000 C 
ATOM     28  C   UNL     1       2.433   3.792  17.391  0.00  0.00    +0.000 C 
ATOM     29  C   UNL     1       3.945   4.047  17.319  0.00  0.00    +0.000 C 
ATOM     30  C   UNL     1       4.555   3.958  18.727  0.00  0.00    +0.000 C 
ATOM     31  C   UNL     1       4.301   2.557  19.305  0.00  0.00    +0.000 C 
ATOM     32  C   UNL     1       2.788   2.295  19.387  0.00  0.00    +0.000 C 
ATOM     33  C   UNL     1       2.179   2.394  17.979  0.00  0.00    +0.000 C 
ATOM     34  C   UNL     1       2.130   3.350  20.293  0.00  0.00    +0.000 C 
ATOM     35  C   UNL     1       3.893   5.004  19.652  0.00  0.00    +0.000 C 
ENDBRANCH  25  26
ENDBRANCH  24  25
ENDBRANCH   4  24
TORSDOF 7
ENDMDL
MODEL 8
REMARK VINA RESULT:      -8.2      4.535     10.621
REMARK  Name = 
REMARK  7 active torsions:
REMARK  status: ('A' for Active; 'I' for Inactive)
REMARK    1  A    between atoms: C_2  and  C_13
REMARK    2  A    between atoms: N_3  and  S_4
REMARK    3  A    between atoms: S_4  and  C_7
REMARK    4  A    between atoms: C_15  and  C_16
REMARK    5  A    between atoms: C_19  and  O_20
REMARK    6  A    between atoms: O_20  and  C_21
REMARK    7  A    between atoms: C_21  and  C_22
REMARK                            x       y       z     vdW  Elec       q    Type
REMARK                         _______ _______ _______ _____ _____    ______ ____
ROOT
ATOM      1  C   UNL     1       2.206   7.503  19.214  0.00  0.00    +0.000 A 
ATOM      2  C   UNL     1       1.739   7.815  20.510  0.00  0.00    +0.000 A 
ATOM      3  C   UNL     1       1.156   9.074  20.819  0.00  0.00    +0.000 A 
ATOM      4  C   UNL     1       1.041  10.014  19.756  0.00  0.00    +0.000 A 
ATOM      5  C   UNL     1       1.487   9.679  18.465  0.00  0.00    +0.000 A 
ATOM      6  C   UNL     1       2.047   8.435  18.209  0.00  0.00    +0.000 A 
ATOM      7  F   UNL     1       2.493   8.189  16.958  0.00  0.00    +0.000 F 
ENDROOT
BRANCH   1   9
ATOM      8  O   UNL     1       2.359   5.309  18.476  0.00  0.00    +0.000 OA
ATOM      9  C   UNL     1       2.951   6.251  18.980  0.00  0.00    +0.000 C 
ATOM     10  N   UNL     1       4.285   6.180  19.423  0.00  0.00    +0.000 N 
ATOM     11  H   UNL     1       4.693   6.903  20.014  0.00  0.00    +0.000 HD
BRANCH  10  12
ATOM     12  S   UNL     1       5.278   4.869  19.114  0.00  0.00    +0.000 S 
ATOM     13  O   UNL     1       6.525   5.042  19.822  0.00  0.00    +0.000 OA
ATOM     14  O   UNL     1       4.475   3.682  19.334  0.00  0.00    +0.000 OA
BRANCH  12  15
ATOM     15  C   UNL     1       5.600   5.025  17.347  0.00  0.00    +0.000 C 
ATOM     16  C   UNL     1       4.778   4.059  16.488  0.00  0.00    +0.000 C 
ATOM     17  C   UNL     1       5.208   4.153  15.029  0.00  0.00    +0.000 C 
ATOM     18  O   UNL     1       6.606   3.905  14.903  0.00  0.00    +0.000 OA
ATOM     19  C   UNL     1       7.389   4.878  15.591  0.00  0.00    +0.000 C 
ATOM     20  C   UNL     1       7.097   4.843  17.081  0.00  0.00    +0.000 C 
ENDBRANCH  12  15
ENDBRANCH  10  12
ENDBRANCH   1   9
BRANCH   3  21
ATOM     21  C   UNL     1       0.713   9.299  22.274  0.00  0.00    +0.000 C 
ATOM     22  C   UNL     1      -0.311  10.328  22.674  0.00  0.00    +0.000 C 
ATOM     23  C   UNL     1      -0.662   8.867  22.719  0.00  0.00    +0.000 C 
ENDBRANCH   3  21
BRANCH   4  24
ATOM     24  O   UNL     1       0.486  11.239  20.043  0.00  0.00    +0.000 OA
BRANCH  24  25
ATOM     25  C   UNL     1       0.300  12.204  18.995  0.00  0.00    +0.000 C 
BRANCH  25  26
ATOM     26  C   UNL     1       1.256  13.414  19.194  0.00  0.00    +0.000 C 
ATOM     27  C   UNL     1       0.519  14.744  18.899  0.00  0.00    +0.000 C 
ATOM     28  C   UNL     1       1.463  15.948  19.053  0.00  0.00    +0.000 C 
ATOM     29  C   UNL     1       1.982  15.999  20.497  0.00  0.00    +0.000 C 
ATOM     30  C   UNL     1       2.744  14.703  20.822  0.00  0.00    +0.000 C 
ATOM     31  C   UNL     1       3.931  14.555  19.857  0.00  0.00    +0.000 C 
ATOM     32  C   UNL     1       3.421  14.498  18.409  0.00  0.00    +0.000 C 
ATOM     33  C   UNL     1       2.652  15.789  18.090  0.00  0.00    +0.000 C 
ATOM     34  C   UNL     1       2.473  13.297  18.243  0.00  0.00    +0.000 C 
ATOM     35  C   UNL     1       1.807  13.487  20.646  0.00  0.00    +0.000 C 
ENDBRANCH  25  26
ENDBRANCH  24  25
ENDBRANCH   4  24
TORSDOF 7
ENDMDL
MODEL 9
REMARK VINA RESULT:      -8.2      4.400      9.960
REMARK  Name = 
REMARK  7 active torsions:
REMARK  status: ('A' for Active; 'I' for Inactive)
REMARK    1  A    between atoms: C_2  and  C_13
REMARK    2  A    between atoms: N_3  and  S_4
REMARK    3  A    between atoms: S_4  and  C_7
REMARK    4  A    between atoms: C_15  and  C_16
REMARK    5  A    between atoms: C_19  and  O_20
REMARK    6  A    between atoms: O_20  and  C_21
REMARK    7  A    between atoms: C_21  and  C_22
REMARK                            x       y       z     vdW  Elec       q    Type
REMARK                         _______ _______ _______ _____ _____    ______ ____
ROOT
ATOM      1  C   UNL     1       2.187   7.545  19.123  0.00  0.00    +0.000 A 
ATOM      2  C   UNL     1       1.716   7.833  20.423  0.00  0.00    +0.000 A 
ATOM      3  C   UNL     1       1.178   9.103  20.766  0.00  0.00    +0.000 A 
ATOM      4  C   UNL     1       1.114  10.080  19.733  0.00  0.00    +0.000 A 
ATOM      5  C   UNL     1       1.563   9.770  18.437  0.00  0.00    +0.000 A 
ATOM      6  C   UNL     1       2.078   8.514  18.147  0.00  0.00    +0.000 A 
ATOM      7  F   UNL     1       2.529   8.291  16.894  0.00  0.00    +0.000 F 
ENDROOT
BRANCH   1   9
ATOM      8  O   UNL     1       4.010   6.122  19.309  0.00  0.00    +0.000 OA
ATOM      9  C   UNL     1       2.886   6.272  18.857  0.00  0.00    +0.000 C 
ATOM     10  N   UNL     1       2.252   5.329  18.026  0.00  0.00    +0.000 N 
ATOM     11  H   UNL     1       1.408   5.556  17.503  0.00  0.00    +0.000 HD
BRANCH  10  12
ATOM     12  S   UNL     1       2.877   3.802  17.743  0.00  0.00    +0.000 S 
ATOM     13  O   UNL     1       2.141   3.184  16.663  0.00  0.00    +0.000 OA
ATOM     14  O   UNL     1       4.315   3.955  17.648  0.00  0.00    +0.000 OA
BRANCH  12  15
ATOM     15  C   UNL     1       2.491   2.927  19.270  0.00  0.00    +0.000 C 
ATOM     16  C   UNL     1       1.404   3.607  20.107  0.00  0.00    +0.000 C 
ATOM     17  C   UNL     1       1.236   2.889  21.441  0.00  0.00    +0.000 C 
ATOM     18  O   UNL     1       2.478   2.835  22.139  0.00  0.00    +0.000 OA
ATOM     19  C   UNL     1       3.463   2.088  21.428  0.00  0.00    +0.000 C 
ATOM     20  C   UNL     1       3.769   2.743  20.092  0.00  0.00    +0.000 C 
ENDBRANCH  12  15
ENDBRANCH  10  12
ENDBRANCH   1   9
BRANCH   3  21
ATOM     21  C   UNL     1       0.726   9.299  22.222  0.00  0.00    +0.000 C 
ATOM     22  C   UNL     1      -0.304  10.317  22.636  0.00  0.00    +0.000 C 
ATOM     23  C   UNL     1      -0.650   8.853  22.650  0.00  0.00    +0.000 C 
ENDBRANCH   3  21
BRANCH   4  24
ATOM     24  O   UNL     1       0.603  11.316  20.053  0.00  0.00    +0.000 OA
BRANCH  24  25
ATOM     25  C   UNL     1       0.353  12.279  19.016  0.00  0.00    +0.000 C 
BRANCH  25  26
ATOM     26  C   UNL     1       1.289  13.509  19.177  0.00  0.00    +0.000 C 
ATOM     27  C   UNL     1       2.502  13.399  18.220  0.00  0.00    +0.000 C 
ATOM     28  C   UNL     1       3.458  14.591  18.396  0.00  0.00    +0.000 C 
ATOM     29  C   UNL     1       2.708  15.890  18.070  0.00  0.00    +0.000 C 
ATOM     30  C   UNL     1       1.508  16.049  19.017  0.00  0.00    +0.000 C 
ATOM     31  C   UNL     1       2.008  16.100  20.469  0.00  0.00    +0.000 C 
ATOM     32  C   UNL     1       2.755  14.800  20.807  0.00  0.00    +0.000 C 
ATOM     33  C   UNL     1       3.949  14.639  19.853  0.00  0.00    +0.000 C 
ATOM     34  C   UNL     1       1.808  13.600  20.633  0.00  0.00    +0.000 C 
ATOM     35  C   UNL     1       0.555  14.843  18.862  0.00  0.00    +0.000 C 
ENDBRANCH  25  26
ENDBRANCH  24  25
ENDBRANCH   4  24
TORSDOF 7
ENDMDL
