MODEL 1
REMARK VINA RESULT:      -8.1      0.000      0.000
REMARK  Name = 
REMARK  4 active torsions:
REMARK  status: ('A' for Active; 'I' for Inactive)
REMARK    1  A    between atoms: C_2  and  C_23
REMARK    2  A    between atoms: N_3  and  C_4
REMARK    3  A    between atoms: C_7  and  O_8
REMARK    4  A    between atoms: C_13  and  C_14
REMARK                            x       y       z     vdW  Elec       q    Type
REMARK                         _______ _______ _______ _____ _____    ______ ____
ROOT
ATOM      1  C   UNL     1       6.621   6.458  17.091  0.00  0.00    +0.000 A 
ATOM      2  C   UNL     1       7.460   5.446  16.614  0.00  0.00    +0.000 A 
ATOM      3  C   UNL     1       6.959   4.178  16.325  0.00  0.00    +0.000 A 
ATOM      4  C   UNL     1       5.607   3.904  16.510  0.00  0.00    +0.000 A 
ATOM      5  C   UNL     1       4.749   4.890  17.015  0.00  0.00    +0.000 A 
ATOM      6  C   UNL     1       3.301   4.654  17.212  0.00  0.00    +0.000 A 
ATOM      7  O   UNL     1       2.720   3.606  16.959  0.00  0.00    +0.000 OA
ATOM      8  C   UNL     1       2.519   5.776  17.753  0.00  0.00    +0.000 A 
ATOM      9  C   UNL     1       3.138   6.924  18.039  0.00  0.00    +0.000 A 
ATOM     10  O   UNL     1       4.483   7.170  17.847  0.00  0.00    +0.000 OA
ATOM     11  C   UNL     1       5.266   6.158  17.326  0.00  0.00    +0.000 A 
ENDROOT
BRANCH   9  12
ATOM     12  C   UNL     1       2.386   8.052  18.606  0.00  0.00    +0.000 A 
ATOM     13  C   UNL     1       2.309   9.244  17.866  0.00  0.00    +0.000 A 
ATOM     14  C   UNL     1       1.606  10.344  18.362  0.00  0.00    +0.000 A 
ATOM     15  C   UNL     1       0.975  10.268  19.602  0.00  0.00    +0.000 A 
ATOM     16  C   UNL     1       1.055   9.095  20.352  0.00  0.00    +0.000 A 
ATOM     17  C   UNL     1       1.758   7.991  19.860  0.00  0.00    +0.000 A 
ATOM     18 CL   UNL     1       1.827   6.571  20.844  0.00  0.00    +0.000 Cl
ENDBRANCH   9  12
BRANCH   1  21
ATOM     19  O   UNL     1       8.675   7.361  18.994  0.00  0.00    +0.000 OA
ATOM     20  C   UNL     1       8.058   8.124  18.258  0.00  0.00    +0.000 C 
ATOM     21  N   UNL     1       7.089   7.776  17.332  0.00  0.00    +0.000 N 
ATOM     22  H   UNL     1       6.814   8.464  16.639  0.00  0.00    +0.000 HD
BRANCH  20  23
ATOM     23  C   UNL     1       8.427   9.559  18.316  0.00  0.00    +0.000 A 
ATOM     24  C   UNL     1       9.465   9.932  19.181  0.00  0.00    +0.000 A 
ATOM     25  C   UNL     1       9.806  11.275  19.314  0.00  0.00    +0.000 A 
ATOM     26 CL   UNL     1      11.083  11.729  20.374  0.00  0.00    +0.000 Cl
ATOM     27  C   UNL     1       9.117  12.252  18.603  0.00  0.00    +0.000 A 
ATOM     28  C   UNL     1       8.075  11.873  17.755  0.00  0.00    +0.000 A 
ATOM     29 CL   UNL     1       7.199  13.082  16.898  0.00  0.00    +0.000 Cl
ATOM     30  C   UNL     1       7.723  10.531  17.602  0.00  0.00    +0.000 A 
ENDBRANCH  20  23
ENDBRANCH   1  21
BRANCH   4  31
ATOM     31  O   UNL     1       5.147   2.658  16.196  0.00  0.00    +0.000 OA
ATOM     32  H   UNL     1       5.551   1.992  16.776  0.00  0.00    +0.000 HD
ENDBRANCH   4  31
TORSDOF 4
ENDMDL
MODEL 2
REMARK VINA RESULT:      -7.6      0.172      1.654
REMARK  Name = 
REMARK  4 active torsions:
REMARK  status: ('A' for Active; 'I' for Inactive)
REMARK    1  A    between atoms: C_2  and  C_23
REMARK    2  A    between atoms: N_3  and  C_4
REMARK    3  A    between atoms: C_7  and  O_8
REMARK    4  A    between atoms: C_13  and  C_14
REMARK                            x       y       z     vdW  Elec       q    Type
REMARK                         _______ _______ _______ _____ _____    ______ ____
ROOT
ATOM      1  C   UNL     1       6.704   6.433  17.082  0.00  0.00    +0.000 A 
ATOM      2  C   UNL     1       7.556   5.454  16.562  0.00  0.00    +0.000 A 
ATOM      3  C   UNL     1       7.070   4.199  16.201  0.00  0.00    +0.000 A 
ATOM      4  C   UNL     1       5.719   3.904  16.358  0.00  0.00    +0.000 A 
ATOM      5  C   UNL     1       4.846   4.855  16.905  0.00  0.00    +0.000 A 
ATOM      6  C   UNL     1       3.398   4.598  17.073  0.00  0.00    +0.000 A 
ATOM      7  O   UNL     1       2.830   3.559  16.759  0.00  0.00    +0.000 OA
ATOM      8  C   UNL     1       2.601   5.683  17.664  0.00  0.00    +0.000 A 
ATOM      9  C   UNL     1       3.207   6.820  18.016  0.00  0.00    +0.000 A 
ATOM     10  O   UNL     1       4.552   7.087  17.851  0.00  0.00    +0.000 OA
ATOM     11  C   UNL     1       5.349   6.110  17.287  0.00  0.00    +0.000 A 
ENDROOT
BRANCH   9  12
ATOM     12  C   UNL     1       2.439   7.910  18.632  0.00  0.00    +0.000 A 
ATOM     13  C   UNL     1       2.290   9.111  17.918  0.00  0.00    +0.000 A 
ATOM     14  C   UNL     1       1.569  10.176  18.461  0.00  0.00    +0.000 A 
ATOM     15  C   UNL     1       0.993  10.057  19.724  0.00  0.00    +0.000 A 
ATOM     16  C   UNL     1       1.144   8.875  20.449  0.00  0.00    +0.000 A 
ATOM     17  C   UNL     1       1.865   7.805  19.909  0.00  0.00    +0.000 A 
ATOM     18 CL   UNL     1       2.024   6.372  20.864  0.00  0.00    +0.000 Cl
ENDBRANCH   9  12
BRANCH   1  21
ATOM     19  O   UNL     1       8.716   7.254  19.064  0.00  0.00    +0.000 OA
ATOM     20  C   UNL     1       8.107   8.049  18.356  0.00  0.00    +0.000 C 
ATOM     21  N   UNL     1       7.158   7.740  17.397  0.00  0.00    +0.000 N 
ATOM     22  H   UNL     1       6.890   8.461  16.733  0.00  0.00    +0.000 HD
BRANCH  20  23
ATOM     23  C   UNL     1       8.464   9.481  18.492  0.00  0.00    +0.000 A 
ATOM     24  C   UNL     1       7.781  10.404  17.689  0.00  0.00    +0.000 A 
ATOM     25  C   UNL     1       8.124  11.752  17.739  0.00  0.00    +0.000 A 
ATOM     26 CL   UNL     1       7.280  12.883  16.754  0.00  0.00    +0.000 Cl
ATOM     27  C   UNL     1       9.149  12.190  18.572  0.00  0.00    +0.000 A 
ATOM     28  C   UNL     1       9.833  11.262  19.359  0.00  0.00    +0.000 A 
ATOM     29 CL   UNL     1      11.123  11.795  20.367  0.00  0.00    +0.000 Cl
ATOM     30  C   UNL     1       9.499   9.907  19.328  0.00  0.00    +0.000 A 
ENDBRANCH  20  23
ENDBRANCH   1  21
BRANCH   4  31
ATOM     31  O   UNL     1       5.273   2.673  15.974  0.00  0.00    +0.000 OA
ATOM     32  H   UNL     1       6.019   2.063  15.862  0.00  0.00    +0.000 HD
ENDBRANCH   4  31
TORSDOF 4
ENDMDL
MODEL 3
REMARK VINA RESULT:      -7.1      7.705     10.763
REMARK  Name = 
REMARK  4 active torsions:
REMARK  status: ('A' for Active; 'I' for Inactive)
REMARK    1  A    between atoms: C_2  and  C_23
REMARK    2  A    between atoms: N_3  and  C_4
REMARK    3  A    between atoms: C_7  and  O_8
REMARK    4  A    between atoms: C_13  and  C_14
REMARK                            x       y       z     vdW  Elec       q    Type
REMARK                         _______ _______ _______ _____ _____    ______ ____
ROOT
ATOM      1  C   UNL     1      -0.961  12.264  20.561  0.00  0.00    +0.000 A 
ATOM      2  C   UNL     1       0.353  11.794  20.647  0.00  0.00    +0.000 A 
ATOM      3  C   UNL     1       0.859  10.903  19.703  0.00  0.00    +0.000 A 
ATOM      4  C   UNL     1       0.053  10.466  18.655  0.00  0.00    +0.000 A 
ATOM      5  C   UNL     1      -1.278  10.896  18.560  0.00  0.00    +0.000 A 
ATOM      6  C   UNL     1      -2.168  10.477  17.455  0.00  0.00    +0.000 A 
ATOM      7  O   UNL     1      -1.844   9.735  16.536  0.00  0.00    +0.000 OA
ATOM      8  C   UNL     1      -3.542  11.001  17.483  0.00  0.00    +0.000 A 
ATOM      9  C   UNL     1      -3.913  11.807  18.481  0.00  0.00    +0.000 A 
ATOM     10  O   UNL     1      -3.093  12.224  19.511  0.00  0.00    +0.000 OA
ATOM     11  C   UNL     1      -1.786  11.777  19.530  0.00  0.00    +0.000 A 
ENDROOT
BRANCH   9  12
ATOM     12  C   UNL     1      -5.287  12.323  18.546  0.00  0.00    +0.000 A 
ATOM     13  C   UNL     1      -5.971  12.561  17.343  0.00  0.00    +0.000 A 
ATOM     14  C   UNL     1      -7.278  13.051  17.352  0.00  0.00    +0.000 A 
ATOM     15  C   UNL     1      -7.916  13.314  18.563  0.00  0.00    +0.000 A 
ATOM     16  C   UNL     1      -7.243  13.094  19.765  0.00  0.00    +0.000 A 
ATOM     17  C   UNL     1      -5.934  12.604  19.760  0.00  0.00    +0.000 A 
ATOM     18 CL   UNL     1      -5.154  12.364  21.285  0.00  0.00    +0.000 Cl
ENDBRANCH   9  12
BRANCH   1  21
ATOM     19  O   UNL     1      -1.279  12.048  23.477  0.00  0.00    +0.000 OA
ATOM     20  C   UNL     1      -1.611  13.040  22.837  0.00  0.00    +0.000 C 
ATOM     21  N   UNL     1      -1.483  13.221  21.470  0.00  0.00    +0.000 N 
ATOM     22  H   UNL     1      -1.589  14.158  21.095  0.00  0.00    +0.000 HD
BRANCH  20  23
ATOM     23  C   UNL     1      -2.144  14.190  23.606  0.00  0.00    +0.000 A 
ATOM     24  C   UNL     1      -1.285  14.824  24.513  0.00  0.00    +0.000 A 
ATOM     25  C   UNL     1      -1.759  15.869  25.301  0.00  0.00    +0.000 A 
ATOM     26 CL   UNL     1      -0.701  16.648  26.411  0.00  0.00    +0.000 Cl
ATOM     27  C   UNL     1      -3.084  16.283  25.202  0.00  0.00    +0.000 A 
ATOM     28  C   UNL     1      -3.936  15.637  24.305  0.00  0.00    +0.000 A 
ATOM     29 CL   UNL     1      -5.584  16.125  24.203  0.00  0.00    +0.000 Cl
ATOM     30  C   UNL     1      -3.477  14.592  23.501  0.00  0.00    +0.000 A 
ENDBRANCH  20  23
ENDBRANCH   1  21
BRANCH   4  31
ATOM     31  O   UNL     1       0.588   9.611  17.736  0.00  0.00    +0.000 OA
ATOM     32  H   UNL     1       1.020   8.864  18.181  0.00  0.00    +0.000 HD
ENDBRANCH   4  31
TORSDOF 4
ENDMDL
MODEL 4
REMARK VINA RESULT:      -7.0      7.798     11.046
REMARK  Name = 
REMARK  4 active torsions:
REMARK  status: ('A' for Active; 'I' for Inactive)
REMARK    1  A    between atoms: C_2  and  C_23
REMARK    2  A    between atoms: N_3  and  C_4
REMARK    3  A    between atoms: C_7  and  O_8
REMARK    4  A    between atoms: C_13  and  C_14
REMARK                            x       y       z     vdW  Elec       q    Type
REMARK                         _______ _______ _______ _____ _____    ______ ____
ROOT
ATOM      1  C   UNL     1      -1.028  12.254  20.716  0.00  0.00    +0.000 A 
ATOM      2  C   UNL     1       0.282  11.780  20.830  0.00  0.00    +0.000 A 
ATOM      3  C   UNL     1       0.816  10.912  19.880  0.00  0.00    +0.000 A 
ATOM      4  C   UNL     1       0.041  10.502  18.798  0.00  0.00    +0.000 A 
ATOM      5  C   UNL     1      -1.285  10.937  18.673  0.00  0.00    +0.000 A 
ATOM      6  C   UNL     1      -2.143  10.546  17.532  0.00  0.00    +0.000 A 
ATOM      7  O   UNL     1      -1.791   9.827  16.605  0.00  0.00    +0.000 OA
ATOM      8  C   UNL     1      -3.516  11.072  17.530  0.00  0.00    +0.000 A 
ATOM      9  C   UNL     1      -3.916  11.854  18.536  0.00  0.00    +0.000 A 
ATOM     10  O   UNL     1      -3.127  12.244  19.600  0.00  0.00    +0.000 OA
ATOM     11  C   UNL     1      -1.823  11.794  19.648  0.00  0.00    +0.000 A 
ENDROOT
BRANCH   9  12
ATOM     12  C   UNL     1      -5.291  12.371  18.573  0.00  0.00    +0.000 A 
ATOM     13  C   UNL     1      -5.918  12.691  17.357  0.00  0.00    +0.000 A 
ATOM     14  C   UNL     1      -7.224  13.185  17.339  0.00  0.00    +0.000 A 
ATOM     15  C   UNL     1      -7.916  13.370  18.535  0.00  0.00    +0.000 A 
ATOM     16  C   UNL     1      -7.300  13.069  19.749  0.00  0.00    +0.000 A 
ATOM     17  C   UNL     1      -5.993  12.573  19.771  0.00  0.00    +0.000 A 
ATOM     18 CL   UNL     1      -5.284  12.230  21.311  0.00  0.00    +0.000 Cl
ENDBRANCH   9  12
BRANCH   1  21
ATOM     19  O   UNL     1      -2.090  11.777  23.417  0.00  0.00    +0.000 OA
ATOM     20  C   UNL     1      -2.068  12.884  22.890  0.00  0.00    +0.000 C 
ATOM     21  N   UNL     1      -1.577  13.189  21.632  0.00  0.00    +0.000 N 
ATOM     22  H   UNL     1      -1.416  14.164  21.400  0.00  0.00    +0.000 HD
BRANCH  20  23
ATOM     23  C   UNL     1      -2.558  14.025  23.700  0.00  0.00    +0.000 A 
ATOM     24  C   UNL     1      -3.873  14.460  23.487  0.00  0.00    +0.000 A 
ATOM     25  C   UNL     1      -4.357  15.566  24.181  0.00  0.00    +0.000 A 
ATOM     26 CL   UNL     1      -5.973  16.095  23.920  0.00  0.00    +0.000 Cl
ATOM     27  C   UNL     1      -3.541  16.249  25.077  0.00  0.00    +0.000 A 
ATOM     28  C   UNL     1      -2.229  15.817  25.273  0.00  0.00    +0.000 A 
ATOM     29 CL   UNL     1      -1.206  16.680  26.356  0.00  0.00    +0.000 Cl
ATOM     30  C   UNL     1      -1.727  14.706  24.591  0.00  0.00    +0.000 A 
ENDBRANCH  20  23
ENDBRANCH   1  21
BRANCH   4  31
ATOM     31  O   UNL     1       0.603   9.669  17.875  0.00  0.00    +0.000 OA
ATOM     32  H   UNL     1       0.076   8.858  17.787  0.00  0.00    +0.000 HD
ENDBRANCH   4  31
TORSDOF 4
ENDMDL
MODEL 5
REMARK VINA RESULT:      -7.0      9.009     12.077
REMARK  Name = 
REMARK  4 active torsions:
REMARK  status: ('A' for Active; 'I' for Inactive)
REMARK    1  A    between atoms: C_2  and  C_23
REMARK    2  A    between atoms: N_3  and  C_4
REMARK    3  A    between atoms: C_7  and  O_8
REMARK    4  A    between atoms: C_13  and  C_14
REMARK                            x       y       z     vdW  Elec       q    Type
REMARK                         _______ _______ _______ _____ _____    ______ ____
ROOT
ATOM      1  C   UNL     1      -0.675  14.116  20.350  0.00  0.00    +0.000 A 
ATOM      2  C   UNL     1       0.675  14.284  20.030  0.00  0.00    +0.000 A 
ATOM      3  C   UNL     1       1.563  14.849  20.944  0.00  0.00    +0.000 A 
ATOM      4  C   UNL     1       1.109  15.257  22.195  0.00  0.00    +0.000 A 
ATOM      5  C   UNL     1      -0.245  15.129  22.532  0.00  0.00    +0.000 A 
ATOM      6  C   UNL     1      -0.773  15.529  23.856  0.00  0.00    +0.000 A 
ATOM      7  O   UNL     1      -0.101  15.997  24.766  0.00  0.00    +0.000 OA
ATOM      8  C   UNL     1      -2.216  15.343  24.072  0.00  0.00    +0.000 A 
ATOM      9  C   UNL     1      -2.964  14.838  23.087  0.00  0.00    +0.000 A 
ATOM     10  O   UNL     1      -2.488  14.443  21.853  0.00  0.00    +0.000 OA
ATOM     11  C   UNL     1      -1.138  14.579  21.597  0.00  0.00    +0.000 A 
ENDROOT
BRANCH   9  12
ATOM     12  C   UNL     1      -4.411  14.667  23.268  0.00  0.00    +0.000 A 
ATOM     13  C   UNL     1      -5.262  15.722  22.897  0.00  0.00    +0.000 A 
ATOM     14  C   UNL     1      -6.645  15.607  23.049  0.00  0.00    +0.000 A 
ATOM     15  C   UNL     1      -7.195  14.440  23.576  0.00  0.00    +0.000 A 
ATOM     16  C   UNL     1      -6.361  13.390  23.960  0.00  0.00    +0.000 A 
ATOM     17  C   UNL     1      -4.975  13.501  23.809  0.00  0.00    +0.000 A 
ATOM     18 CL   UNL     1      -3.998  12.166  24.314  0.00  0.00    +0.000 Cl
ENDBRANCH   9  12
BRANCH   1  21
ATOM     19  O   UNL     1      -1.233  11.247  20.023  0.00  0.00    +0.000 OA
ATOM     20  C   UNL     1      -1.788  12.118  19.363  0.00  0.00    +0.000 C 
ATOM     21  N   UNL     1      -1.589  13.485  19.466  0.00  0.00    +0.000 N 
ATOM     22  H   UNL     1      -2.260  14.105  19.024  0.00  0.00    +0.000 HD
BRANCH  20  23
ATOM     23  C   UNL     1      -2.825  11.675  18.400  0.00  0.00    +0.000 A 
ATOM     24  C   UNL     1      -2.397  11.199  17.153  0.00  0.00    +0.000 A 
ATOM     25  C   UNL     1      -3.336  10.828  16.195  0.00  0.00    +0.000 A 
ATOM     26 CL   UNL     1      -2.808  10.240  14.667  0.00  0.00    +0.000 Cl
ATOM     27  C   UNL     1      -4.698  10.937  16.461  0.00  0.00    +0.000 A 
ATOM     28  C   UNL     1      -5.115  11.426  17.701  0.00  0.00    +0.000 A 
ATOM     29 CL   UNL     1      -6.798  11.592  18.022  0.00  0.00    +0.000 Cl
ATOM     30  C   UNL     1      -4.188  11.795  18.678  0.00  0.00    +0.000 A 
ENDBRANCH  20  23
ENDBRANCH   1  21
BRANCH   4  31
ATOM     31  O   UNL     1       2.010  15.786  23.073  0.00  0.00    +0.000 OA
ATOM     32  H   UNL     1       1.591  15.941  23.935  0.00  0.00    +0.000 HD
ENDBRANCH   4  31
TORSDOF 4
ENDMDL
MODEL 6
REMARK VINA RESULT:      -6.8      7.664     11.633
REMARK  Name = 
REMARK  4 active torsions:
REMARK  status: ('A' for Active; 'I' for Inactive)
REMARK    1  A    between atoms: C_2  and  C_23
REMARK    2  A    between atoms: N_3  and  C_4
REMARK    3  A    between atoms: C_7  and  O_8
REMARK    4  A    between atoms: C_13  and  C_14
REMARK                            x       y       z     vdW  Elec       q    Type
REMARK                         _______ _______ _______ _____ _____    ______ ____
ROOT
ATOM      1  C   UNL     1      -1.861  13.844  22.954  0.00  0.00    +0.000 A 
ATOM      2  C   UNL     1      -1.257  14.632  23.938  0.00  0.00    +0.000 A 
ATOM      3  C   UNL     1      -2.018  15.460  24.761  0.00  0.00    +0.000 A 
ATOM      4  C   UNL     1      -3.401  15.511  24.609  0.00  0.00    +0.000 A 
ATOM      5  C   UNL     1      -4.032  14.754  23.612  0.00  0.00    +0.000 A 
ATOM      6  C   UNL     1      -5.500  14.759  23.423  0.00  0.00    +0.000 A 
ATOM      7  O   UNL     1      -6.292  15.403  24.100  0.00  0.00    +0.000 OA
ATOM      8  C   UNL     1      -6.026  13.921  22.335  0.00  0.00    +0.000 A 
ATOM      9  C   UNL     1      -5.175  13.217  21.584  0.00  0.00    +0.000 A 
ATOM     10  O   UNL     1      -3.805  13.185  21.755  0.00  0.00    +0.000 OA
ATOM     11  C   UNL     1      -3.254  13.940  22.771  0.00  0.00    +0.000 A 
ENDROOT
BRANCH   9  12
ATOM     12  C   UNL     1      -5.672  12.392  20.474  0.00  0.00    +0.000 A 
ATOM     13  C   UNL     1      -4.975  12.422  19.255  0.00  0.00    +0.000 A 
ATOM     14  C   UNL     1      -5.407  11.656  18.170  0.00  0.00    +0.000 A 
ATOM     15  C   UNL     1      -6.542  10.856  18.289  0.00  0.00    +0.000 A 
ATOM     16  C   UNL     1      -7.250  10.828  19.490  0.00  0.00    +0.000 A 
ATOM     17  C   UNL     1      -6.821  11.593  20.579  0.00  0.00    +0.000 A 
ATOM     18 CL   UNL     1      -7.750  11.520  22.035  0.00  0.00    +0.000 Cl
ENDBRANCH   9  12
BRANCH   1  21
ATOM     19  O   UNL     1      -1.181  11.031  23.483  0.00  0.00    +0.000 OA
ATOM     20  C   UNL     1      -0.831  11.628  22.471  0.00  0.00    +0.000 C 
ATOM     21  N   UNL     1      -1.120  12.943  22.146  0.00  0.00    +0.000 N 
ATOM     22  H   UNL     1      -0.962  13.251  21.191  0.00  0.00    +0.000 HD
BRANCH  20  23
ATOM     23  C   UNL     1      -0.075  10.852  21.459  0.00  0.00    +0.000 A 
ATOM     24  C   UNL     1       0.141   9.489  21.709  0.00  0.00    +0.000 A 
ATOM     25  C   UNL     1       0.896   8.734  20.817  0.00  0.00    +0.000 A 
ATOM     26 CL   UNL     1       1.157   7.061  21.125  0.00  0.00    +0.000 Cl
ATOM     27  C   UNL     1       1.449   9.322  19.684  0.00  0.00    +0.000 A 
ATOM     28  C   UNL     1       1.240  10.682  19.450  0.00  0.00    +0.000 A 
ATOM     29 CL   UNL     1       1.949  11.421  18.066  0.00  0.00    +0.000 Cl
ATOM     30  C   UNL     1       0.479  11.456  20.329  0.00  0.00    +0.000 A 
ENDBRANCH  20  23
ENDBRANCH   1  21
BRANCH   4  31
ATOM     31  O   UNL     1      -4.118  16.316  25.446  0.00  0.00    +0.000 OA
ATOM     32  H   UNL     1      -5.054  16.057  25.444  0.00  0.00    +0.000 HD
ENDBRANCH   4  31
TORSDOF 4
ENDMDL
MODEL 7
REMARK VINA RESULT:      -6.8      9.113     11.840
REMARK  Name = 
REMARK  4 active torsions:
REMARK  status: ('A' for Active; 'I' for Inactive)
REMARK    1  A    between atoms: C_2  and  C_23
REMARK    2  A    between atoms: N_3  and  C_4
REMARK    3  A    between atoms: C_7  and  O_8
REMARK    4  A    between atoms: C_13  and  C_14
REMARK                            x       y       z     vdW  Elec       q    Type
REMARK                         _______ _______ _______ _____ _____    ______ ____
ROOT
ATOM      1  C   UNL     1      -3.208  15.242  21.755  0.00  0.00    +0.000 A 
ATOM      2  C   UNL     1      -3.567  15.967  22.896  0.00  0.00    +0.000 A 
ATOM      3  C   UNL     1      -4.676  15.603  23.656  0.00  0.00    +0.000 A 
ATOM      4  C   UNL     1      -5.446  14.504  23.284  0.00  0.00    +0.000 A 
ATOM      5  C   UNL     1      -5.128  13.777  22.129  0.00  0.00    +0.000 A 
ATOM      6  C   UNL     1      -5.902  12.590  21.702  0.00  0.00    +0.000 A 
ATOM      7  O   UNL     1      -6.870  12.133  22.297  0.00  0.00    +0.000 OA
ATOM      8  C   UNL     1      -5.459  11.924  20.467  0.00  0.00    +0.000 A 
ATOM      9  C   UNL     1      -4.408  12.413  19.803  0.00  0.00    +0.000 A 
ATOM     10  O   UNL     1      -3.662  13.508  20.194  0.00  0.00    +0.000 OA
ATOM     11  C   UNL     1      -4.021  14.165  21.355  0.00  0.00    +0.000 A 
ENDROOT
BRANCH   9  12
ATOM     12  C   UNL     1      -3.961  11.784  18.554  0.00  0.00    +0.000 A 
ATOM     13  C   UNL     1      -2.690  11.187  18.522  0.00  0.00    +0.000 A 
ATOM     14  C   UNL     1      -2.220  10.576  17.358  0.00  0.00    +0.000 A 
ATOM     15  C   UNL     1      -3.012  10.558  16.211  0.00  0.00    +0.000 A 
ATOM     16  C   UNL     1      -4.271  11.158  16.225  0.00  0.00    +0.000 A 
ATOM     17  C   UNL     1      -4.745  11.771  17.389  0.00  0.00    +0.000 A 
ATOM     18 CL   UNL     1      -6.309  12.506  17.336  0.00  0.00    +0.000 Cl
ENDBRANCH   9  12
BRANCH   1  21
ATOM     19  O   UNL     1      -2.850  17.311  19.695  0.00  0.00    +0.000 OA
ATOM     20  C   UNL     1      -1.959  16.538  20.033  0.00  0.00    +0.000 C 
ATOM     21  N   UNL     1      -2.047  15.549  20.999  0.00  0.00    +0.000 N 
ATOM     22  H   UNL     1      -1.188  15.128  21.337  0.00  0.00    +0.000 HD
BRANCH  20  23
ATOM     23  C   UNL     1      -0.635  16.717  19.392  0.00  0.00    +0.000 A 
ATOM     24  C   UNL     1      -0.569  17.507  18.237  0.00  0.00    +0.000 A 
ATOM     25  C   UNL     1       0.642  17.654  17.567  0.00  0.00    +0.000 A 
ATOM     26 CL   UNL     1       0.720  18.629  16.151  0.00  0.00    +0.000 Cl
ATOM     27  C   UNL     1       1.787  17.013  18.029  0.00  0.00    +0.000 A 
ATOM     28  C   UNL     1       1.710  16.217  19.173  0.00  0.00    +0.000 A 
ATOM     29 CL   UNL     1       3.117  15.397  19.729  0.00  0.00    +0.000 Cl
ATOM     30  C   UNL     1       0.506  16.063  19.863  0.00  0.00    +0.000 A 
ENDBRANCH  20  23
ENDBRANCH   1  21
BRANCH   4  31
ATOM     31  O   UNL     1      -6.512  14.162  24.064  0.00  0.00    +0.000 OA
ATOM     32  H   UNL     1      -7.317  14.603  23.747  0.00  0.00    +0.000 HD
ENDBRANCH   4  31
TORSDOF 4
ENDMDL
MODEL 8
REMARK VINA RESULT:      -6.8      6.495     10.815
REMARK  Name = 
REMARK  4 active torsions:
REMARK  status: ('A' for Active; 'I' for Inactive)
REMARK    1  A    between atoms: C_2  and  C_23
REMARK    2  A    between atoms: N_3  and  C_4
REMARK    3  A    between atoms: C_7  and  O_8
REMARK    4  A    between atoms: C_13  and  C_14
REMARK                            x       y       z     vdW  Elec       q    Type
REMARK                         _______ _______ _______ _____ _____    ______ ____
ROOT
ATOM      1  C   UNL     1      -1.548  12.243  22.755  0.00  0.00    +0.000 A 
ATOM      2  C   UNL     1      -2.701  11.841  23.435  0.00  0.00    +0.000 A 
ATOM      3  C   UNL     1      -3.458  12.755  24.165  0.00  0.00    +0.000 A 
ATOM      4  C   UNL     1      -3.069  14.090  24.227  0.00  0.00    +0.000 A 
ATOM      5  C   UNL     1      -1.900  14.516  23.580  0.00  0.00    +0.000 A 
ATOM      6  C   UNL     1      -1.455  15.928  23.599  0.00  0.00    +0.000 A 
ATOM      7  O   UNL     1      -2.044  16.841  24.163  0.00  0.00    +0.000 OA
ATOM      8  C   UNL     1      -0.207  16.233  22.882  0.00  0.00    +0.000 A 
ATOM      9  C   UNL     1       0.450  15.247  22.267  0.00  0.00    +0.000 A 
ATOM     10  O   UNL     1       0.042  13.928  22.223  0.00  0.00    +0.000 OA
ATOM     11  C   UNL     1      -1.131  13.583  22.865  0.00  0.00    +0.000 A 
ENDROOT
BRANCH   9  12
ATOM     12  C   UNL     1       1.711  15.520  21.566  0.00  0.00    +0.000 A 
ATOM     13  C   UNL     1       2.879  15.686  22.329  0.00  0.00    +0.000 A 
ATOM     14  C   UNL     1       4.103  15.948  21.710  0.00  0.00    +0.000 A 
ATOM     15  C   UNL     1       4.174  16.050  20.322  0.00  0.00    +0.000 A 
ATOM     16  C   UNL     1       3.020  15.899  19.553  0.00  0.00    +0.000 A 
ATOM     17  C   UNL     1       1.793  15.638  20.169  0.00  0.00    +0.000 A 
ATOM     18 CL   UNL     1       0.399  15.472  19.159  0.00  0.00    +0.000 Cl
ENDBRANCH   9  12
BRANCH   1  21
ATOM     19  O   UNL     1       0.040   9.912  23.589  0.00  0.00    +0.000 OA
ATOM     20  C   UNL     1      -0.059  10.274  22.422  0.00  0.00    +0.000 C 
ATOM     21  N   UNL     1      -0.794  11.349  21.950  0.00  0.00    +0.000 N 
ATOM     22  H   UNL     1      -0.972  11.413  20.953  0.00  0.00    +0.000 HD
BRANCH  20  23
ATOM     23  C   UNL     1       0.621   9.444  21.399  0.00  0.00    +0.000 A 
ATOM     24  C   UNL     1       0.901  10.033  20.159  0.00  0.00    +0.000 A 
ATOM     25  C   UNL     1       1.485   9.275  19.148  0.00  0.00    +0.000 A 
ATOM     26 CL   UNL     1       1.831  10.003  17.628  0.00  0.00    +0.000 Cl
ATOM     27  C   UNL     1       1.781   7.931  19.355  0.00  0.00    +0.000 A 
ATOM     28  C   UNL     1       1.486   7.348  20.589  0.00  0.00    +0.000 A 
ATOM     29 CL   UNL     1       1.823   5.679  20.838  0.00  0.00    +0.000 Cl
ATOM     30  C   UNL     1       0.908   8.095  21.618  0.00  0.00    +0.000 A 
ENDBRANCH  20  23
ENDBRANCH   1  21
BRANCH   4  31
ATOM     31  O   UNL     1      -3.845  14.962  24.933  0.00  0.00    +0.000 OA
ATOM     32  H   UNL     1      -4.224  15.632  24.342  0.00  0.00    +0.000 HD
ENDBRANCH   4  31
TORSDOF 4
ENDMDL
MODEL 9
REMARK VINA RESULT:      -6.8      7.879     10.576
REMARK  Name = 
REMARK  4 active torsions:
REMARK  status: ('A' for Active; 'I' for Inactive)
REMARK    1  A    between atoms: C_2  and  C_23
REMARK    2  A    between atoms: N_3  and  C_4
REMARK    3  A    between atoms: C_7  and  O_8
REMARK    4  A    between atoms: C_13  and  C_14
REMARK                            x       y       z     vdW  Elec       q    Type
REMARK                         _______ _______ _______ _____ _____    ______ ____
ROOT
ATOM      1  C   UNL     1      -2.944  14.139  21.775  0.00  0.00    +0.000 A 
ATOM      2  C   UNL     1      -3.374  14.815  22.922  0.00  0.00    +0.000 A 
ATOM      3  C   UNL     1      -4.683  14.683  23.382  0.00  0.00    +0.000 A 
ATOM      4  C   UNL     1      -5.583  13.871  22.698  0.00  0.00    +0.000 A 
ATOM      5  C   UNL     1      -5.189  13.205  21.530  0.00  0.00    +0.000 A 
ATOM      6  C   UNL     1      -6.102  12.315  20.778  0.00  0.00    +0.000 A 
ATOM      7  O   UNL     1      -7.261  12.074  21.092  0.00  0.00    +0.000 OA
ATOM      8  C   UNL     1      -5.557  11.684  19.567  0.00  0.00    +0.000 A 
ATOM      9  C   UNL     1      -4.296  11.941  19.208  0.00  0.00    +0.000 A 
ATOM     10  O   UNL     1      -3.423  12.754  19.904  0.00  0.00    +0.000 OA
ATOM     11  C   UNL     1      -3.874  13.362  21.060  0.00  0.00    +0.000 A 
ENDROOT
BRANCH   9  12
ATOM     12  C   UNL     1      -3.735  11.345  17.989  0.00  0.00    +0.000 A 
ATOM     13  C   UNL     1      -4.497  11.394  16.809  0.00  0.00    +0.000 A 
ATOM     14  C   UNL     1      -4.008  10.841  15.623  0.00  0.00    +0.000 A 
ATOM     15  C   UNL     1      -2.755  10.231  15.603  0.00  0.00    +0.000 A 
ATOM     16  C   UNL     1      -1.994  10.165  16.770  0.00  0.00    +0.000 A 
ATOM     17  C   UNL     1      -2.481  10.717  17.959  0.00  0.00    +0.000 A 
ATOM     18 CL   UNL     1      -1.492  10.592  19.373  0.00  0.00    +0.000 Cl
ENDBRANCH   9  12
BRANCH   1  21
ATOM     19  O   UNL     1      -0.579  12.738  22.823  0.00  0.00    +0.000 OA
ATOM     20  C   UNL     1      -0.535  13.516  21.876  0.00  0.00    +0.000 C 
ATOM     21  N   UNL     1      -1.601  14.203  21.320  0.00  0.00    +0.000 N 
ATOM     22  H   UNL     1      -1.474  14.640  20.413  0.00  0.00    +0.000 HD
BRANCH  20  23
ATOM     23  C   UNL     1       0.780  13.696  21.214  0.00  0.00    +0.000 A 
ATOM     24  C   UNL     1       1.648  14.664  21.738  0.00  0.00    +0.000 A 
ATOM     25  C   UNL     1       2.867  14.910  21.113  0.00  0.00    +0.000 A 
ATOM     26 CL   UNL     1       3.932  16.097  21.761  0.00  0.00    +0.000 Cl
ATOM     27  C   UNL     1       3.228  14.209  19.967  0.00  0.00    +0.000 A 
ATOM     28  C   UNL     1       2.352  13.256  19.445  0.00  0.00    +0.000 A 
ATOM     29 CL   UNL     1       2.780  12.410  18.008  0.00  0.00    +0.000 Cl
ATOM     30  C   UNL     1       1.127  12.990  20.061  0.00  0.00    +0.000 A 
ENDBRANCH  20  23
ENDBRANCH   1  21
BRANCH   4  31
ATOM     31  O   UNL     1      -6.851  13.747  23.190  0.00  0.00    +0.000 OA
ATOM     32  H   UNL     1      -7.442  14.387  22.763  0.00  0.00    +0.000 HD
ENDBRANCH   4  31
TORSDOF 4
ENDMDL
