MODEL 1
REMARK VINA RESULT:      -8.4      0.000      0.000
REMARK  Name = 
REMARK  6 active torsions:
REMARK  status: ('A' for Active; 'I' for Inactive)
REMARK    1  A    between atoms: C_1  and  C_2
REMARK    2  A    between atoms: C_14  and  C_16
REMARK    3  A    between atoms: N_22  and  C_23
REMARK    4  A    between atoms: C_23  and  C_24
REMARK    5  A    between atoms: C_24  and  C_25
REMARK    6  A    between atoms: C_24  and  C_26
REMARK                            x       y       z     vdW  Elec       q    Type
REMARK                         _______ _______ _______ _____ _____    ______ ____
ROOT
ATOM      1  C   UNL     1       0.657   1.875  19.992  0.00  0.00    +0.000 C 
ATOM      2  C   UNL     1       1.510   3.040  19.588  0.00  0.00    +0.000 A 
ATOM      3  C   UNL     1       1.770   4.107  20.448  0.00  0.00    +0.000 A 
ATOM      4  C   UNL     1       2.633   5.145  20.051  0.00  0.00    +0.000 A 
ATOM      5  C   UNL     1       3.279   5.147  18.819  0.00  0.00    +0.000 A 
ATOM      6  N   UNL     1       4.163   6.128  18.526  0.00  0.00    +0.000 NA
ATOM      7  C   UNL     1       4.802   5.972  17.345  0.00  0.00    +0.000 A 
ATOM      8  C   UNL     1       4.594   4.958  16.426  0.00  0.00    +0.000 A 
ATOM      9  C   UNL     1       3.622   3.996  16.713  0.00  0.00    +0.000 A 
ATOM     10  C   UNL     1       2.983   4.071  17.950  0.00  0.00    +0.000 A 
ATOM     11  C   UNL     1       2.100   3.048  18.325  0.00  0.00    +0.000 A 
ATOM     12  C   UNL     1       5.541   5.176  15.397  0.00  0.00    +0.000 A 
ATOM     13  N   UNL     1       5.686   4.313  14.328  0.00  0.00    +0.000 N 
ATOM     14  C   UNL     1       6.613   4.401  13.318  0.00  0.00    +0.000 C 
ATOM     15  O   UNL     1       7.444   5.287  13.163  0.00  0.00    +0.000 OA
ATOM     16  N   UNL     1       6.278   6.260  15.632  0.00  0.00    +0.000 NA
ATOM     17  N   UNL     1       5.818   6.732  16.815  0.00  0.00    +0.000 N 
ATOM     18  H   UNL     1       5.079   3.507  14.308  0.00  0.00    +0.000 HD
ENDROOT
BRANCH  14  19
ATOM     19  C   UNL     1       6.510   3.274  12.400  0.00  0.00    +0.000 A 
ATOM     20  C   UNL     1       5.423   2.519  12.006  0.00  0.00    +0.000 A 
ATOM     21  C   UNL     1       5.904   1.550  11.097  0.00  0.00    +0.000 A 
ATOM     22  C   UNL     1       7.259   1.767  10.983  0.00  0.00    +0.000 A 
ATOM     23  O   UNL     1       7.639   2.809  11.767  0.00  0.00    +0.000 OA
ENDBRANCH  14  19
BRANCH  17  24
ATOM     24  C   UNL     1       6.512   7.839  17.450  0.00  0.00    +0.000 C 
BRANCH  24  25
ATOM     25  C   UNL     1       7.955   7.530  17.896  0.00  0.00    +0.000 C 
ATOM     26  C   UNL     1       8.638   8.744  18.528  0.00  0.00    +0.000 C 
ATOM     27  C   UNL     1       7.964   6.365  18.892  0.00  0.00    +0.000 C 
ENDBRANCH  24  25
ENDBRANCH  17  24
TORSDOF 3
ENDMDL
MODEL 2
REMARK VINA RESULT:      -8.0      2.706      5.023
REMARK  Name = 
REMARK  6 active torsions:
REMARK  status: ('A' for Active; 'I' for Inactive)
REMARK    1  A    between atoms: C_1  and  C_2
REMARK    2  A    between atoms: C_14  and  C_16
REMARK    3  A    between atoms: N_22  and  C_23
REMARK    4  A    between atoms: C_23  and  C_24
REMARK    5  A    between atoms: C_24  and  C_25
REMARK    6  A    between atoms: C_24  and  C_26
REMARK                            x       y       z     vdW  Elec       q    Type
REMARK                         _______ _______ _______ _____ _____    ______ ____
ROOT
ATOM      1  C   UNL     1       1.095  11.387  18.030  0.00  0.00    +0.000 C 
ATOM      2  C   UNL     1       1.509  10.049  18.565  0.00  0.00    +0.000 A 
ATOM      3  C   UNL     1       0.935   9.493  19.708  0.00  0.00    +0.000 A 
ATOM      4  C   UNL     1       1.305   8.205  20.134  0.00  0.00    +0.000 A 
ATOM      5  C   UNL     1       2.221   7.424  19.437  0.00  0.00    +0.000 A 
ATOM      6  N   UNL     1       2.474   6.160  19.846  0.00  0.00    +0.000 NA
ATOM      7  C   UNL     1       3.303   5.465  19.036  0.00  0.00    +0.000 A 
ATOM      8  C   UNL     1       3.930   5.941  17.898  0.00  0.00    +0.000 A 
ATOM      9  C   UNL     1       3.715   7.273  17.534  0.00  0.00    +0.000 A 
ATOM     10  C   UNL     1       2.813   8.014  18.296  0.00  0.00    +0.000 A 
ATOM     11  C   UNL     1       2.473   9.310  17.882  0.00  0.00    +0.000 A 
ATOM     12  C   UNL     1       4.626   4.834  17.354  0.00  0.00    +0.000 A 
ATOM     13  N   UNL     1       5.318   4.907  16.160  0.00  0.00    +0.000 N 
ATOM     14  C   UNL     1       5.967   3.879  15.521  0.00  0.00    +0.000 C 
ATOM     15  O   UNL     1       6.086   2.728  15.920  0.00  0.00    +0.000 OA
ATOM     16  N   UNL     1       4.474   3.745  18.104  0.00  0.00    +0.000 NA
ATOM     17  N   UNL     1       3.671   4.142  19.120  0.00  0.00    +0.000 N 
ATOM     18  H   UNL     1       5.308   5.796  15.683  0.00  0.00    +0.000 HD
ENDROOT
BRANCH  14  19
ATOM     19  C   UNL     1       6.528   4.314  14.248  0.00  0.00    +0.000 A 
ATOM     20  C   UNL     1       6.271   3.905  12.954  0.00  0.00    +0.000 A 
ATOM     21  C   UNL     1       7.110   4.665  12.109  0.00  0.00    +0.000 A 
ATOM     22  C   UNL     1       7.831   5.501  12.932  0.00  0.00    +0.000 A 
ATOM     23  O   UNL     1       7.489   5.297  14.231  0.00  0.00    +0.000 OA
ENDBRANCH  14  19
BRANCH  17  24
ATOM     24  C   UNL     1       3.175   3.148  20.056  0.00  0.00    +0.000 C 
BRANCH  24  25
ATOM     25  C   UNL     1       1.663   3.227  20.346  0.00  0.00    +0.000 C 
ATOM     26  C   UNL     1       0.829   2.547  19.260  0.00  0.00    +0.000 C 
ATOM     27  C   UNL     1       1.349   2.588  21.704  0.00  0.00    +0.000 C 
ENDBRANCH  24  25
ENDBRANCH  17  24
TORSDOF 3
ENDMDL
MODEL 3
REMARK VINA RESULT:      -7.9      4.470      8.299
REMARK  Name = 
REMARK  6 active torsions:
REMARK  status: ('A' for Active; 'I' for Inactive)
REMARK    1  A    between atoms: C_1  and  C_2
REMARK    2  A    between atoms: C_14  and  C_16
REMARK    3  A    between atoms: N_22  and  C_23
REMARK    4  A    between atoms: C_23  and  C_24
REMARK    5  A    between atoms: C_24  and  C_25
REMARK    6  A    between atoms: C_24  and  C_26
REMARK                            x       y       z     vdW  Elec       q    Type
REMARK                         _______ _______ _______ _____ _____    ______ ____
ROOT
ATOM      1  C   UNL     1       7.286   5.451  13.920  0.00  0.00    +0.000 C 
ATOM      2  C   UNL     1       6.356   5.146  15.055  0.00  0.00    +0.000 A 
ATOM      3  C   UNL     1       6.393   3.933  15.744  0.00  0.00    +0.000 A 
ATOM      4  C   UNL     1       5.547   3.717  16.847  0.00  0.00    +0.000 A 
ATOM      5  C   UNL     1       4.670   4.690  17.316  0.00  0.00    +0.000 A 
ATOM      6  N   UNL     1       3.944   4.456  18.433  0.00  0.00    +0.000 NA
ATOM      7  C   UNL     1       3.204   5.508  18.849  0.00  0.00    +0.000 A 
ATOM      8  C   UNL     1       3.093   6.736  18.220  0.00  0.00    +0.000 A 
ATOM      9  C   UNL     1       3.793   6.931  17.026  0.00  0.00    +0.000 A 
ATOM     10  C   UNL     1       4.627   5.902  16.590  0.00  0.00    +0.000 A 
ATOM     11  C   UNL     1       5.444   6.115  15.470  0.00  0.00    +0.000 A 
ATOM     12  C   UNL     1       2.276   7.526  19.064  0.00  0.00    +0.000 A 
ATOM     13  N   UNL     1       2.001   8.853  18.799  0.00  0.00    +0.000 N 
ATOM     14  C   UNL     1       1.277   9.717  19.585  0.00  0.00    +0.000 C 
ATOM     15  O   UNL     1       0.709   9.448  20.636  0.00  0.00    +0.000 OA
ATOM     16  N   UNL     1       1.877   6.843  20.136  0.00  0.00    +0.000 NA
ATOM     17  N   UNL     1       2.446   5.622  19.991  0.00  0.00    +0.000 N 
ATOM     18  H   UNL     1       2.411   9.245  17.964  0.00  0.00    +0.000 HD
ENDROOT
BRANCH  14  19
ATOM     19  C   UNL     1       1.250  11.059  19.018  0.00  0.00    +0.000 A 
ATOM     20  C   UNL     1       2.228  11.794  18.377  0.00  0.00    +0.000 A 
ATOM     21  C   UNL     1       1.652  13.039  18.040  0.00  0.00    +0.000 A 
ATOM     22  C   UNL     1       0.350  12.995  18.489  0.00  0.00    +0.000 A 
ATOM     23  O   UNL     1       0.095  11.801  19.084  0.00  0.00    +0.000 OA
ENDBRANCH  14  19
BRANCH  17  24
ATOM     24  C   UNL     1       2.337   4.661  21.075  0.00  0.00    +0.000 C 
BRANCH  24  25
ATOM     25  C   UNL     1       1.164   3.669  20.947  0.00  0.00    +0.000 C 
ATOM     26  C   UNL     1       0.902   3.266  19.496  0.00  0.00    +0.000 C 
ATOM     27  C   UNL     1       1.439   2.413  21.783  0.00  0.00    +0.000 C 
ENDBRANCH  24  25
ENDBRANCH  17  24
TORSDOF 3
ENDMDL
MODEL 4
REMARK VINA RESULT:      -7.6      4.430      8.293
REMARK  Name = 
REMARK  6 active torsions:
REMARK  status: ('A' for Active; 'I' for Inactive)
REMARK    1  A    between atoms: C_1  and  C_2
REMARK    2  A    between atoms: C_14  and  C_16
REMARK    3  A    between atoms: N_22  and  C_23
REMARK    4  A    between atoms: C_23  and  C_24
REMARK    5  A    between atoms: C_24  and  C_25
REMARK    6  A    between atoms: C_24  and  C_26
REMARK                            x       y       z     vdW  Elec       q    Type
REMARK                         _______ _______ _______ _____ _____    ______ ____
ROOT
ATOM      1  C   UNL     1       7.196   5.497  14.071  0.00  0.00    +0.000 C 
ATOM      2  C   UNL     1       6.255   5.200  15.199  0.00  0.00    +0.000 A 
ATOM      3  C   UNL     1       6.277   3.988  15.889  0.00  0.00    +0.000 A 
ATOM      4  C   UNL     1       5.422   3.779  16.986  0.00  0.00    +0.000 A 
ATOM      5  C   UNL     1       4.550   4.760  17.449  0.00  0.00    +0.000 A 
ATOM      6  N   UNL     1       3.814   4.533  18.560  0.00  0.00    +0.000 NA
ATOM      7  C   UNL     1       3.080   5.592  18.971  0.00  0.00    +0.000 A 
ATOM      8  C   UNL     1       2.985   6.820  18.341  0.00  0.00    +0.000 A 
ATOM      9  C   UNL     1       3.695   7.008  17.152  0.00  0.00    +0.000 A 
ATOM     10  C   UNL     1       4.522   5.972  16.722  0.00  0.00    +0.000 A 
ATOM     11  C   UNL     1       5.349   6.177  15.607  0.00  0.00    +0.000 A 
ATOM     12  C   UNL     1       2.169   7.617  19.179  0.00  0.00    +0.000 A 
ATOM     13  N   UNL     1       1.907   8.947  18.912  0.00  0.00    +0.000 N 
ATOM     14  C   UNL     1       1.185   9.817  19.692  0.00  0.00    +0.000 C 
ATOM     15  O   UNL     1       0.608   9.554  20.739  0.00  0.00    +0.000 OA
ATOM     16  N   UNL     1       1.756   6.939  20.248  0.00  0.00    +0.000 NA
ATOM     17  N   UNL     1       2.315   5.713  20.107  0.00  0.00    +0.000 N 
ATOM     18  H   UNL     1       2.326   9.335  18.080  0.00  0.00    +0.000 HD
ENDROOT
BRANCH  14  19
ATOM     19  C   UNL     1       1.175  11.159  19.125  0.00  0.00    +0.000 A 
ATOM     20  C   UNL     1       0.142  12.054  18.926  0.00  0.00    +0.000 A 
ATOM     21  C   UNL     1       0.705  13.207  18.334  0.00  0.00    +0.000 A 
ATOM     22  C   UNL     1       2.053  12.955  18.206  0.00  0.00    +0.000 A 
ATOM     23  O   UNL     1       2.350  11.717  18.681  0.00  0.00    +0.000 OA
ENDBRANCH  14  19
BRANCH  17  24
ATOM     24  C   UNL     1       2.190   4.753  21.191  0.00  0.00    +0.000 C 
BRANCH  24  25
ATOM     25  C   UNL     1       1.866   3.312  20.748  0.00  0.00    +0.000 C 
ATOM     26  C   UNL     1       1.651   2.375  21.937  0.00  0.00    +0.000 C 
ATOM     27  C   UNL     1       0.617   3.300  19.859  0.00  0.00    +0.000 C 
ENDBRANCH  24  25
ENDBRANCH  17  24
TORSDOF 3
ENDMDL
MODEL 5
REMARK VINA RESULT:      -7.4      0.917      1.268
REMARK  Name = 
REMARK  6 active torsions:
REMARK  status: ('A' for Active; 'I' for Inactive)
REMARK    1  A    between atoms: C_1  and  C_2
REMARK    2  A    between atoms: C_14  and  C_16
REMARK    3  A    between atoms: N_22  and  C_23
REMARK    4  A    between atoms: C_23  and  C_24
REMARK    5  A    between atoms: C_24  and  C_25
REMARK    6  A    between atoms: C_24  and  C_26
REMARK                            x       y       z     vdW  Elec       q    Type
REMARK                         _______ _______ _______ _____ _____    ______ ____
ROOT
ATOM      1  C   UNL     1       0.175   2.762  19.884  0.00  0.00    +0.000 C 
ATOM      2  C   UNL     1       1.366   3.647  19.665  0.00  0.00    +0.000 A 
ATOM      3  C   UNL     1       1.912   4.428  20.684  0.00  0.00    +0.000 A 
ATOM      4  C   UNL     1       3.071   5.189  20.451  0.00  0.00    +0.000 A 
ATOM      5  C   UNL     1       3.735   5.182  19.229  0.00  0.00    +0.000 A 
ATOM      6  N   UNL     1       4.893   5.867  19.090  0.00  0.00    +0.000 NA
ATOM      7  C   UNL     1       5.499   5.705  17.892  0.00  0.00    +0.000 A 
ATOM      8  C   UNL     1       5.022   4.967  16.823  0.00  0.00    +0.000 A 
ATOM      9  C   UNL     1       3.787   4.328  16.961  0.00  0.00    +0.000 A 
ATOM     10  C   UNL     1       3.153   4.405  18.200  0.00  0.00    +0.000 A 
ATOM     11  C   UNL     1       1.980   3.667  18.414  0.00  0.00    +0.000 A 
ATOM     12  C   UNL     1       6.030   5.034  15.832  0.00  0.00    +0.000 A 
ATOM     13  N   UNL     1       5.942   4.349  14.635  0.00  0.00    +0.000 N 
ATOM     14  C   UNL     1       6.891   4.298  13.643  0.00  0.00    +0.000 C 
ATOM     15  O   UNL     1       7.962   4.890  13.625  0.00  0.00    +0.000 OA
ATOM     16  N   UNL     1       7.059   5.779  16.232  0.00  0.00    +0.000 NA
ATOM     17  N   UNL     1       6.722   6.179  17.481  0.00  0.00    +0.000 N 
ATOM     18  H   UNL     1       5.114   3.789  14.492  0.00  0.00    +0.000 HD
ENDROOT
BRANCH  14  19
ATOM     19  C   UNL     1       6.478   3.421  12.555  0.00  0.00    +0.000 A 
ATOM     20  C   UNL     1       7.209   2.587  11.733  0.00  0.00    +0.000 A 
ATOM     21  C   UNL     1       6.293   1.975  10.849  0.00  0.00    +0.000 A 
ATOM     22  C   UNL     1       5.050   2.466  11.181  0.00  0.00    +0.000 A 
ATOM     23  O   UNL     1       5.148   3.344  12.214  0.00  0.00    +0.000 OA
ENDBRANCH  14  19
BRANCH  17  24
ATOM     24  C   UNL     1       7.702   6.896  18.280  0.00  0.00    +0.000 C 
BRANCH  24  25
ATOM     25  C   UNL     1       8.071   8.296  17.751  0.00  0.00    +0.000 C 
ATOM     26  C   UNL     1       6.840   9.104  17.340  0.00  0.00    +0.000 C 
ATOM     27  C   UNL     1       8.859   9.072  18.812  0.00  0.00    +0.000 C 
ENDBRANCH  24  25
ENDBRANCH  17  24
TORSDOF 3
ENDMDL
MODEL 6
REMARK VINA RESULT:      -7.3      2.714      6.644
REMARK  Name = 
REMARK  6 active torsions:
REMARK  status: ('A' for Active; 'I' for Inactive)
REMARK    1  A    between atoms: C_1  and  C_2
REMARK    2  A    between atoms: C_14  and  C_16
REMARK    3  A    between atoms: N_22  and  C_23
REMARK    4  A    between atoms: C_23  and  C_24
REMARK    5  A    between atoms: C_24  and  C_25
REMARK    6  A    between atoms: C_24  and  C_26
REMARK                            x       y       z     vdW  Elec       q    Type
REMARK                         _______ _______ _______ _____ _____    ______ ____
ROOT
ATOM      1  C   UNL     1       6.037   1.992  11.075  0.00  0.00    +0.000 C 
ATOM      2  C   UNL     1       6.405   3.003  12.118  0.00  0.00    +0.000 A 
ATOM      3  C   UNL     1       7.311   4.035  11.870  0.00  0.00    +0.000 A 
ATOM      4  C   UNL     1       7.574   5.002  12.857  0.00  0.00    +0.000 A 
ATOM      5  C   UNL     1       6.938   4.997  14.094  0.00  0.00    +0.000 A 
ATOM      6  N   UNL     1       7.167   6.000  14.971  0.00  0.00    +0.000 NA
ATOM      7  C   UNL     1       6.419   5.943  16.096  0.00  0.00    +0.000 A 
ATOM      8  C   UNL     1       5.515   4.950  16.431  0.00  0.00    +0.000 A 
ATOM      9  C   UNL     1       5.348   3.883  15.546  0.00  0.00    +0.000 A 
ATOM     10  C   UNL     1       6.043   3.929  14.338  0.00  0.00    +0.000 A 
ATOM     11  C   UNL     1       5.798   2.943  13.371  0.00  0.00    +0.000 A 
ATOM     12  C   UNL     1       4.930   5.363  17.653  0.00  0.00    +0.000 A 
ATOM     13  N   UNL     1       3.915   4.655  18.267  0.00  0.00    +0.000 N 
ATOM     14  C   UNL     1       3.243   5.004  19.413  0.00  0.00    +0.000 C 
ATOM     15  O   UNL     1       3.457   5.983  20.117  0.00  0.00    +0.000 OA
ATOM     16  N   UNL     1       5.443   6.518  18.074  0.00  0.00    +0.000 NA
ATOM     17  N   UNL     1       6.344   6.856  17.121  0.00  0.00    +0.000 N 
ATOM     18  H   UNL     1       3.602   3.815  17.803  0.00  0.00    +0.000 HD
ENDROOT
BRANCH  14  19
ATOM     19  C   UNL     1       2.190   4.048  19.725  0.00  0.00    +0.000 A 
ATOM     20  C   UNL     1       1.309   3.366  18.908  0.00  0.00    +0.000 A 
ATOM     21  C   UNL     1       0.499   2.571  19.750  0.00  0.00    +0.000 A 
ATOM     22  C   UNL     1       0.932   2.807  21.036  0.00  0.00    +0.000 A 
ATOM     23  O   UNL     1       1.955   3.700  21.035  0.00  0.00    +0.000 OA
ENDBRANCH  14  19
BRANCH  17  24
ATOM     24  C   UNL     1       6.990   8.155  17.191  0.00  0.00    +0.000 C 
BRANCH  24  25
ATOM     25  C   UNL     1       8.348   8.167  17.922  0.00  0.00    +0.000 C 
ATOM     26  C   UNL     1       8.632   9.510  18.595  0.00  0.00    +0.000 C 
ATOM     27  C   UNL     1       8.394   7.052  18.972  0.00  0.00    +0.000 C 
ENDBRANCH  24  25
ENDBRANCH  17  24
TORSDOF 3
ENDMDL
MODEL 7
REMARK VINA RESULT:      -7.1      0.753      1.148
REMARK  Name = 
REMARK  6 active torsions:
REMARK  status: ('A' for Active; 'I' for Inactive)
REMARK    1  A    between atoms: C_1  and  C_2
REMARK    2  A    between atoms: C_14  and  C_16
REMARK    3  A    between atoms: N_22  and  C_23
REMARK    4  A    between atoms: C_23  and  C_24
REMARK    5  A    between atoms: C_24  and  C_25
REMARK    6  A    between atoms: C_24  and  C_26
REMARK                            x       y       z     vdW  Elec       q    Type
REMARK                         _______ _______ _______ _____ _____    ______ ____
ROOT
ATOM      1  C   UNL     1       0.677   2.601  19.873  0.00  0.00    +0.000 C 
ATOM      2  C   UNL     1       1.662   3.634  19.412  0.00  0.00    +0.000 A 
ATOM      3  C   UNL     1       2.070   4.691  20.226  0.00  0.00    +0.000 A 
ATOM      4  C   UNL     1       3.048   5.596  19.777  0.00  0.00    +0.000 A 
ATOM      5  C   UNL     1       3.666   5.472  18.537  0.00  0.00    +0.000 A 
ATOM      6  N   UNL     1       4.660   6.322  18.194  0.00  0.00    +0.000 NA
ATOM      7  C   UNL     1       5.253   6.043  17.012  0.00  0.00    +0.000 A 
ATOM      8  C   UNL     1       4.901   5.031  16.135  0.00  0.00    +0.000 A 
ATOM      9  C   UNL     1       3.822   4.210  16.473  0.00  0.00    +0.000 A 
ATOM     10  C   UNL     1       3.221   4.411  17.715  0.00  0.00    +0.000 A 
ATOM     11  C   UNL     1       2.224   3.521  18.142  0.00  0.00    +0.000 A 
ATOM     12  C   UNL     1       5.849   5.090  15.085  0.00  0.00    +0.000 A 
ATOM     13  N   UNL     1       5.865   4.176  14.048  0.00  0.00    +0.000 N 
ATOM     14  C   UNL     1       6.777   4.110  13.023  0.00  0.00    +0.000 C 
ATOM     15  O   UNL     1       7.709   4.878  12.822  0.00  0.00    +0.000 OA
ATOM     16  N   UNL     1       6.720   6.080  15.267  0.00  0.00    +0.000 NA
ATOM     17  N   UNL     1       6.345   6.649  16.438  0.00  0.00    +0.000 N 
ATOM     18  H   UNL     1       5.161   3.453  14.069  0.00  0.00    +0.000 HD
ENDROOT
BRANCH  14  19
ATOM     19  C   UNL     1       6.516   2.972  12.151  0.00  0.00    +0.000 A 
ATOM     20  C   UNL     1       7.376   2.137  11.465  0.00  0.00    +0.000 A 
ATOM     21  C   UNL     1       6.575   1.204  10.770  0.00  0.00    +0.000 A 
ATOM     22  C   UNL     1       5.268   1.517  11.072  0.00  0.00    +0.000 A 
ATOM     23  O   UNL     1       5.219   2.587  11.908  0.00  0.00    +0.000 OA
ENDBRANCH  14  19
BRANCH  17  24
ATOM     24  C   UNL     1       7.185   7.683  17.020  0.00  0.00    +0.000 C 
BRANCH  24  25
ATOM     25  C   UNL     1       7.613   7.427  18.478  0.00  0.00    +0.000 C 
ATOM     26  C   UNL     1       8.076   5.987  18.702  0.00  0.00    +0.000 C 
ATOM     27  C   UNL     1       8.735   8.391  18.878  0.00  0.00    +0.000 C 
ENDBRANCH  24  25
ENDBRANCH  17  24
TORSDOF 3
ENDMDL
MODEL 8
REMARK VINA RESULT:      -7.0      3.387      5.899
REMARK  Name = 
REMARK  6 active torsions:
REMARK  status: ('A' for Active; 'I' for Inactive)
REMARK    1  A    between atoms: C_1  and  C_2
REMARK    2  A    between atoms: C_14  and  C_16
REMARK    3  A    between atoms: N_22  and  C_23
REMARK    4  A    between atoms: C_23  and  C_24
REMARK    5  A    between atoms: C_24  and  C_25
REMARK    6  A    between atoms: C_24  and  C_26
REMARK                            x       y       z     vdW  Elec       q    Type
REMARK                         _______ _______ _______ _____ _____    ______ ____
ROOT
ATOM      1  C   UNL     1       1.483  12.824  17.826  0.00  0.00    +0.000 C 
ATOM      2  C   UNL     1       1.507  11.481  18.493  0.00  0.00    +0.000 A 
ATOM      3  C   UNL     1       0.666  11.164  19.560  0.00  0.00    +0.000 A 
ATOM      4  C   UNL     1       0.675   9.870  20.111  0.00  0.00    +0.000 A 
ATOM      5  C   UNL     1       1.483   8.853  19.613  0.00  0.00    +0.000 A 
ATOM      6  N   UNL     1       1.387   7.606  20.126  0.00  0.00    +0.000 NA
ATOM      7  C   UNL     1       2.146   6.681  19.498  0.00  0.00    +0.000 A 
ATOM      8  C   UNL     1       3.019   6.910  18.448  0.00  0.00    +0.000 A 
ATOM      9  C   UNL     1       3.160   8.219  17.981  0.00  0.00    +0.000 A 
ATOM     10  C   UNL     1       2.348   9.200  18.548  0.00  0.00    +0.000 A 
ATOM     11  C   UNL     1       2.368  10.496  18.014  0.00  0.00    +0.000 A 
ATOM     12  C   UNL     1       3.520   5.637  18.084  0.00  0.00    +0.000 A 
ATOM     13  N   UNL     1       4.373   5.455  17.012  0.00  0.00    +0.000 N 
ATOM     14  C   UNL     1       4.860   4.260  16.542  0.00  0.00    +0.000 C 
ATOM     15  O   UNL     1       4.661   3.150  17.018  0.00  0.00    +0.000 OA
ATOM     16  N   UNL     1       3.023   4.676  18.859  0.00  0.00    +0.000 NA
ATOM     17  N   UNL     1       2.193   5.324  19.712  0.00  0.00    +0.000 N 
ATOM     18  H   UNL     1       4.631   6.279  16.490  0.00  0.00    +0.000 HD
ENDROOT
BRANCH  14  19
ATOM     19  C   UNL     1       5.680   4.450  15.352  0.00  0.00    +0.000 A 
ATOM     20  C   UNL     1       6.837   5.176  15.152  0.00  0.00    +0.000 A 
ATOM     21  C   UNL     1       7.199   5.008  13.796  0.00  0.00    +0.000 A 
ATOM     22  C   UNL     1       6.244   4.184  13.242  0.00  0.00    +0.000 A 
ATOM     23  O   UNL     1       5.318   3.839  14.174  0.00  0.00    +0.000 OA
ENDBRANCH  14  19
BRANCH  17  24
ATOM     24  C   UNL     1       1.360   4.545  20.612  0.00  0.00    +0.000 C 
BRANCH  24  25
ATOM     25  C   UNL     1       1.590   3.022  20.556  0.00  0.00    +0.000 C 
ATOM     26  C   UNL     1       1.398   2.356  21.919  0.00  0.00    +0.000 C 
ATOM     27  C   UNL     1       0.641   2.380  19.537  0.00  0.00    +0.000 C 
ENDBRANCH  24  25
ENDBRANCH  17  24
TORSDOF 3
ENDMDL
MODEL 9
REMARK VINA RESULT:      -7.0      4.430      7.177
REMARK  Name = 
REMARK  6 active torsions:
REMARK  status: ('A' for Active; 'I' for Inactive)
REMARK    1  A    between atoms: C_1  and  C_2
REMARK    2  A    between atoms: C_14  and  C_16
REMARK    3  A    between atoms: N_22  and  C_23
REMARK    4  A    between atoms: C_23  and  C_24
REMARK    5  A    between atoms: C_24  and  C_25
REMARK    6  A    between atoms: C_24  and  C_26
REMARK                            x       y       z     vdW  Elec       q    Type
REMARK                         _______ _______ _______ _____ _____    ______ ____
ROOT
ATOM      1  C   UNL     1       1.059   1.871  22.478  0.00  0.00    +0.000 C 
ATOM      2  C   UNL     1       1.931   2.643  21.533  0.00  0.00    +0.000 A 
ATOM      3  C   UNL     1       2.967   2.043  20.817  0.00  0.00    +0.000 A 
ATOM      4  C   UNL     1       3.714   2.792  19.890  0.00  0.00    +0.000 A 
ATOM      5  C   UNL     1       3.448   4.131  19.624  0.00  0.00    +0.000 A 
ATOM      6  N   UNL     1       4.144   4.776  18.661  0.00  0.00    +0.000 NA
ATOM      7  C   UNL     1       3.731   6.041  18.423  0.00  0.00    +0.000 A 
ATOM      8  C   UNL     1       2.729   6.718  19.096  0.00  0.00    +0.000 A 
ATOM      9  C   UNL     1       2.072   6.059  20.139  0.00  0.00    +0.000 A 
ATOM     10  C   UNL     1       2.412   4.729  20.379  0.00  0.00    +0.000 A 
ATOM     11  C   UNL     1       1.682   3.999  21.328  0.00  0.00    +0.000 A 
ATOM     12  C   UNL     1       2.611   7.970  18.446  0.00  0.00    +0.000 A 
ATOM     13  N   UNL     1       1.651   8.900  18.795  0.00  0.00    +0.000 N 
ATOM     14  C   UNL     1       1.416  10.109  18.187  0.00  0.00    +0.000 C 
ATOM     15  O   UNL     1       2.046  10.595  17.257  0.00  0.00    +0.000 OA
ATOM     16  N   UNL     1       3.489   8.089  17.452  0.00  0.00    +0.000 NA
ATOM     17  N   UNL     1       4.161   6.913  17.451  0.00  0.00    +0.000 N 
ATOM     18  H   UNL     1       1.027   8.649  19.547  0.00  0.00    +0.000 HD
ENDROOT
BRANCH  14  19
ATOM     19  C   UNL     1       0.278  10.794  18.786  0.00  0.00    +0.000 A 
ATOM     20  C   UNL     1      -1.081  10.628  18.606  0.00  0.00    +0.000 A 
ATOM     21  C   UNL     1      -1.725  11.568  19.441  0.00  0.00    +0.000 A 
ATOM     22  C   UNL     1      -0.723  12.256  20.089  0.00  0.00    +0.000 A 
ATOM     23  O   UNL     1       0.495  11.798  19.701  0.00  0.00    +0.000 OA
ENDBRANCH  14  19
BRANCH  17  24
ATOM     24  C   UNL     1       5.107   6.642  16.381  0.00  0.00    +0.000 C 
BRANCH  24  25
ATOM     25  C   UNL     1       6.454   6.051  16.840  0.00  0.00    +0.000 C 
ATOM     26  C   UNL     1       7.123   5.216  15.747  0.00  0.00    +0.000 C 
ATOM     27  C   UNL     1       7.403   7.172  17.277  0.00  0.00    +0.000 C 
ENDBRANCH  24  25
ENDBRANCH  17  24
TORSDOF 3
ENDMDL
