MODEL 1
REMARK VINA RESULT:      -7.5      0.000      0.000
REMARK  Name = 
REMARK  4 active torsions:
REMARK  status: ('A' for Active; 'I' for Inactive)
REMARK    1  A    between atoms: C_1  and  C_2
REMARK    2  A    between atoms: C_6  and  C_7
REMARK    3  A    between atoms: C_8  and  O_9
REMARK    4  A    between atoms: C_18  and  O_19
REMARK                            x       y       z     vdW  Elec       q    Type
REMARK                         _______ _______ _______ _____ _____    ______ ____
ROOT
ATOM      1  C   UNL     1       2.087   7.970  18.975  0.00  0.00    +0.000 A 
ATOM      2  C   UNL     1       1.697   9.173  18.372  0.00  0.00    +0.000 A 
ATOM      3  N   UNL     1       1.043  10.183  18.987  0.00  0.00    +0.000 NA
ATOM      4  C   UNL     1       0.690  10.021  20.270  0.00  0.00    +0.000 A 
ATOM      5  C   UNL     1      -0.005  11.021  20.933  0.00  0.00    +0.000 A 
ATOM      6  C   UNL     1      -0.395  10.850  22.255  0.00  0.00    +0.000 A 
ATOM      7 CL   UNL     1      -1.262  12.078  23.081  0.00  0.00    +0.000 Cl
ATOM      8  C   UNL     1      -0.071   9.663  22.889  0.00  0.00    +0.000 A 
ATOM      9  N   UNL     1       0.614   8.661  22.289  0.00  0.00    +0.000 NA
ATOM     10  C   UNL     1       0.981   8.856  21.000  0.00  0.00    +0.000 A 
ATOM     11  C   UNL     1       1.692   7.866  20.324  0.00  0.00    +0.000 A 
ENDROOT
BRANCH   1  17
ATOM     12  C   UNL     1       2.492   3.170  17.466  0.00  0.00    +0.000 C 
ATOM     13  C   UNL     1       3.058   4.559  17.506  0.00  0.00    +0.000 A 
ATOM     14  C   UNL     1       4.329   4.828  16.997  0.00  0.00    +0.000 A 
ATOM     15  C   UNL     1       4.861   6.108  17.107  0.00  0.00    +0.000 A 
ATOM     16  C   UNL     1       4.140   7.112  17.763  0.00  0.00    +0.000 A 
ATOM     17  C   UNL     1       2.845   6.894  18.270  0.00  0.00    +0.000 A 
ATOM     18  C   UNL     1       2.317   5.598  18.097  0.00  0.00    +0.000 A 
ENDBRANCH   1  17
BRANCH   2  19
ATOM     19  O   UNL     1       1.906   9.443  17.050  0.00  0.00    +0.000 OA
ATOM     20  H   UNL     1       1.696   8.643  16.548  0.00  0.00    +0.000 HD
ENDBRANCH   2  19
BRANCH  11  21
ATOM     21  O   UNL     1       2.008   6.741  21.070  0.00  0.00    +0.000 OA
ATOM     22  H   UNL     1       2.985   6.664  21.012  0.00  0.00    +0.000 HD
ENDBRANCH  11  21
TORSDOF 3
ENDMDL
MODEL 2
REMARK VINA RESULT:      -7.3      0.356      1.530
REMARK  Name = 
REMARK  4 active torsions:
REMARK  status: ('A' for Active; 'I' for Inactive)
REMARK    1  A    between atoms: C_1  and  C_2
REMARK    2  A    between atoms: C_6  and  C_7
REMARK    3  A    between atoms: C_8  and  O_9
REMARK    4  A    between atoms: C_18  and  O_19
REMARK                            x       y       z     vdW  Elec       q    Type
REMARK                         _______ _______ _______ _____ _____    ______ ____
ROOT
ATOM      1  C   UNL     1       2.013   7.983  19.079  0.00  0.00    +0.000 A 
ATOM      2  C   UNL     1       1.665   9.185  18.448  0.00  0.00    +0.000 A 
ATOM      3  N   UNL     1       1.034  10.226  19.037  0.00  0.00    +0.000 NA
ATOM      4  C   UNL     1       0.664  10.099  20.318  0.00  0.00    +0.000 A 
ATOM      5  C   UNL     1      -0.009  11.131  20.955  0.00  0.00    +0.000 A 
ATOM      6  C   UNL     1      -0.417  10.997  22.276  0.00  0.00    +0.000 A 
ATOM      7 CL   UNL     1      -1.256  12.266  23.068  0.00  0.00    +0.000 Cl
ATOM      8  C   UNL     1      -0.133   9.815  22.936  0.00  0.00    +0.000 A 
ATOM      9  N   UNL     1       0.529   8.782  22.363  0.00  0.00    +0.000 NA
ATOM     10  C   UNL     1       0.914   8.941  21.074  0.00  0.00    +0.000 A 
ATOM     11  C   UNL     1       1.602   7.917  20.425  0.00  0.00    +0.000 A 
ENDROOT
BRANCH   1  17
ATOM     12  C   UNL     1       6.015   6.319  16.491  0.00  0.00    +0.000 C 
ATOM     13  C   UNL     1       4.700   6.031  17.153  0.00  0.00    +0.000 A 
ATOM     14  C   UNL     1       4.106   4.773  17.047  0.00  0.00    +0.000 A 
ATOM     15  C   UNL     1       2.855   4.550  17.612  0.00  0.00    +0.000 A 
ATOM     16  C   UNL     1       2.177   5.594  18.250  0.00  0.00    +0.000 A 
ATOM     17  C   UNL     1       2.747   6.873  18.403  0.00  0.00    +0.000 A 
ATOM     18  C   UNL     1       4.038   7.050  17.862  0.00  0.00    +0.000 A 
ENDBRANCH   1  17
BRANCH   2  19
ATOM     19  O   UNL     1       1.894   9.423  17.124  0.00  0.00    +0.000 OA
ATOM     20  H   UNL     1       2.569   8.798  16.823  0.00  0.00    +0.000 HD
ENDBRANCH   2  19
BRANCH  11  21
ATOM     21  O   UNL     1       1.878   6.799  21.195  0.00  0.00    +0.000 OA
ATOM     22  H   UNL     1       1.007   6.375  21.350  0.00  0.00    +0.000 HD
ENDBRANCH  11  21
TORSDOF 3
ENDMDL
MODEL 3
REMARK VINA RESULT:      -7.2      1.067      2.915
REMARK  Name = 
REMARK  4 active torsions:
REMARK  status: ('A' for Active; 'I' for Inactive)
REMARK    1  A    between atoms: C_1  and  C_2
REMARK    2  A    between atoms: C_6  and  C_7
REMARK    3  A    between atoms: C_8  and  O_9
REMARK    4  A    between atoms: C_18  and  O_19
REMARK                            x       y       z     vdW  Elec       q    Type
REMARK                         _______ _______ _______ _____ _____    ______ ____
ROOT
ATOM      1  C   UNL     1       2.486   6.987  18.979  0.00  0.00    +0.000 A 
ATOM      2  C   UNL     1       2.076   6.763  20.300  0.00  0.00    +0.000 A 
ATOM      3  N   UNL     1       1.353   7.622  21.053  0.00  0.00    +0.000 NA
ATOM      4  C   UNL     1       1.028   8.810  20.524  0.00  0.00    +0.000 A 
ATOM      5  C   UNL     1       0.310   9.732  21.269  0.00  0.00    +0.000 A 
ATOM      6  C   UNL     1      -0.008  10.975  20.736  0.00  0.00    +0.000 A 
ATOM      7 CL   UNL     1      -0.890  12.125  21.654  0.00  0.00    +0.000 Cl
ATOM      8  C   UNL     1       0.407  11.264  19.448  0.00  0.00    +0.000 A 
ATOM      9  N   UNL     1       1.101  10.396  18.676  0.00  0.00    +0.000 NA
ATOM     10  C   UNL     1       1.397   9.192  19.222  0.00  0.00    +0.000 A 
ATOM     11  C   UNL     1       2.108   8.250  18.481  0.00  0.00    +0.000 A 
ENDROOT
BRANCH   1  17
ATOM     12  C   UNL     1       6.633   5.704  16.403  0.00  0.00    +0.000 C 
ATOM     13  C   UNL     1       5.273   5.337  16.918  0.00  0.00    +0.000 A 
ATOM     14  C   UNL     1       4.671   4.132  16.552  0.00  0.00    +0.000 A 
ATOM     15  C   UNL     1       3.382   3.844  16.987  0.00  0.00    +0.000 A 
ATOM     16  C   UNL     1       2.676   4.777  17.753  0.00  0.00    +0.000 A 
ATOM     17  C   UNL     1       3.250   5.994  18.167  0.00  0.00    +0.000 A 
ATOM     18  C   UNL     1       4.577   6.231  17.750  0.00  0.00    +0.000 A 
ENDBRANCH   1  17
BRANCH   2  19
ATOM     19  O   UNL     1       2.408   5.640  21.001  0.00  0.00    +0.000 OA
ATOM     20  H   UNL     1       1.642   5.049  20.992  0.00  0.00    +0.000 HD
ENDBRANCH   2  19
BRANCH  11  21
ATOM     21  O   UNL     1       2.428   8.625  17.186  0.00  0.00    +0.000 OA
ATOM     22  H   UNL     1       3.289   8.192  17.001  0.00  0.00    +0.000 HD
ENDBRANCH  11  21
TORSDOF 3
ENDMDL
MODEL 4
REMARK VINA RESULT:      -7.2      0.862      2.400
REMARK  Name = 
REMARK  4 active torsions:
REMARK  status: ('A' for Active; 'I' for Inactive)
REMARK    1  A    between atoms: C_1  and  C_2
REMARK    2  A    between atoms: C_6  and  C_7
REMARK    3  A    between atoms: C_8  and  O_9
REMARK    4  A    between atoms: C_18  and  O_19
REMARK                            x       y       z     vdW  Elec       q    Type
REMARK                         _______ _______ _______ _____ _____    ______ ____
ROOT
ATOM      1  C   UNL     1       2.244   7.366  19.070  0.00  0.00    +0.000 A 
ATOM      2  C   UNL     1       1.870   7.197  20.409  0.00  0.00    +0.000 A 
ATOM      3  N   UNL     1       1.200   8.102  21.157  0.00  0.00    +0.000 NA
ATOM      4  C   UNL     1       0.896   9.283  20.601  0.00  0.00    +0.000 A 
ATOM      5  C   UNL     1       0.232  10.250  21.339  0.00  0.00    +0.000 A 
ATOM      6  C   UNL     1      -0.064  11.486  20.777  0.00  0.00    +0.000 A 
ATOM      7 CL   UNL     1      -0.878  12.691  21.685  0.00  0.00    +0.000 Cl
ATOM      8  C   UNL     1       0.318  11.722  19.468  0.00  0.00    +0.000 A 
ATOM      9  N   UNL     1       0.959  10.808  18.703  0.00  0.00    +0.000 NA
ATOM     10  C   UNL     1       1.235   9.613  19.277  0.00  0.00    +0.000 A 
ATOM     11  C   UNL     1       1.891   8.625  18.544  0.00  0.00    +0.000 A 
ENDROOT
BRANCH   1  17
ATOM     12  C   UNL     1       2.574   2.623  17.377  0.00  0.00    +0.000 C 
ATOM     13  C   UNL     1       3.124   4.018  17.411  0.00  0.00    +0.000 A 
ATOM     14  C   UNL     1       4.340   4.323  16.799  0.00  0.00    +0.000 A 
ATOM     15  C   UNL     1       4.862   5.607  16.901  0.00  0.00    +0.000 A 
ATOM     16  C   UNL     1       4.191   6.579  17.651  0.00  0.00    +0.000 A 
ATOM     17  C   UNL     1       2.950   6.325  18.265  0.00  0.00    +0.000 A 
ATOM     18  C   UNL     1       2.425   5.027  18.098  0.00  0.00    +0.000 A 
ENDBRANCH   1  17
BRANCH   2  19
ATOM     19  O   UNL     1       2.189   6.086  21.135  0.00  0.00    +0.000 OA
ATOM     20  H   UNL     1       2.754   5.525  20.585  0.00  0.00    +0.000 HD
ENDBRANCH   2  19
BRANCH  11  21
ATOM     21  O   UNL     1       2.180   8.950  17.228  0.00  0.00    +0.000 OA
ATOM     22  H   UNL     1       2.437   9.897  17.251  0.00  0.00    +0.000 HD
ENDBRANCH  11  21
TORSDOF 3
ENDMDL
MODEL 5
REMARK VINA RESULT:      -7.1      4.715      6.399
REMARK  Name = 
REMARK  4 active torsions:
REMARK  status: ('A' for Active; 'I' for Inactive)
REMARK    1  A    between atoms: C_1  and  C_2
REMARK    2  A    between atoms: C_6  and  C_7
REMARK    3  A    between atoms: C_8  and  O_9
REMARK    4  A    between atoms: C_18  and  O_19
REMARK                            x       y       z     vdW  Elec       q    Type
REMARK                         _______ _______ _______ _____ _____    ______ ____
ROOT
ATOM      1  C   UNL     1       5.277   4.758  15.748  0.00  0.00    +0.000 A 
ATOM      2  C   UNL     1       4.914   6.019  16.239  0.00  0.00    +0.000 A 
ATOM      3  N   UNL     1       4.325   6.257  17.432  0.00  0.00    +0.000 NA
ATOM      4  C   UNL     1       4.015   5.208  18.206  0.00  0.00    +0.000 A 
ATOM      5  C   UNL     1       3.387   5.403  19.426  0.00  0.00    +0.000 A 
ATOM      6  C   UNL     1       3.041   4.319  20.223  0.00  0.00    +0.000 A 
ATOM      7 CL   UNL     1       2.257   4.552  21.730  0.00  0.00    +0.000 Cl
ATOM      8  C   UNL     1       3.341   3.047  19.769  0.00  0.00    +0.000 A 
ATOM      9  N   UNL     1       3.962   2.803  18.591  0.00  0.00    +0.000 NA
ATOM     10  C   UNL     1       4.287   3.879  17.835  0.00  0.00    +0.000 A 
ATOM     11  C   UNL     1       4.930   3.700  16.612  0.00  0.00    +0.000 A 
ENDROOT
BRANCH   1  17
ATOM     12  C   UNL     1       5.607   2.348  11.326  0.00  0.00    +0.000 C 
ATOM     13  C   UNL     1       6.136   3.390  12.266  0.00  0.00    +0.000 A 
ATOM     14  C   UNL     1       7.320   4.073  11.984  0.00  0.00    +0.000 A 
ATOM     15  C   UNL     1       7.827   4.986  12.903  0.00  0.00    +0.000 A 
ATOM     16  C   UNL     1       7.173   5.188  14.123  0.00  0.00    +0.000 A 
ATOM     17  C   UNL     1       5.963   4.541  14.440  0.00  0.00    +0.000 A 
ATOM     18  C   UNL     1       5.452   3.660  13.465  0.00  0.00    +0.000 A 
ENDBRANCH   1  17
BRANCH   2  19
ATOM     19  O   UNL     1       5.082   7.171  15.525  0.00  0.00    +0.000 OA
ATOM     20  H   UNL     1       5.214   6.928  14.598  0.00  0.00    +0.000 HD
ENDBRANCH   2  19
BRANCH  11  21
ATOM     21  O   UNL     1       5.228   2.388  16.280  0.00  0.00    +0.000 OA
ATOM     22  H   UNL     1       6.119   2.226  16.660  0.00  0.00    +0.000 HD
ENDBRANCH  11  21
TORSDOF 3
ENDMDL
MODEL 6
REMARK VINA RESULT:      -6.8      1.237      1.340
REMARK  Name = 
REMARK  4 active torsions:
REMARK  status: ('A' for Active; 'I' for Inactive)
REMARK    1  A    between atoms: C_1  and  C_2
REMARK    2  A    between atoms: C_6  and  C_7
REMARK    3  A    between atoms: C_8  and  O_9
REMARK    4  A    between atoms: C_18  and  O_19
REMARK                            x       y       z     vdW  Elec       q    Type
REMARK                         _______ _______ _______ _____ _____    ______ ____
ROOT
ATOM      1  C   UNL     1       2.446   7.227  19.066  0.00  0.00    +0.000 A 
ATOM      2  C   UNL     1       2.385   8.260  18.121  0.00  0.00    +0.000 A 
ATOM      3  N   UNL     1       1.779   9.454  18.304  0.00  0.00    +0.000 NA
ATOM      4  C   UNL     1       1.141   9.671  19.461  0.00  0.00    +0.000 A 
ATOM      5  C   UNL     1       0.483  10.871  19.681  0.00  0.00    +0.000 A 
ATOM      6  C   UNL     1      -0.202  11.093  20.870  0.00  0.00    +0.000 A 
ATOM      7 CL   UNL     1      -1.024  12.573  21.146  0.00  0.00    +0.000 Cl
ATOM      8  C   UNL     1      -0.207  10.090  21.822  0.00  0.00    +0.000 A 
ATOM      9  N   UNL     1       0.426   8.905  21.661  0.00  0.00    +0.000 NA
ATOM     10  C   UNL     1       1.085   8.717  20.493  0.00  0.00    +0.000 A 
ATOM     11  C   UNL     1       1.761   7.520  20.262  0.00  0.00    +0.000 A 
ENDROOT
BRANCH   1  17
ATOM     12  C   UNL     1       2.389   2.379  17.661  0.00  0.00    +0.000 C 
ATOM     13  C   UNL     1       3.163   3.570  18.141  0.00  0.00    +0.000 A 
ATOM     14  C   UNL     1       4.510   3.456  18.488  0.00  0.00    +0.000 A 
ATOM     15  C   UNL     1       5.189   4.558  18.996  0.00  0.00    +0.000 A 
ATOM     16  C   UNL     1       4.513   5.766  19.197  0.00  0.00    +0.000 A 
ATOM     17  C   UNL     1       3.161   5.935  18.840  0.00  0.00    +0.000 A 
ATOM     18  C   UNL     1       2.518   4.812  18.281  0.00  0.00    +0.000 A 
ENDBRANCH   1  17
BRANCH   2  19
ATOM     19  O   UNL     1       2.910   8.151  16.866  0.00  0.00    +0.000 OA
ATOM     20  H   UNL     1       3.449   7.348  16.839  0.00  0.00    +0.000 HD
ENDBRANCH   2  19
BRANCH  11  21
ATOM     21  O   UNL     1       1.733   6.607  21.304  0.00  0.00    +0.000 OA
ATOM     22  H   UNL     1       1.694   5.727  20.870  0.00  0.00    +0.000 HD
ENDBRANCH  11  21
TORSDOF 3
ENDMDL
MODEL 7
REMARK VINA RESULT:      -6.7      3.236      7.849
REMARK  Name = 
REMARK  4 active torsions:
REMARK  status: ('A' for Active; 'I' for Inactive)
REMARK    1  A    between atoms: C_1  and  C_2
REMARK    2  A    between atoms: C_6  and  C_7
REMARK    3  A    between atoms: C_8  and  O_9
REMARK    4  A    between atoms: C_18  and  O_19
REMARK                            x       y       z     vdW  Elec       q    Type
REMARK                         _______ _______ _______ _____ _____    ______ ____
ROOT
ATOM      1  C   UNL     1      -0.474  11.011  22.066  0.00  0.00    +0.000 A 
ATOM      2  C   UNL     1       0.079   9.883  22.687  0.00  0.00    +0.000 A 
ATOM      3  N   UNL     1       0.833   8.942  22.075  0.00  0.00    +0.000 NA
ATOM      4  C   UNL     1       1.045   9.058  20.758  0.00  0.00    +0.000 A 
ATOM      5  C   UNL     1       1.790   8.102  20.085  0.00  0.00    +0.000 A 
ATOM      6  C   UNL     1       1.993   8.202  18.714  0.00  0.00    +0.000 A 
ATOM      7 CL   UNL     1       2.908   7.020  17.873  0.00  0.00    +0.000 Cl
ATOM      8  C   UNL     1       1.437   9.277  18.043  0.00  0.00    +0.000 A 
ATOM      9  N   UNL     1       0.710  10.241  18.655  0.00  0.00    +0.000 NA
ATOM     10  C   UNL     1       0.528  10.117  19.991  0.00  0.00    +0.000 A 
ATOM     11  C   UNL     1      -0.208  11.077  20.684  0.00  0.00    +0.000 A 
ENDROOT
BRANCH   1  17
ATOM     12  C   UNL     1      -4.748  12.471  24.320  0.00  0.00    +0.000 C 
ATOM     13  C   UNL     1      -3.339  12.781  23.908  0.00  0.00    +0.000 A 
ATOM     14  C   UNL     1      -2.807  14.059  24.086  0.00  0.00    +0.000 A 
ATOM     15  C   UNL     1      -1.522  14.341  23.635  0.00  0.00    +0.000 A 
ATOM     16  C   UNL     1      -0.782  13.360  22.968  0.00  0.00    +0.000 A 
ATOM     17  C   UNL     1      -1.268  12.051  22.786  0.00  0.00    +0.000 A 
ATOM     18  C   UNL     1      -2.554  11.785  23.301  0.00  0.00    +0.000 A 
ENDBRANCH   1  17
BRANCH   2  19
ATOM     19  O   UNL     1      -0.127   9.583  24.002  0.00  0.00    +0.000 OA
ATOM     20  H   UNL     1      -0.189  10.417  24.490  0.00  0.00    +0.000 HD
ENDBRANCH   2  19
BRANCH  11  21
ATOM     21  O   UNL     1      -0.675  12.137  19.923  0.00  0.00    +0.000 OA
ATOM     22  H   UNL     1      -1.296  11.733  19.278  0.00  0.00    +0.000 HD
ENDBRANCH  11  21
TORSDOF 3
ENDMDL
MODEL 8
REMARK VINA RESULT:      -6.7      4.827      6.674
REMARK  Name = 
REMARK  4 active torsions:
REMARK  status: ('A' for Active; 'I' for Inactive)
REMARK    1  A    between atoms: C_1  and  C_2
REMARK    2  A    between atoms: C_6  and  C_7
REMARK    3  A    between atoms: C_8  and  O_9
REMARK    4  A    between atoms: C_18  and  O_19
REMARK                            x       y       z     vdW  Elec       q    Type
REMARK                         _______ _______ _______ _____ _____    ______ ____
ROOT
ATOM      1  C   UNL     1       5.263   4.650  15.809  0.00  0.00    +0.000 A 
ATOM      2  C   UNL     1       4.868   5.880  16.351  0.00  0.00    +0.000 A 
ATOM      3  N   UNL     1       4.257   6.051  17.545  0.00  0.00    +0.000 NA
ATOM      4  C   UNL     1       3.956   4.962  18.265  0.00  0.00    +0.000 A 
ATOM      5  C   UNL     1       3.306   5.088  19.482  0.00  0.00    +0.000 A 
ATOM      6  C   UNL     1       2.969   3.962  20.222  0.00  0.00    +0.000 A 
ATOM      7 CL   UNL     1       2.158   4.109  21.726  0.00  0.00    +0.000 Cl
ATOM      8  C   UNL     1       3.301   2.718  19.715  0.00  0.00    +0.000 A 
ATOM      9  N   UNL     1       3.944   2.541  18.537  0.00  0.00    +0.000 NA
ATOM     10  C   UNL     1       4.259   3.657  17.837  0.00  0.00    +0.000 A 
ATOM     11  C   UNL     1       4.924   3.547  16.617  0.00  0.00    +0.000 A 
ENDROOT
BRANCH   1  17
ATOM     12  C   UNL     1       8.992   5.996  12.685  0.00  0.00    +0.000 C 
ATOM     13  C   UNL     1       7.797   5.134  12.966  0.00  0.00    +0.000 A 
ATOM     14  C   UNL     1       7.277   4.290  11.985  0.00  0.00    +0.000 A 
ATOM     15  C   UNL     1       6.128   3.552  12.246  0.00  0.00    +0.000 A 
ATOM     16  C   UNL     1       5.473   3.687  13.474  0.00  0.00    +0.000 A 
ATOM     17  C   UNL     1       5.973   4.507  14.503  0.00  0.00    +0.000 A 
ATOM     18  C   UNL     1       7.168   5.202  14.222  0.00  0.00    +0.000 A 
ENDBRANCH   1  17
BRANCH   2  19
ATOM     19  O   UNL     1       5.025   7.067  15.695  0.00  0.00    +0.000 OA
ATOM     20  H   UNL     1       4.721   7.773  16.282  0.00  0.00    +0.000 HD
ENDBRANCH   2  19
BRANCH  11  21
ATOM     21  O   UNL     1       5.253   2.258  16.230  0.00  0.00    +0.000 OA
ATOM     22  H   UNL     1       5.604   2.348  15.317  0.00  0.00    +0.000 HD
ENDBRANCH  11  21
TORSDOF 3
ENDMDL
MODEL 9
REMARK VINA RESULT:      -6.6      3.128      6.346
REMARK  Name = 
REMARK  4 active torsions:
REMARK  status: ('A' for Active; 'I' for Inactive)
REMARK    1  A    between atoms: C_1  and  C_2
REMARK    2  A    between atoms: C_6  and  C_7
REMARK    3  A    between atoms: C_8  and  O_9
REMARK    4  A    between atoms: C_18  and  O_19
REMARK                            x       y       z     vdW  Elec       q    Type
REMARK                         _______ _______ _______ _____ _____    ______ ____
ROOT
ATOM      1  C   UNL     1       1.276   9.282  19.357  0.00  0.00    +0.000 A 
ATOM      2  C   UNL     1       1.947   9.305  18.127  0.00  0.00    +0.000 A 
ATOM      3  N   UNL     1       2.683   8.292  17.616  0.00  0.00    +0.000 NA
ATOM      4  C   UNL     1       2.830   7.182  18.351  0.00  0.00    +0.000 A 
ATOM      5  C   UNL     1       3.597   6.129  17.878  0.00  0.00    +0.000 A 
ATOM      6  C   UNL     1       3.774   4.984  18.645  0.00  0.00    +0.000 A 
ATOM      7 CL   UNL     1       4.728   3.680  18.070  0.00  0.00    +0.000 Cl
ATOM      8  C   UNL     1       3.166   4.924  19.886  0.00  0.00    +0.000 A 
ATOM      9  N   UNL     1       2.399   5.920  20.390  0.00  0.00    +0.000 NA
ATOM     10  C   UNL     1       2.245   7.023  19.619  0.00  0.00    +0.000 A 
ATOM     11  C   UNL     1       1.466   8.085  20.076  0.00  0.00    +0.000 A 
ENDROOT
BRANCH   1  17
ATOM     12  C   UNL     1      -2.972  12.003  19.193  0.00  0.00    +0.000 C 
ATOM     13  C   UNL     1      -1.634  11.741  19.820  0.00  0.00    +0.000 A 
ATOM     14  C   UNL     1      -1.118  12.602  20.789  0.00  0.00    +0.000 A 
ATOM     15  C   UNL     1       0.153  12.378  21.307  0.00  0.00    +0.000 A 
ATOM     16  C   UNL     1       0.927  11.316  20.827  0.00  0.00    +0.000 A 
ATOM     17  C   UNL     1       0.440  10.408  19.868  0.00  0.00    +0.000 A 
ATOM     18  C   UNL     1      -0.872  10.636  19.402  0.00  0.00    +0.000 A 
ENDBRANCH   1  17
BRANCH   2  19
ATOM     19  O   UNL     1       1.965  10.398  17.310  0.00  0.00    +0.000 OA
ATOM     20  H   UNL     1       2.287  10.115  16.443  0.00  0.00    +0.000 HD
ENDBRANCH   2  19
BRANCH  11  21
ATOM     21  O   UNL     1       0.862   7.897  21.309  0.00  0.00    +0.000 OA
ATOM     22  H   UNL     1       1.557   8.109  21.968  0.00  0.00    +0.000 HD
ENDBRANCH  11  21
TORSDOF 3
ENDMDL
