MODEL 1
REMARK VINA RESULT:      -8.4      0.000      0.000
REMARK  Name = 
REMARK  6 active torsions:
REMARK  status: ('A' for Active; 'I' for Inactive)
REMARK    1  A    between atoms: C_1  and  C_2
REMARK    2  A    between atoms: N_4  and  C_5
REMARK    3  A    between atoms: C_5  and  C_6
REMARK    4  A    between atoms: C_9  and  N_10
REMARK    5  A    between atoms: C_18  and  C_19
REMARK    6  A    between atoms: C_22  and  C_23
REMARK                            x       y       z     vdW  Elec       q    Type
REMARK                         _______ _______ _______ _____ _____    ______ ____
ROOT
ATOM      1  C   UNL     1       0.903  14.365  20.579  0.00  0.00    +0.000 C 
ATOM      2  C   UNL     1       0.286  12.973  20.617  0.00  0.00    +0.000 C 
ATOM      3  C   UNL     1       1.357  11.909  20.869  0.00  0.00    +0.000 C 
ATOM      4  N   UNL     1       0.641  10.767  21.447  0.00  0.00    +0.000 NA
ATOM      5  C   UNL     1      -0.365  11.383  22.332  0.00  0.00    +0.000 C 
ATOM      6  C   UNL     1      -0.718  12.765  21.762  0.00  0.00    +0.000 C 
ENDROOT
BRANCH   6   7
ATOM      7  C   UNL     1      -2.173  12.877  21.302  0.00  0.00    +0.000 A 
ATOM      8  N   UNL     1      -2.589  12.304  20.215  0.00  0.00    +0.000 NA
ATOM      9  N   UNL     1      -3.910  12.489  19.932  0.00  0.00    +0.000 N 
ATOM     10  C   UNL     1      -4.647  11.974  18.880  0.00  0.00    +0.000 A 
ATOM     11  N   UNL     1      -5.898  12.393  18.933  0.00  0.00    +0.000 NA
ATOM     12  C   UNL     1      -5.980  13.180  20.058  0.00  0.00    +0.000 A 
ATOM     13  C   UNL     1      -4.762  13.231  20.688  0.00  0.00    +0.000 A 
ATOM     14  C   UNL     1      -4.310  13.862  21.874  0.00  0.00    +0.000 A 
ATOM     15  O   UNL     1      -5.003  14.523  22.643  0.00  0.00    +0.000 OA
ATOM     16  N   UNL     1      -2.974  13.654  22.111  0.00  0.00    +0.000 N 
ATOM     17  H   UNL     1      -2.624  14.063  22.965  0.00  0.00    +0.000 HD
BRANCH  10  18
ATOM     18  C   UNL     1      -4.115  11.050  17.821  0.00  0.00    +0.000 C 
ATOM     19  C   UNL     1      -2.619  10.761  17.980  0.00  0.00    +0.000 C 
ATOM     20  C   UNL     1      -2.127   9.869  16.849  0.00  0.00    +0.000 C 
ATOM     21  O   UNL     1      -2.439  10.446  15.582  0.00  0.00    +0.000 OA
ATOM     22  C   UNL     1      -3.845  10.569  15.378  0.00  0.00    +0.000 C 
ATOM     23  C   UNL     1      -4.454  11.516  16.404  0.00  0.00    +0.000 C 
ENDBRANCH  10  18
ENDBRANCH   6   7
BRANCH   4  24
ATOM     24  C   UNL     1       0.026   9.908  20.414  0.00  0.00    +0.000 C 
BRANCH  24  25
ATOM     25  C   UNL     1       1.024   8.993  19.727  0.00  0.00    +0.000 A 
ATOM     26  C   UNL     1       1.539   7.872  20.380  0.00  0.00    +0.000 A 
ATOM     27  C   UNL     1       2.455   7.027  19.736  0.00  0.00    +0.000 A 
ATOM     28  C   UNL     1       2.893   7.248  18.421  0.00  0.00    +0.000 A 
ATOM     29  C   UNL     1       2.384   8.392  17.791  0.00  0.00    +0.000 A 
ATOM     30  C   UNL     1       1.465   9.248  18.424  0.00  0.00    +0.000 A 
BRANCH  28  31
ATOM     31  N   UNL     1       3.805   6.417  17.816  0.00  0.00    +0.000 N 
ATOM     32  C   UNL     1       4.763   6.852  16.811  0.00  0.00    +0.000 C 
ATOM     33  C   UNL     1       5.051   5.555  16.070  0.00  0.00    +0.000 C 
ATOM     34  C   UNL     1       5.007   4.487  17.158  0.00  0.00    +0.000 C 
ATOM     35  C   UNL     1       4.176   5.091  18.300  0.00  0.00    +0.000 C 
ENDBRANCH  28  31
ENDBRANCH  24  25
ENDBRANCH   4  24
TORSDOF 5
ENDMDL
MODEL 2
REMARK VINA RESULT:      -8.4      2.444      4.871
REMARK  Name = 
REMARK  6 active torsions:
REMARK  status: ('A' for Active; 'I' for Inactive)
REMARK    1  A    between atoms: C_1  and  C_2
REMARK    2  A    between atoms: N_4  and  C_5
REMARK    3  A    between atoms: C_5  and  C_6
REMARK    4  A    between atoms: C_9  and  N_10
REMARK    5  A    between atoms: C_18  and  C_19
REMARK    6  A    between atoms: C_22  and  C_23
REMARK                            x       y       z     vdW  Elec       q    Type
REMARK                         _______ _______ _______ _____ _____    ______ ____
ROOT
ATOM      1  C   UNL     1      -3.970  11.668  18.644  0.00  0.00    +0.000 C 
ATOM      2  C   UNL     1      -2.554  11.593  19.202  0.00  0.00    +0.000 C 
ATOM      3  C   UNL     1      -1.639  10.805  18.262  0.00  0.00    +0.000 C 
ATOM      4  N   UNL     1      -0.281  11.272  18.559  0.00  0.00    +0.000 NA
ATOM      5  C   UNL     1      -0.441  12.719  18.795  0.00  0.00    +0.000 C 
ATOM      6  C   UNL     1      -1.861  12.959  19.332  0.00  0.00    +0.000 C 
ENDROOT
BRANCH   6   7
ATOM      7  C   UNL     1      -1.883  13.501  20.762  0.00  0.00    +0.000 A 
ATOM      8  N   UNL     1      -2.990  13.622  21.427  0.00  0.00    +0.000 NA
ATOM      9  N   UNL     1      -2.856  14.117  22.691  0.00  0.00    +0.000 N 
ATOM     10  C   UNL     1      -3.835  14.317  23.648  0.00  0.00    +0.000 A 
ATOM     11  N   UNL     1      -3.320  14.832  24.749  0.00  0.00    +0.000 NA
ATOM     12  C   UNL     1      -1.970  14.948  24.509  0.00  0.00    +0.000 A 
ATOM     13  C   UNL     1      -1.674  14.494  23.248  0.00  0.00    +0.000 A 
ATOM     14  C   UNL     1      -0.463  14.368  22.523  0.00  0.00    +0.000 A 
ATOM     15  O   UNL     1       0.657  14.647  22.943  0.00  0.00    +0.000 OA
ATOM     16  N   UNL     1      -0.651  13.874  21.256  0.00  0.00    +0.000 N 
ATOM     17  H   UNL     1       0.195  13.741  20.721  0.00  0.00    +0.000 HD
BRANCH  10  18
ATOM     18  C   UNL     1      -5.291  13.983  23.479  0.00  0.00    +0.000 C 
ATOM     19  C   UNL     1      -6.219  15.099  23.969  0.00  0.00    +0.000 C 
ATOM     20  C   UNL     1      -7.675  14.681  23.827  0.00  0.00    +0.000 C 
ATOM     21  O   UNL     1      -7.911  13.444  24.496  0.00  0.00    +0.000 OA
ATOM     22  C   UNL     1      -7.156  12.374  23.931  0.00  0.00    +0.000 C 
ATOM     23  C   UNL     1      -5.663  12.630  24.088  0.00  0.00    +0.000 C 
ENDBRANCH  10  18
ENDBRANCH   6   7
BRANCH   4  24
ATOM     24  C   UNL     1       0.310  10.579  19.722  0.00  0.00    +0.000 C 
BRANCH  24  25
ATOM     25  C   UNL     1       1.119   9.352  19.337  0.00  0.00    +0.000 A 
ATOM     26  C   UNL     1       1.557   9.162  18.026  0.00  0.00    +0.000 A 
ATOM     27  C   UNL     1       2.309   8.030  17.679  0.00  0.00    +0.000 A 
ATOM     28  C   UNL     1       2.668   7.046  18.613  0.00  0.00    +0.000 A 
ATOM     29  C   UNL     1       2.197   7.241  19.919  0.00  0.00    +0.000 A 
ATOM     30  C   UNL     1       1.441   8.371  20.281  0.00  0.00    +0.000 A 
BRANCH  28  31
ATOM     31  N   UNL     1       3.390   5.936  18.247  0.00  0.00    +0.000 N 
ATOM     32  C   UNL     1       4.613   5.982  17.459  0.00  0.00    +0.000 C 
ATOM     33  C   UNL     1       4.640   4.592  16.840  0.00  0.00    +0.000 C 
ATOM     34  C   UNL     1       4.066   3.690  17.928  0.00  0.00    +0.000 C 
ATOM     35  C   UNL     1       3.246   4.611  18.843  0.00  0.00    +0.000 C 
ENDBRANCH  28  31
ENDBRANCH  24  25
ENDBRANCH   4  24
TORSDOF 5
ENDMDL
MODEL 3
REMARK VINA RESULT:      -8.3      4.601     11.036
REMARK  Name = 
REMARK  6 active torsions:
REMARK  status: ('A' for Active; 'I' for Inactive)
REMARK    1  A    between atoms: C_1  and  C_2
REMARK    2  A    between atoms: N_4  and  C_5
REMARK    3  A    between atoms: C_5  and  C_6
REMARK    4  A    between atoms: C_9  and  N_10
REMARK    5  A    between atoms: C_18  and  C_19
REMARK    6  A    between atoms: C_22  and  C_23
REMARK                            x       y       z     vdW  Elec       q    Type
REMARK                         _______ _______ _______ _____ _____    ______ ____
ROOT
ATOM      1  C   UNL     1       2.394   2.508  17.262  0.00  0.00    +0.000 C 
ATOM      2  C   UNL     1       2.817   3.926  17.624  0.00  0.00    +0.000 C 
ATOM      3  C   UNL     1       1.965   4.473  18.771  0.00  0.00    +0.000 C 
ATOM      4  N   UNL     1       2.781   5.518  19.398  0.00  0.00    +0.000 NA
ATOM      5  C   UNL     1       4.152   4.975  19.360  0.00  0.00    +0.000 C 
ATOM      6  C   UNL     1       4.257   4.033  18.151  0.00  0.00    +0.000 C 
ENDROOT
BRANCH   6   7
ATOM      7  C   UNL     1       5.242   4.522  17.087  0.00  0.00    +0.000 A 
ATOM      8  N   UNL     1       5.258   4.020  15.891  0.00  0.00    +0.000 NA
ATOM      9  N   UNL     1       6.188   4.555  15.050  0.00  0.00    +0.000 N 
ATOM     10  C   UNL     1       6.416   4.262  13.717  0.00  0.00    +0.000 A 
ATOM     11  N   UNL     1       7.420   4.977  13.242  0.00  0.00    +0.000 NA
ATOM     12  C   UNL     1       7.838   5.770  14.286  0.00  0.00    +0.000 A 
ATOM     13  C   UNL     1       7.073   5.527  15.400  0.00  0.00    +0.000 A 
ATOM     14  C   UNL     1       7.062   6.075  16.706  0.00  0.00    +0.000 A 
ATOM     15  O   UNL     1       7.792   6.976  17.112  0.00  0.00    +0.000 OA
ATOM     16  N   UNL     1       6.115   5.499  17.517  0.00  0.00    +0.000 N 
ATOM     17  H   UNL     1       6.058   5.888  18.447  0.00  0.00    +0.000 HD
BRANCH  10  18
ATOM     18  C   UNL     1       5.628   3.277  12.901  0.00  0.00    +0.000 C 
ATOM     19  C   UNL     1       6.515   2.364  12.048  0.00  0.00    +0.000 C 
ATOM     20  C   UNL     1       5.660   1.431  11.203  0.00  0.00    +0.000 C 
ATOM     21  O   UNL     1       4.730   2.174  10.417  0.00  0.00    +0.000 OA
ATOM     22  C   UNL     1       3.806   2.902  11.223  0.00  0.00    +0.000 C 
ATOM     23  C   UNL     1       4.533   3.942  12.064  0.00  0.00    +0.000 C 
ENDBRANCH  10  18
ENDBRANCH   6   7
BRANCH   4  24
ATOM     24  C   UNL     1       2.674   6.813  18.695  0.00  0.00    +0.000 C 
BRANCH  24  25
ATOM     25  C   UNL     1       1.928   7.866  19.497  0.00  0.00    +0.000 A 
ATOM     26  C   UNL     1       1.612   7.657  20.840  0.00  0.00    +0.000 A 
ATOM     27  C   UNL     1       0.930   8.637  21.576  0.00  0.00    +0.000 A 
ATOM     28  C   UNL     1       0.541   9.865  21.020  0.00  0.00    +0.000 A 
ATOM     29  C   UNL     1       0.845  10.047  19.664  0.00  0.00    +0.000 A 
ATOM     30  C   UNL     1       1.528   9.073  18.914  0.00  0.00    +0.000 A 
BRANCH  28  31
ATOM     31  N   UNL     1      -0.143  10.804  21.755  0.00  0.00    +0.000 N 
ATOM     32  C   UNL     1      -0.827  10.518  23.008  0.00  0.00    +0.000 C 
ATOM     33  C   UNL     1      -1.867  11.628  23.057  0.00  0.00    +0.000 C 
ATOM     34  C   UNL     1      -1.158  12.829  22.440  0.00  0.00    +0.000 C 
ATOM     35  C   UNL     1      -0.022  12.248  21.586  0.00  0.00    +0.000 C 
ENDBRANCH  28  31
ENDBRANCH  24  25
ENDBRANCH   4  24
TORSDOF 5
ENDMDL
MODEL 4
REMARK VINA RESULT:      -8.3      2.080      3.349
REMARK  Name = 
REMARK  6 active torsions:
REMARK  status: ('A' for Active; 'I' for Inactive)
REMARK    1  A    between atoms: C_1  and  C_2
REMARK    2  A    between atoms: N_4  and  C_5
REMARK    3  A    between atoms: C_5  and  C_6
REMARK    4  A    between atoms: C_9  and  N_10
REMARK    5  A    between atoms: C_18  and  C_19
REMARK    6  A    between atoms: C_22  and  C_23
REMARK                            x       y       z     vdW  Elec       q    Type
REMARK                         _______ _______ _______ _____ _____    ______ ____
ROOT
ATOM      1  C   UNL     1      -2.299  10.589  16.990  0.00  0.00    +0.000 C 
ATOM      2  C   UNL     1      -1.374  10.549  18.199  0.00  0.00    +0.000 C 
ATOM      3  C   UNL     1       0.017  10.046  17.806  0.00  0.00    +0.000 C 
ATOM      4  N   UNL     1       0.926  10.577  18.826  0.00  0.00    +0.000 NA
ATOM      5  C   UNL     1       0.408  11.931  19.100  0.00  0.00    +0.000 C 
ATOM      6  C   UNL     1      -1.104  11.926  18.827  0.00  0.00    +0.000 C 
ENDROOT
BRANCH   6   7
ATOM      7  C   UNL     1      -1.947  12.182  20.078  0.00  0.00    +0.000 A 
ATOM      8  N   UNL     1      -3.238  12.285  20.020  0.00  0.00    +0.000 NA
ATOM      9  N   UNL     1      -3.855  12.512  21.215  0.00  0.00    +0.000 N 
ATOM     10  C   UNL     1      -5.209  12.623  21.479  0.00  0.00    +0.000 A 
ATOM     11  N   UNL     1      -5.421  12.862  22.761  0.00  0.00    +0.000 NA
ATOM     12  C   UNL     1      -4.176  12.882  23.346  0.00  0.00    +0.000 A 
ATOM     13  C   UNL     1      -3.206  12.652  22.402  0.00  0.00    +0.000 A 
ATOM     14  C   UNL     1      -1.795  12.544  22.469  0.00  0.00    +0.000 A 
ATOM     15  O   UNL     1      -1.117  12.620  23.490  0.00  0.00    +0.000 OA
ATOM     16  N   UNL     1      -1.220  12.325  21.241  0.00  0.00    +0.000 N 
ATOM     17  H   UNL     1      -0.216  12.211  21.255  0.00  0.00    +0.000 HD
BRANCH  10  18
ATOM     18  C   UNL     1      -6.304  12.480  20.460  0.00  0.00    +0.000 C 
ATOM     19  C   UNL     1      -6.048  11.342  19.467  0.00  0.00    +0.000 C 
ATOM     20  C   UNL     1      -7.158  11.284  18.427  0.00  0.00    +0.000 C 
ATOM     21  O   UNL     1      -7.309  12.546  17.781  0.00  0.00    +0.000 OA
ATOM     22  C   UNL     1      -7.700  13.573  18.690  0.00  0.00    +0.000 C 
ATOM     23  C   UNL     1      -6.622  13.794  19.744  0.00  0.00    +0.000 C 
ENDBRANCH  10  18
ENDBRANCH   6   7
BRANCH   4  24
ATOM     24  C   UNL     1       0.961   9.737  20.041  0.00  0.00    +0.000 C 
BRANCH  24  25
ATOM     25  C   UNL     1       1.531   8.352  19.791  0.00  0.00    +0.000 A 
ATOM     26  C   UNL     1       1.379   7.332  20.733  0.00  0.00    +0.000 A 
ATOM     27  C   UNL     1       1.901   6.052  20.492  0.00  0.00    +0.000 A 
ATOM     28  C   UNL     1       2.585   5.725  19.311  0.00  0.00    +0.000 A 
ATOM     29  C   UNL     1       2.749   6.768  18.390  0.00  0.00    +0.000 A 
ATOM     30  C   UNL     1       2.232   8.056  18.618  0.00  0.00    +0.000 A 
BRANCH  28  31
ATOM     31  N   UNL     1       3.104   4.469  19.105  0.00  0.00    +0.000 N 
ATOM     32  C   UNL     1       4.094   4.154  18.085  0.00  0.00    +0.000 C 
ATOM     33  C   UNL     1       3.856   2.667  17.867  0.00  0.00    +0.000 C 
ATOM     34  C   UNL     1       3.498   2.140  19.253  0.00  0.00    +0.000 C 
ATOM     35  C   UNL     1       3.006   3.359  20.047  0.00  0.00    +0.000 C 
ENDBRANCH  28  31
ENDBRANCH  24  25
ENDBRANCH   4  24
TORSDOF 5
ENDMDL
MODEL 5
REMARK VINA RESULT:      -8.3      2.200      3.917
REMARK  Name = 
REMARK  6 active torsions:
REMARK  status: ('A' for Active; 'I' for Inactive)
REMARK    1  A    between atoms: C_1  and  C_2
REMARK    2  A    between atoms: N_4  and  C_5
REMARK    3  A    between atoms: C_5  and  C_6
REMARK    4  A    between atoms: C_9  and  N_10
REMARK    5  A    between atoms: C_18  and  C_19
REMARK    6  A    between atoms: C_22  and  C_23
REMARK                            x       y       z     vdW  Elec       q    Type
REMARK                         _______ _______ _______ _____ _____    ______ ____
ROOT
ATOM      1  C   UNL     1      -2.739   9.915  17.450  0.00  0.00    +0.000 C 
ATOM      2  C   UNL     1      -1.573  10.142  18.404  0.00  0.00    +0.000 C 
ATOM      3  C   UNL     1      -0.245   9.777  17.738  0.00  0.00    +0.000 C 
ATOM      4  N   UNL     1       0.776  10.542  18.461  0.00  0.00    +0.000 NA
ATOM      5  C   UNL     1       0.131  11.841  18.728  0.00  0.00    +0.000 C 
ATOM      6  C   UNL     1      -1.385  11.609  18.823  0.00  0.00    +0.000 C 
ENDROOT
BRANCH   6   7
ATOM      7  C   UNL     1      -1.956  11.906  20.211  0.00  0.00    +0.000 A 
ATOM      8  N   UNL     1      -3.113  12.474  20.364  0.00  0.00    +0.000 NA
ATOM      9  N   UNL     1      -3.493  12.674  21.658  0.00  0.00    +0.000 N 
ATOM     10  C   UNL     1      -4.676  13.210  22.137  0.00  0.00    +0.000 A 
ATOM     11  N   UNL     1      -4.670  13.260  23.456  0.00  0.00    +0.000 NA
ATOM     12  C   UNL     1      -3.464  12.722  23.844  0.00  0.00    +0.000 A 
ATOM     13  C   UNL     1      -2.739  12.344  22.741  0.00  0.00    +0.000 A 
ATOM     14  C   UNL     1      -1.474  11.728  22.578  0.00  0.00    +0.000 A 
ATOM     15  O   UNL     1      -0.733  11.360  23.486  0.00  0.00    +0.000 OA
ATOM     16  N   UNL     1      -1.133  11.555  21.259  0.00  0.00    +0.000 N 
ATOM     17  H   UNL     1      -0.250  11.089  21.106  0.00  0.00    +0.000 HD
BRANCH  10  18
ATOM     18  C   UNL     1      -5.827  13.664  21.284  0.00  0.00    +0.000 C 
ATOM     19  C   UNL     1      -6.484  12.518  20.510  0.00  0.00    +0.000 C 
ATOM     20  C   UNL     1      -7.601  13.047  19.622  0.00  0.00    +0.000 C 
ATOM     21  O   UNL     1      -7.116  14.077  18.763  0.00  0.00    +0.000 OA
ATOM     22  C   UNL     1      -6.646  15.210  19.491  0.00  0.00    +0.000 C 
ATOM     23  C   UNL     1      -5.458  14.830  20.364  0.00  0.00    +0.000 C 
ENDBRANCH  10  18
ENDBRANCH   6   7
BRANCH   4  24
ATOM     24  C   UNL     1       1.210   9.869  19.702  0.00  0.00    +0.000 C 
BRANCH  24  25
ATOM     25  C   UNL     1       1.702   8.451  19.471  0.00  0.00    +0.000 A 
ATOM     26  C   UNL     1       2.343   8.097  18.282  0.00  0.00    +0.000 A 
ATOM     27  C   UNL     1       2.802   6.787  18.079  0.00  0.00    +0.000 A 
ATOM     28  C   UNL     1       2.655   5.777  19.041  0.00  0.00    +0.000 A 
ATOM     29  C   UNL     1       1.987   6.144  20.217  0.00  0.00    +0.000 A 
ATOM     30  C   UNL     1       1.521   7.453  20.435  0.00  0.00    +0.000 A 
BRANCH  28  31
ATOM     31  N   UNL     1       3.096   4.495  18.812  0.00  0.00    +0.000 N 
ATOM     32  C   UNL     1       3.438   3.973  17.497  0.00  0.00    +0.000 C 
ATOM     33  C   UNL     1       3.248   2.477  17.695  0.00  0.00    +0.000 C 
ATOM     34  C   UNL     1       3.705   2.230  19.130  0.00  0.00    +0.000 C 
ATOM     35  C   UNL     1       3.594   3.587  19.841  0.00  0.00    +0.000 C 
ENDBRANCH  28  31
ENDBRANCH  24  25
ENDBRANCH   4  24
TORSDOF 5
ENDMDL
MODEL 6
REMARK VINA RESULT:      -8.2      3.246      9.642
REMARK  Name = 
REMARK  6 active torsions:
REMARK  status: ('A' for Active; 'I' for Inactive)
REMARK    1  A    between atoms: C_1  and  C_2
REMARK    2  A    between atoms: N_4  and  C_5
REMARK    3  A    between atoms: C_5  and  C_6
REMARK    4  A    between atoms: C_9  and  N_10
REMARK    5  A    between atoms: C_18  and  C_19
REMARK    6  A    between atoms: C_22  and  C_23
REMARK                            x       y       z     vdW  Elec       q    Type
REMARK                         _______ _______ _______ _____ _____    ______ ____
ROOT
ATOM      1  C   UNL     1       1.337   8.899  22.206  0.00  0.00    +0.000 C 
ATOM      2  C   UNL     1       1.029   8.813  20.717  0.00  0.00    +0.000 C 
ATOM      3  C   UNL     1       0.545  10.162  20.180  0.00  0.00    +0.000 C 
ATOM      4  N   UNL     1       0.835  10.137  18.743  0.00  0.00    +0.000 NA
ATOM      5  C   UNL     1       2.137   9.448  18.651  0.00  0.00    +0.000 C 
ATOM      6  C   UNL     1       2.252   8.487  19.844  0.00  0.00    +0.000 C 
ENDROOT
BRANCH   6   7
ATOM      7  C   UNL     1       2.309   7.015  19.431  0.00  0.00    +0.000 A 
ATOM      8  N   UNL     1       3.124   6.597  18.512  0.00  0.00    +0.000 NA
ATOM      9  N   UNL     1       3.065   5.259  18.250  0.00  0.00    +0.000 N 
ATOM     10  C   UNL     1       3.830   4.518  17.367  0.00  0.00    +0.000 A 
ATOM     11  N   UNL     1       3.466   3.249  17.379  0.00  0.00    +0.000 NA
ATOM     12  C   UNL     1       2.457   3.160  18.310  0.00  0.00    +0.000 A 
ATOM     13  C   UNL     1       2.215   4.392  18.863  0.00  0.00    +0.000 A 
ATOM     14  C   UNL     1       1.321   4.846  19.864  0.00  0.00    +0.000 A 
ATOM     15  O   UNL     1       0.540   4.143  20.500  0.00  0.00    +0.000 OA
ATOM     16  N   UNL     1       1.412   6.198  20.085  0.00  0.00    +0.000 N 
ATOM     17  H   UNL     1       0.810   6.552  20.816  0.00  0.00    +0.000 HD
BRANCH  10  18
ATOM     18  C   UNL     1       4.937   5.066  16.512  0.00  0.00    +0.000 C 
ATOM     19  C   UNL     1       5.310   4.137  15.352  0.00  0.00    +0.000 C 
ATOM     20  C   UNL     1       6.474   4.717  14.560  0.00  0.00    +0.000 C 
ATOM     21  O   UNL     1       7.580   4.988  15.417  0.00  0.00    +0.000 OA
ATOM     22  C   UNL     1       7.271   5.972  16.402  0.00  0.00    +0.000 C 
ATOM     23  C   UNL     1       6.167   5.475  17.326  0.00  0.00    +0.000 C 
ENDBRANCH  10  18
ENDBRANCH   6   7
BRANCH   4  24
ATOM     24  C   UNL     1      -0.217   9.447  17.969  0.00  0.00    +0.000 C 
BRANCH  24  25
ATOM     25  C   UNL     1      -1.565  10.142  18.043  0.00  0.00    +0.000 A 
ATOM     26  C   UNL     1      -2.667   9.650  17.342  0.00  0.00    +0.000 A 
ATOM     27  C   UNL     1      -3.911  10.293  17.421  0.00  0.00    +0.000 A 
ATOM     28  C   UNL     1      -4.121  11.440  18.201  0.00  0.00    +0.000 A 
ATOM     29  C   UNL     1      -2.997  11.934  18.878  0.00  0.00    +0.000 A 
ATOM     30  C   UNL     1      -1.743  11.300  18.807  0.00  0.00    +0.000 A 
BRANCH  28  31
ATOM     31  N   UNL     1      -5.344  12.064  18.250  0.00  0.00    +0.000 N 
ATOM     32  C   UNL     1      -5.987  12.504  19.480  0.00  0.00    +0.000 C 
ATOM     33  C   UNL     1      -7.453  12.526  19.076  0.00  0.00    +0.000 C 
ATOM     34  C   UNL     1      -7.432  12.984  17.621  0.00  0.00    +0.000 C 
ATOM     35  C   UNL     1      -6.021  12.665  17.105  0.00  0.00    +0.000 C 
ENDBRANCH  28  31
ENDBRANCH  24  25
ENDBRANCH   4  24
TORSDOF 5
ENDMDL
MODEL 7
REMARK VINA RESULT:      -8.2      2.225      3.523
REMARK  Name = 
REMARK  6 active torsions:
REMARK  status: ('A' for Active; 'I' for Inactive)
REMARK    1  A    between atoms: C_1  and  C_2
REMARK    2  A    between atoms: N_4  and  C_5
REMARK    3  A    between atoms: C_5  and  C_6
REMARK    4  A    between atoms: C_9  and  N_10
REMARK    5  A    between atoms: C_18  and  C_19
REMARK    6  A    between atoms: C_22  and  C_23
REMARK                            x       y       z     vdW  Elec       q    Type
REMARK                         _______ _______ _______ _____ _____    ______ ____
ROOT
ATOM      1  C   UNL     1      -2.008  10.261  16.914  0.00  0.00    +0.000 C 
ATOM      2  C   UNL     1      -1.102  10.281  18.137  0.00  0.00    +0.000 C 
ATOM      3  C   UNL     1       0.298   9.771  17.787  0.00  0.00    +0.000 C 
ATOM      4  N   UNL     1       1.189  10.354  18.795  0.00  0.00    +0.000 NA
ATOM      5  C   UNL     1       0.658  11.715  19.001  0.00  0.00    +0.000 C 
ATOM      6  C   UNL     1      -0.850  11.687  18.706  0.00  0.00    +0.000 C 
ENDROOT
BRANCH   6   7
ATOM      7  C   UNL     1      -1.712  11.993  19.933  0.00  0.00    +0.000 A 
ATOM      8  N   UNL     1      -2.992  12.177  19.836  0.00  0.00    +0.000 NA
ATOM      9  N   UNL     1      -3.630  12.440  21.012  0.00  0.00    +0.000 N 
ATOM     10  C   UNL     1      -4.982  12.635  21.236  0.00  0.00    +0.000 A 
ATOM     11  N   UNL     1      -5.216  12.884  22.512  0.00  0.00    +0.000 NA
ATOM     12  C   UNL     1      -3.991  12.824  23.134  0.00  0.00    +0.000 A 
ATOM     13  C   UNL     1      -3.010  12.535  22.219  0.00  0.00    +0.000 A 
ATOM     14  C   UNL     1      -1.611  12.338  22.328  0.00  0.00    +0.000 A 
ATOM     15  O   UNL     1      -0.961  12.369  23.370  0.00  0.00    +0.000 OA
ATOM     16  N   UNL     1      -1.014  12.086  21.118  0.00  0.00    +0.000 N 
ATOM     17  H   UNL     1      -0.020  11.909  21.162  0.00  0.00    +0.000 HD
BRANCH  10  18
ATOM     18  C   UNL     1      -6.052  12.564  20.184  0.00  0.00    +0.000 C 
ATOM     19  C   UNL     1      -5.917  11.335  19.280  0.00  0.00    +0.000 C 
ATOM     20  C   UNL     1      -6.991  11.348  18.200  0.00  0.00    +0.000 C 
ATOM     21  O   UNL     1      -6.950  12.570  17.467  0.00  0.00    +0.000 OA
ATOM     22  C   UNL     1      -7.230  13.702  18.288  0.00  0.00    +0.000 C 
ATOM     23  C   UNL     1      -6.168  13.854  19.369  0.00  0.00    +0.000 C 
ENDBRANCH  10  18
ENDBRANCH   6   7
BRANCH   4  24
ATOM     24  C   UNL     1       1.212   9.570  20.047  0.00  0.00    +0.000 C 
BRANCH  24  25
ATOM     25  C   UNL     1       1.612   8.120  19.834  0.00  0.00    +0.000 A 
ATOM     26  C   UNL     1       2.353   7.735  18.716  0.00  0.00    +0.000 A 
ATOM     27  C   UNL     1       2.725   6.395  18.530  0.00  0.00    +0.000 A 
ATOM     28  C   UNL     1       2.389   5.384  19.443  0.00  0.00    +0.000 A 
ATOM     29  C   UNL     1       1.624   5.785  20.546  0.00  0.00    +0.000 A 
ATOM     30  C   UNL     1       1.243   7.125  20.746  0.00  0.00    +0.000 A 
BRANCH  28  31
ATOM     31  N   UNL     1       2.749   4.075  19.231  0.00  0.00    +0.000 N 
ATOM     32  C   UNL     1       3.545   3.287  20.161  0.00  0.00    +0.000 C 
ATOM     33  C   UNL     1       4.150   2.236  19.243  0.00  0.00    +0.000 C 
ATOM     34  C   UNL     1       3.051   1.955  18.223  0.00  0.00    +0.000 C 
ATOM     35  C   UNL     1       2.140   3.191  18.242  0.00  0.00    +0.000 C 
ENDBRANCH  28  31
ENDBRANCH  24  25
ENDBRANCH   4  24
TORSDOF 5
ENDMDL
MODEL 8
REMARK VINA RESULT:      -8.2      2.391      4.212
REMARK  Name = 
REMARK  6 active torsions:
REMARK  status: ('A' for Active; 'I' for Inactive)
REMARK    1  A    between atoms: C_1  and  C_2
REMARK    2  A    between atoms: N_4  and  C_5
REMARK    3  A    between atoms: C_5  and  C_6
REMARK    4  A    between atoms: C_9  and  N_10
REMARK    5  A    between atoms: C_18  and  C_19
REMARK    6  A    between atoms: C_22  and  C_23
REMARK                            x       y       z     vdW  Elec       q    Type
REMARK                         _______ _______ _______ _____ _____    ______ ____
ROOT
ATOM      1  C   UNL     1      -2.411  10.052  17.366  0.00  0.00    +0.000 C 
ATOM      2  C   UNL     1      -1.304  10.135  18.409  0.00  0.00    +0.000 C 
ATOM      3  C   UNL     1       0.030   9.663  17.827  0.00  0.00    +0.000 C 
ATOM      4  N   UNL     1       1.062  10.302  18.648  0.00  0.00    +0.000 NA
ATOM      5  C   UNL     1       0.525  11.650  18.916  0.00  0.00    +0.000 C 
ATOM      6  C   UNL     1      -1.008  11.564  18.894  0.00  0.00    +0.000 C 
ENDROOT
BRANCH   6   7
ATOM      7  C   UNL     1      -1.651  11.874  20.248  0.00  0.00    +0.000 A 
ATOM      8  N   UNL     1      -2.711  12.616  20.344  0.00  0.00    +0.000 NA
ATOM      9  N   UNL     1      -3.172  12.805  21.613  0.00  0.00    +0.000 N 
ATOM     10  C   UNL     1      -4.294  13.501  22.029  0.00  0.00    +0.000 A 
ATOM     11  N   UNL     1      -4.402  13.476  23.345  0.00  0.00    +0.000 NA
ATOM     12  C   UNL     1      -3.340  12.726  23.792  0.00  0.00    +0.000 A 
ATOM     13  C   UNL     1      -2.585  12.295  22.729  0.00  0.00    +0.000 A 
ATOM     14  C   UNL     1      -1.426  11.488  22.628  0.00  0.00    +0.000 A 
ATOM     15  O   UNL     1      -0.840  10.953  23.566  0.00  0.00    +0.000 OA
ATOM     16  N   UNL     1      -0.995  11.334  21.333  0.00  0.00    +0.000 N 
ATOM     17  H   UNL     1      -0.188  10.738  21.221  0.00  0.00    +0.000 HD
BRANCH  10  18
ATOM     18  C   UNL     1      -5.273  14.187  21.119  0.00  0.00    +0.000 C 
ATOM     19  C   UNL     1      -5.985  15.366  21.789  0.00  0.00    +0.000 C 
ATOM     20  C   UNL     1      -7.003  15.982  20.839  0.00  0.00    +0.000 C 
ATOM     21  O   UNL     1      -7.915  14.991  20.370  0.00  0.00    +0.000 OA
ATOM     22  C   UNL     1      -7.263  13.974  19.612  0.00  0.00    +0.000 C 
ATOM     23  C   UNL     1      -6.268  13.215  20.480  0.00  0.00    +0.000 C 
ENDBRANCH  10  18
ENDBRANCH   6   7
BRANCH   4  24
ATOM     24  C   UNL     1       1.335   9.553  19.892  0.00  0.00    +0.000 C 
BRANCH  24  25
ATOM     25  C   UNL     1       1.748   8.113  19.642  0.00  0.00    +0.000 A 
ATOM     26  C   UNL     1       1.518   7.123  20.600  0.00  0.00    +0.000 A 
ATOM     27  C   UNL     1       1.895   5.794  20.359  0.00  0.00    +0.000 A 
ATOM     28  C   UNL     1       2.506   5.386  19.163  0.00  0.00    +0.000 A 
ATOM     29  C   UNL     1       2.751   6.398  18.225  0.00  0.00    +0.000 A 
ATOM     30  C   UNL     1       2.379   7.735  18.452  0.00  0.00    +0.000 A 
BRANCH  28  31
ATOM     31  N   UNL     1       2.883   4.081  18.956  0.00  0.00    +0.000 N 
ATOM     32  C   UNL     1       3.034   3.097  20.019  0.00  0.00    +0.000 C 
ATOM     33  C   UNL     1       4.006   2.107  19.394  0.00  0.00    +0.000 C 
ATOM     34  C   UNL     1       3.615   2.082  17.920  0.00  0.00    +0.000 C 
ATOM     35  C   UNL     1       2.872   3.402  17.664  0.00  0.00    +0.000 C 
ENDBRANCH  28  31
ENDBRANCH  24  25
ENDBRANCH   4  24
TORSDOF 5
ENDMDL
MODEL 9
REMARK VINA RESULT:      -8.2      1.595      3.891
REMARK  Name = 
REMARK  6 active torsions:
REMARK  status: ('A' for Active; 'I' for Inactive)
REMARK    1  A    between atoms: C_1  and  C_2
REMARK    2  A    between atoms: N_4  and  C_5
REMARK    3  A    between atoms: C_5  and  C_6
REMARK    4  A    between atoms: C_9  and  N_10
REMARK    5  A    between atoms: C_18  and  C_19
REMARK    6  A    between atoms: C_22  and  C_23
REMARK                            x       y       z     vdW  Elec       q    Type
REMARK                         _______ _______ _______ _____ _____    ______ ____
ROOT
ATOM      1  C   UNL     1       1.121  13.647  18.589  0.00  0.00    +0.000 C 
ATOM      2  C   UNL     1       0.645  12.207  18.733  0.00  0.00    +0.000 C 
ATOM      3  C   UNL     1       1.735  11.332  19.356  0.00  0.00    +0.000 C 
ATOM      4  N   UNL     1       1.027  10.200  19.963  0.00  0.00    +0.000 NA
ATOM      5  C   UNL     1      -0.197  10.802  20.526  0.00  0.00    +0.000 C 
ATOM      6  C   UNL     1      -0.552  12.036  19.682  0.00  0.00    +0.000 C 
ENDROOT
BRANCH   6   7
ATOM      7  C   UNL     1      -1.882  11.898  18.938  0.00  0.00    +0.000 A 
ATOM      8  N   UNL     1      -3.018  12.093  19.533  0.00  0.00    +0.000 NA
ATOM      9  N   UNL     1      -4.119  11.936  18.744  0.00  0.00    +0.000 N 
ATOM     10  C   UNL     1      -5.451  12.117  19.075  0.00  0.00    +0.000 A 
ATOM     11  N   UNL     1      -6.232  11.851  18.045  0.00  0.00    +0.000 NA
ATOM     12  C   UNL     1      -5.387  11.513  17.014  0.00  0.00    +0.000 A 
ATOM     13  C   UNL     1      -4.081  11.578  17.433  0.00  0.00    +0.000 A 
ATOM     14  C   UNL     1      -2.843  11.360  16.780  0.00  0.00    +0.000 A 
ATOM     15  O   UNL     1      -2.697  11.068  15.596  0.00  0.00    +0.000 OA
ATOM     16  N   UNL     1      -1.766  11.521  17.617  0.00  0.00    +0.000 N 
ATOM     17  H   UNL     1      -0.864  11.404  17.178  0.00  0.00    +0.000 HD
BRANCH  10  18
ATOM     18  C   UNL     1      -5.955  12.568  20.417  0.00  0.00    +0.000 C 
ATOM     19  C   UNL     1      -4.843  12.672  21.466  0.00  0.00    +0.000 C 
ATOM     20  C   UNL     1      -5.422  13.076  22.815  0.00  0.00    +0.000 C 
ATOM     21  O   UNL     1      -6.458  12.177  23.207  0.00  0.00    +0.000 OA
ATOM     22  C   UNL     1      -7.561  12.200  22.303  0.00  0.00    +0.000 C 
ATOM     23  C   UNL     1      -7.131  11.729  20.921  0.00  0.00    +0.000 C 
ENDBRANCH  10  18
ENDBRANCH   6   7
BRANCH   4  24
ATOM     24  C   UNL     1       0.726   9.135  18.985  0.00  0.00    +0.000 C 
BRANCH  24  25
ATOM     25  C   UNL     1       1.911   8.226  18.710  0.00  0.00    +0.000 A 
ATOM     26  C   UNL     1       2.703   8.402  17.574  0.00  0.00    +0.000 A 
ATOM     27  C   UNL     1       3.801   7.563  17.331  0.00  0.00    +0.000 A 
ATOM     28  C   UNL     1       4.165   6.523  18.200  0.00  0.00    +0.000 A 
ATOM     29  C   UNL     1       3.342   6.346  19.321  0.00  0.00    +0.000 A 
ATOM     30  C   UNL     1       2.239   7.179  19.578  0.00  0.00    +0.000 A 
BRANCH  28  31
ATOM     31  N   UNL     1       5.234   5.701  17.932  0.00  0.00    +0.000 N 
ATOM     32  C   UNL     1       6.187   5.249  18.935  0.00  0.00    +0.000 C 
ATOM     33  C   UNL     1       7.412   4.943  18.087  0.00  0.00    +0.000 C 
ATOM     34  C   UNL     1       6.837   4.389  16.788  0.00  0.00    +0.000 C 
ATOM     35  C   UNL     1       5.393   4.909  16.717  0.00  0.00    +0.000 C 
ENDBRANCH  28  31
ENDBRANCH  24  25
ENDBRANCH   4  24
TORSDOF 5
ENDMDL
