MODEL 1
REMARK VINA RESULT:      -8.0      0.000      0.000
REMARK  Name = 
REMARK  1 active torsions:
REMARK  status: ('A' for Active; 'I' for Inactive)
REMARK    1  A    between atoms: N_3  and  C_4
REMARK                            x       y       z     vdW  Elec       q    Type
REMARK                         _______ _______ _______ _____ _____    ______ ____
ROOT
ATOM      1  O   UNL     1       1.899   8.646  17.789  0.00  0.00    +0.000 OA
ATOM      2  C   UNL     1       1.832   8.129  18.899  0.00  0.00    +0.000 C 
ATOM      3  N   UNL     1       2.262   6.853  19.202  0.00  0.00    +0.000 N 
ATOM      4  N   UNL     1       1.338   8.846  19.968  0.00  0.00    +0.000 N 
ATOM      5  C   UNL     1       1.043   8.407  21.315  0.00  0.00    +0.000 C 
ATOM      6  C   UNL     1       1.013   9.681  22.166  0.00  0.00    +0.000 C 
ATOM      7  C   UNL     1      -0.014   9.626  23.300  0.00  0.00    +0.000 C 
ATOM      8  C   UNL     1      -1.191  10.532  23.169  0.00  0.00    +0.000 C 
ATOM      9  C   UNL     1      -1.261  11.544  22.298  0.00  0.00    +0.000 C 
ATOM     10  C   UNL     1      -0.173  11.897  21.341  0.00  0.00    +0.000 C 
ATOM     11  C   UNL     1       0.938  10.858  21.169  0.00  0.00    +0.000 C 
ATOM     12  C   UNL     1       0.941  10.225  19.775  0.00  0.00    +0.000 C 
ATOM     13  H   UNL     1       1.886   6.434  20.037  0.00  0.00    +0.000 HD
ENDROOT
BRANCH   3  14
ATOM     14  C   UNL     1       3.016   6.010  18.353  0.00  0.00    +0.000 A 
ATOM     15  C   UNL     1       2.841   4.624  18.303  0.00  0.00    +0.000 A 
ATOM     16  C   UNL     1       3.657   3.832  17.495  0.00  0.00    +0.000 A 
ATOM     17  C   UNL     1       4.652   4.413  16.714  0.00  0.00    +0.000 A 
ATOM     18  C   UNL     1       4.772   5.807  16.673  0.00  0.00    +0.000 A 
ATOM     19  C   UNL     1       3.965   6.598  17.505  0.00  0.00    +0.000 A 
ATOM     20  O   UNL     1       5.664   6.504  15.891  0.00  0.00    +0.000 OA
ATOM     21  C   UNL     1       5.933   5.886  14.630  0.00  0.00    +0.000 C 
ATOM     22  C   UNL     1       7.010   4.816  14.739  0.00  0.00    +0.000 C 
ATOM     23  C   UNL     1       6.803   3.928  15.950  0.00  0.00    +0.000 C 
ATOM     24  O   UNL     1       5.440   3.518  16.036  0.00  0.00    +0.000 OA
ENDBRANCH   3  14
TORSDOF 1
ENDMDL
MODEL 2
REMARK VINA RESULT:      -7.9      2.288      8.835
REMARK  Name = 
REMARK  1 active torsions:
REMARK  status: ('A' for Active; 'I' for Inactive)
REMARK    1  A    between atoms: N_3  and  C_4
REMARK                            x       y       z     vdW  Elec       q    Type
REMARK                         _______ _______ _______ _____ _____    ______ ____
ROOT
ATOM      1  O   UNL     1       1.758   6.245  20.658  0.00  0.00    +0.000 OA
ATOM      2  C   UNL     1       2.185   7.031  19.820  0.00  0.00    +0.000 C 
ATOM      3  N   UNL     1       1.847   8.366  19.744  0.00  0.00    +0.000 N 
ATOM      4  N   UNL     1       3.109   6.610  18.885  0.00  0.00    +0.000 N 
ATOM      5  C   UNL     1       3.643   7.311  17.737  0.00  0.00    +0.000 C 
ATOM      6  C   UNL     1       4.947   6.589  17.384  0.00  0.00    +0.000 C 
ATOM      7  C   UNL     1       5.230   6.555  15.880  0.00  0.00    +0.000 C 
ATOM      8  C   UNL     1       5.139   5.221  15.221  0.00  0.00    +0.000 C 
ATOM      9  C   UNL     1       5.098   4.061  15.885  0.00  0.00    +0.000 C 
ATOM     10  C   UNL     1       5.136   3.950  17.371  0.00  0.00    +0.000 C 
ATOM     11  C   UNL     1       4.914   5.249  18.151  0.00  0.00    +0.000 C 
ATOM     12  C   UNL     1       3.598   5.249  18.933  0.00  0.00    +0.000 C 
ATOM     13  H   UNL     1       2.006   8.826  18.863  0.00  0.00    +0.000 HD
ENDROOT
BRANCH   3  14
ATOM     14  C   UNL     1       1.117   9.091  20.714  0.00  0.00    +0.000 A 
ATOM     15  C   UNL     1       0.771   8.563  21.962  0.00  0.00    +0.000 A 
ATOM     16  C   UNL     1      -0.007   9.299  22.856  0.00  0.00    +0.000 A 
ATOM     17  C   UNL     1      -0.440  10.579  22.525  0.00  0.00    +0.000 A 
ATOM     18  C   UNL     1      -0.017  11.163  21.325  0.00  0.00    +0.000 A 
ATOM     19  C   UNL     1       0.746  10.410  20.418  0.00  0.00    +0.000 A 
ATOM     20  O   UNL     1      -0.316  12.442  20.915  0.00  0.00    +0.000 OA
ATOM     21  C   UNL     1      -0.415  13.383  21.987  0.00  0.00    +0.000 C 
ATOM     22  C   UNL     1      -1.793  13.368  22.631  0.00  0.00    +0.000 C 
ATOM     23  C   UNL     1      -2.294  11.956  22.862  0.00  0.00    +0.000 C 
ATOM     24  O   UNL     1      -1.269  11.159  23.451  0.00  0.00    +0.000 OA
ENDBRANCH   3  14
TORSDOF 1
ENDMDL
MODEL 3
REMARK VINA RESULT:      -7.9      5.261      7.278
REMARK  Name = 
REMARK  1 active torsions:
REMARK  status: ('A' for Active; 'I' for Inactive)
REMARK    1  A    between atoms: N_3  and  C_4
REMARK                            x       y       z     vdW  Elec       q    Type
REMARK                         _______ _______ _______ _____ _____    ______ ____
ROOT
ATOM      1  O   UNL     1       8.432   7.072  18.840  0.00  0.00    +0.000 OA
ATOM      2  C   UNL     1       7.964   7.958  18.135  0.00  0.00    +0.000 C 
ATOM      3  N   UNL     1       6.929   7.789  17.238  0.00  0.00    +0.000 N 
ATOM      4  N   UNL     1       8.442   9.248  18.235  0.00  0.00    +0.000 N 
ATOM      5  C   UNL     1       8.141  10.409  17.424  0.00  0.00    +0.000 C 
ATOM      6  C   UNL     1       8.541  11.619  18.274  0.00  0.00    +0.000 C 
ATOM      7  C   UNL     1       9.094  12.782  17.446  0.00  0.00    +0.000 C 
ATOM      8  C   UNL     1      10.546  13.077  17.612  0.00  0.00    +0.000 C 
ATOM      9  C   UNL     1      11.300  12.589  18.602  0.00  0.00    +0.000 C 
ATOM     10  C   UNL     1      10.788  11.681  19.668  0.00  0.00    +0.000 C 
ATOM     11  C   UNL     1       9.408  11.065  19.426  0.00  0.00    +0.000 C 
ATOM     12  C   UNL     1       9.469   9.551  19.210  0.00  0.00    +0.000 C 
ATOM     13  H   UNL     1       6.838   8.482  16.513  0.00  0.00    +0.000 HD
ENDROOT
BRANCH   3  14
ATOM     14  C   UNL     1       6.116   6.638  17.120  0.00  0.00    +0.000 A 
ATOM     15  C   UNL     1       5.956   5.936  15.922  0.00  0.00    +0.000 A 
ATOM     16  C   UNL     1       5.090   4.845  15.845  0.00  0.00    +0.000 A 
ATOM     17  C   UNL     1       4.380   4.429  16.968  0.00  0.00    +0.000 A 
ATOM     18  C   UNL     1       4.606   5.055  18.199  0.00  0.00    +0.000 A 
ATOM     19  C   UNL     1       5.460   6.167  18.266  0.00  0.00    +0.000 A 
ATOM     20  O   UNL     1       4.023   4.694  19.392  0.00  0.00    +0.000 OA
ATOM     21  C   UNL     1       3.786   3.289  19.517  0.00  0.00    +0.000 C 
ATOM     22  C   UNL     1       2.479   2.872  18.860  0.00  0.00    +0.000 C 
ATOM     23  C   UNL     1       2.299   3.517  17.500  0.00  0.00    +0.000 C 
ATOM     24  O   UNL     1       3.499   3.404  16.738  0.00  0.00    +0.000 OA
ENDBRANCH   3  14
TORSDOF 1
ENDMDL
MODEL 4
REMARK VINA RESULT:      -7.8      1.174      1.446
REMARK  Name = 
REMARK  1 active torsions:
REMARK  status: ('A' for Active; 'I' for Inactive)
REMARK    1  A    between atoms: N_3  and  C_4
REMARK                            x       y       z     vdW  Elec       q    Type
REMARK                         _______ _______ _______ _____ _____    ______ ____
ROOT
ATOM      1  O   UNL     1       1.950   9.123  17.385  0.00  0.00    +0.000 OA
ATOM      2  C   UNL     1       1.755   8.914  18.576  0.00  0.00    +0.000 C 
ATOM      3  N   UNL     1       2.190   7.799  19.263  0.00  0.00    +0.000 N 
ATOM      4  N   UNL     1       1.093   9.850  19.345  0.00  0.00    +0.000 N 
ATOM      5  C   UNL     1       0.638   9.761  20.715  0.00  0.00    +0.000 C 
ATOM      6  C   UNL     1       0.444  11.209  21.179  0.00  0.00    +0.000 C 
ATOM      7  C   UNL     1      -0.723  11.379  22.155  0.00  0.00    +0.000 C 
ATOM      8  C   UNL     1      -1.906  12.129  21.644  0.00  0.00    +0.000 C 
ATOM      9  C   UNL     1      -1.898  12.867  20.529  0.00  0.00    +0.000 C 
ATOM     10  C   UNL     1      -0.706  13.034  19.649  0.00  0.00    +0.000 C 
ATOM     11  C   UNL     1       0.458  12.072  19.898  0.00  0.00    +0.000 C 
ATOM     12  C   UNL     1       0.673  11.095  18.739  0.00  0.00    +0.000 C 
ATOM     13  H   UNL     1       1.722   7.588  20.130  0.00  0.00    +0.000 HD
ENDROOT
BRANCH   3  14
ATOM     14  C   UNL     1       3.083   6.820  18.771  0.00  0.00    +0.000 A 
ATOM     15  C   UNL     1       3.294   5.591  19.404  0.00  0.00    +0.000 A 
ATOM     16  C   UNL     1       4.236   4.688  18.911  0.00  0.00    +0.000 A 
ATOM     17  C   UNL     1       4.973   4.991  17.770  0.00  0.00    +0.000 A 
ATOM     18  C   UNL     1       4.701   6.170  17.065  0.00  0.00    +0.000 A 
ATOM     19  C   UNL     1       3.770   7.086  17.578  0.00  0.00    +0.000 A 
ATOM     20  O   UNL     1       5.308   6.550  15.890  0.00  0.00    +0.000 OA
ATOM     21  C   UNL     1       5.645   5.456  15.034  0.00  0.00    +0.000 C 
ATOM     22  C   UNL     1       6.979   4.829  15.410  0.00  0.00    +0.000 C 
ATOM     23  C   UNL     1       7.113   4.642  16.909  0.00  0.00    +0.000 C 
ATOM     24  O   UNL     1       5.926   4.061  17.442  0.00  0.00    +0.000 OA
ENDBRANCH   3  14
TORSDOF 1
ENDMDL
MODEL 5
REMARK VINA RESULT:      -7.6      1.224      1.927
REMARK  Name = 
REMARK  1 active torsions:
REMARK  status: ('A' for Active; 'I' for Inactive)
REMARK    1  A    between atoms: N_3  and  C_4
REMARK                            x       y       z     vdW  Elec       q    Type
REMARK                         _______ _______ _______ _____ _____    ______ ____
ROOT
ATOM      1  O   UNL     1       1.773   7.332  21.058  0.00  0.00    +0.000 OA
ATOM      2  C   UNL     1       1.604   8.207  20.217  0.00  0.00    +0.000 C 
ATOM      3  N   UNL     1       2.100   8.172  18.930  0.00  0.00    +0.000 N 
ATOM      4  N   UNL     1       0.831   9.311  20.512  0.00  0.00    +0.000 N 
ATOM      5  C   UNL     1       0.606  10.513  19.739  0.00  0.00    +0.000 C 
ATOM      6  C   UNL     1      -0.681  11.128  20.297  0.00  0.00    +0.000 C 
ATOM      7  C   UNL     1      -0.677  12.659  20.278  0.00  0.00    +0.000 C 
ATOM      8  C   UNL     1      -0.615  13.335  21.605  0.00  0.00    +0.000 C 
ATOM      9  C   UNL     1      -0.833  12.716  22.770  0.00  0.00    +0.000 C 
ATOM     10  C   UNL     1      -1.163  11.267  22.895  0.00  0.00    +0.000 C 
ATOM     11  C   UNL     1      -0.946  10.415  21.641  0.00  0.00    +0.000 C 
ATOM     12  C   UNL     1       0.190   9.403  21.807  0.00  0.00    +0.000 C 
ATOM     13  H   UNL     1       2.164   9.051  18.443  0.00  0.00    +0.000 HD
ENDROOT
BRANCH   3  14
ATOM     14  C   UNL     1       2.712   7.058  18.309  0.00  0.00    +0.000 A 
ATOM     15  C   UNL     1       2.244   5.749  18.457  0.00  0.00    +0.000 A 
ATOM     16  C   UNL     1       2.924   4.679  17.875  0.00  0.00    +0.000 A 
ATOM     17  C   UNL     1       4.075   4.901  17.123  0.00  0.00    +0.000 A 
ATOM     18  C   UNL     1       4.497   6.213  16.878  0.00  0.00    +0.000 A 
ATOM     19  C   UNL     1       3.824   7.284  17.485  0.00  0.00    +0.000 A 
ATOM     20  O   UNL     1       5.573   6.567  16.096  0.00  0.00    +0.000 OA
ATOM     21  C   UNL     1       5.790   5.696  14.984  0.00  0.00    +0.000 C 
ATOM     22  C   UNL     1       6.599   4.467  15.374  0.00  0.00    +0.000 C 
ATOM     23  C   UNL     1       6.118   3.865  16.679  0.00  0.00    +0.000 C 
ATOM     24  O   UNL     1       4.696   3.761  16.681  0.00  0.00    +0.000 OA
ENDBRANCH   3  14
TORSDOF 1
ENDMDL
MODEL 6
REMARK VINA RESULT:      -7.6      3.356      8.674
REMARK  Name = 
REMARK  1 active torsions:
REMARK  status: ('A' for Active; 'I' for Inactive)
REMARK    1  A    between atoms: N_3  and  C_4
REMARK                            x       y       z     vdW  Elec       q    Type
REMARK                         _______ _______ _______ _____ _____    ______ ____
ROOT
ATOM      1  O   UNL     1       1.913  10.137  17.422  0.00  0.00    +0.000 OA
ATOM      2  C   UNL     1       1.687   9.264  18.253  0.00  0.00    +0.000 C 
ATOM      3  N   UNL     1       0.637   9.280  19.148  0.00  0.00    +0.000 N 
ATOM      4  N   UNL     1       2.485   8.141  18.312  0.00  0.00    +0.000 N 
ATOM      5  C   UNL     1       2.492   7.064  19.279  0.00  0.00    +0.000 C 
ATOM      6  C   UNL     1       3.199   5.894  18.588  0.00  0.00    +0.000 C 
ATOM      7  C   UNL     1       4.031   5.039  19.548  0.00  0.00    +0.000 C 
ATOM      8  C   UNL     1       5.511   5.110  19.381  0.00  0.00    +0.000 C 
ATOM      9  C   UNL     1       6.118   5.638  18.314  0.00  0.00    +0.000 C 
ATOM     10  C   UNL     1       5.395   6.227  17.150  0.00  0.00    +0.000 C 
ATOM     11  C   UNL     1       3.900   6.492  17.348  0.00  0.00    +0.000 C 
ATOM     12  C   UNL     1       3.562   7.985  17.357  0.00  0.00    +0.000 C 
ATOM     13  H   UNL     1       0.725   8.692  19.962  0.00  0.00    +0.000 HD
ENDROOT
BRANCH   3  14
ATOM     14  C   UNL     1      -0.449  10.186  19.135  0.00  0.00    +0.000 A 
ATOM     15  C   UNL     1      -0.502  11.325  19.943  0.00  0.00    +0.000 A 
ATOM     16  C   UNL     1      -1.627  12.150  19.938  0.00  0.00    +0.000 A 
ATOM     17  C   UNL     1      -2.711  11.858  19.115  0.00  0.00    +0.000 A 
ATOM     18  C   UNL     1      -2.632  10.781  18.224  0.00  0.00    +0.000 A 
ATOM     19  C   UNL     1      -1.508   9.940  18.250  0.00  0.00    +0.000 A 
ATOM     20  O   UNL     1      -3.602  10.432  17.313  0.00  0.00    +0.000 OA
ATOM     21  C   UNL     1      -4.318  11.546  16.775  0.00  0.00    +0.000 C 
ATOM     22  C   UNL     1      -5.459  11.980  17.682  0.00  0.00    +0.000 C 
ATOM     23  C   UNL     1      -5.038  12.026  19.138  0.00  0.00    +0.000 C 
ATOM     24  O   UNL     1      -3.786  12.695  19.269  0.00  0.00    +0.000 OA
ENDBRANCH   3  14
TORSDOF 1
ENDMDL
MODEL 7
REMARK VINA RESULT:      -7.6      2.607      8.638
REMARK  Name = 
REMARK  1 active torsions:
REMARK  status: ('A' for Active; 'I' for Inactive)
REMARK    1  A    between atoms: N_3  and  C_4
REMARK                            x       y       z     vdW  Elec       q    Type
REMARK                         _______ _______ _______ _____ _____    ______ ____
ROOT
ATOM      1  O   UNL     1       1.868   8.629  19.168  0.00  0.00    +0.000 OA
ATOM      2  C   UNL     1       1.726   7.778  20.039  0.00  0.00    +0.000 C 
ATOM      3  N   UNL     1       1.218   8.016  21.299  0.00  0.00    +0.000 N 
ATOM      4  N   UNL     1       2.042   6.461  19.778  0.00  0.00    +0.000 N 
ATOM      5  C   UNL     1       2.084   5.327  20.676  0.00  0.00    +0.000 C 
ATOM      6  C   UNL     1       1.995   4.088  19.780  0.00  0.00    +0.000 C 
ATOM      7  C   UNL     1       2.804   2.901  20.309  0.00  0.00    +0.000 C 
ATOM      8  C   UNL     1       4.008   2.518  19.517  0.00  0.00    +0.000 C 
ATOM      9  C   UNL     1       4.256   2.953  18.277  0.00  0.00    +0.000 C 
ATOM     10  C   UNL     1       3.363   3.881  17.525  0.00  0.00    +0.000 C 
ATOM     11  C   UNL     1       2.274   4.580  18.343  0.00  0.00    +0.000 C 
ATOM     12  C   UNL     1       2.501   6.090  18.456  0.00  0.00    +0.000 C 
ATOM     13  H   UNL     1       1.430   7.335  22.011  0.00  0.00    +0.000 HD
ENDROOT
BRANCH   3  14
ATOM     14  C   UNL     1       0.604   9.214  21.732  0.00  0.00    +0.000 A 
ATOM     15  C   UNL     1      -0.301   9.268  22.796  0.00  0.00    +0.000 A 
ATOM     16  C   UNL     1      -0.927  10.467  23.139  0.00  0.00    +0.000 A 
ATOM     17  C   UNL     1      -0.649  11.634  22.434  0.00  0.00    +0.000 A 
ATOM     18  C   UNL     1       0.331  11.620  21.434  0.00  0.00    +0.000 A 
ATOM     19  C   UNL     1       0.941  10.408  21.077  0.00  0.00    +0.000 A 
ATOM     20  O   UNL     1       0.748  12.717  20.715  0.00  0.00    +0.000 OA
ATOM     21  C   UNL     1       0.732  13.937  21.461  0.00  0.00    +0.000 C 
ATOM     22  C   UNL     1      -0.647  14.581  21.467  0.00  0.00    +0.000 C 
ATOM     23  C   UNL     1      -1.744  13.566  21.719  0.00  0.00    +0.000 C 
ATOM     24  O   UNL     1      -1.394  12.721  22.812  0.00  0.00    +0.000 OA
ENDBRANCH   3  14
TORSDOF 1
ENDMDL
MODEL 8
REMARK VINA RESULT:      -7.5      2.905      8.258
REMARK  Name = 
REMARK  1 active torsions:
REMARK  status: ('A' for Active; 'I' for Inactive)
REMARK    1  A    between atoms: N_3  and  C_4
REMARK                            x       y       z     vdW  Elec       q    Type
REMARK                         _______ _______ _______ _____ _____    ______ ____
ROOT
ATOM      1  O   UNL     1       2.636   8.373  18.254  0.00  0.00    +0.000 OA
ATOM      2  C   UNL     1       2.042   7.914  19.223  0.00  0.00    +0.000 C 
ATOM      3  N   UNL     1       1.235   8.644  20.072  0.00  0.00    +0.000 N 
ATOM      4  N   UNL     1       2.115   6.565  19.505  0.00  0.00    +0.000 N 
ATOM      5  C   UNL     1       1.617   5.835  20.651  0.00  0.00    +0.000 C 
ATOM      6  C   UNL     1       1.531   4.373  20.202  0.00  0.00    +0.000 C 
ATOM      7  C   UNL     1       1.845   3.378  21.322  0.00  0.00    +0.000 C 
ATOM      8  C   UNL     1       3.115   2.608  21.185  0.00  0.00    +0.000 C 
ATOM      9  C   UNL     1       3.827   2.537  20.056  0.00  0.00    +0.000 C 
ATOM     10  C   UNL     1       3.446   3.221  18.786  0.00  0.00    +0.000 C 
ATOM     11  C   UNL     1       2.346   4.281  18.893  0.00  0.00    +0.000 C 
ATOM     12  C   UNL     1       2.864   5.695  18.623  0.00  0.00    +0.000 C 
ATOM     13  H   UNL     1       1.056   8.247  20.981  0.00  0.00    +0.000 HD
ENDROOT
BRANCH   3  14
ATOM     14  C   UNL     1       0.808   9.975  19.867  0.00  0.00    +0.000 A 
ATOM     15  C   UNL     1      -0.053  10.350  18.830  0.00  0.00    +0.000 A 
ATOM     16  C   UNL     1      -0.391  11.689  18.633  0.00  0.00    +0.000 A 
ATOM     17  C   UNL     1       0.113  12.674  19.477  0.00  0.00    +0.000 A 
ATOM     18  C   UNL     1       0.891  12.306  20.581  0.00  0.00    +0.000 A 
ATOM     19  C   UNL     1       1.248  10.961  20.762  0.00  0.00    +0.000 A 
ATOM     20  O   UNL     1       1.388  13.174  21.526  0.00  0.00    +0.000 OA
ATOM     21  C   UNL     1       0.533  14.288  21.795  0.00  0.00    +0.000 C 
ATOM     22  C   UNL     1       0.734  15.414  20.792  0.00  0.00    +0.000 C 
ATOM     23  C   UNL     1       0.820  14.895  19.370  0.00  0.00    +0.000 C 
ATOM     24  O   UNL     1      -0.224  13.956  19.123  0.00  0.00    +0.000 OA
ENDBRANCH   3  14
TORSDOF 1
ENDMDL
MODEL 9
REMARK VINA RESULT:      -7.5      2.663      8.805
REMARK  Name = 
REMARK  1 active torsions:
REMARK  status: ('A' for Active; 'I' for Inactive)
REMARK    1  A    between atoms: N_3  and  C_4
REMARK                            x       y       z     vdW  Elec       q    Type
REMARK                         _______ _______ _______ _____ _____    ______ ____
ROOT
ATOM      1  O   UNL     1       2.360   8.186  18.719  0.00  0.00    +0.000 OA
ATOM      2  C   UNL     1       1.982   7.552  19.697  0.00  0.00    +0.000 C 
ATOM      3  N   UNL     1       1.289   8.086  20.764  0.00  0.00    +0.000 N 
ATOM      4  N   UNL     1       2.200   6.191  19.766  0.00  0.00    +0.000 N 
ATOM      5  C   UNL     1       1.967   5.275  20.862  0.00  0.00    +0.000 C 
ATOM      6  C   UNL     1       1.908   3.882  20.229  0.00  0.00    +0.000 C 
ATOM      7  C   UNL     1       2.486   2.785  21.127  0.00  0.00    +0.000 C 
ATOM      8  C   UNL     1       3.763   2.164  20.671  0.00  0.00    +0.000 C 
ATOM      9  C   UNL     1       4.266   2.307  19.441  0.00  0.00    +0.000 C 
ATOM     10  C   UNL     1       3.618   3.110  18.364  0.00  0.00    +0.000 C 
ATOM     11  C   UNL     1       2.482   4.037  18.803  0.00  0.00    +0.000 C 
ATOM     12  C   UNL     1       2.841   5.518  18.657  0.00  0.00    +0.000 C 
ATOM     13  H   UNL     1       1.303   7.560  21.623  0.00  0.00    +0.000 HD
ENDROOT
BRANCH   3  14
ATOM     14  C   UNL     1       0.737   9.386  20.826  0.00  0.00    +0.000 A 
ATOM     15  C   UNL     1       0.793  10.290  19.761  0.00  0.00    +0.000 A 
ATOM     16  C   UNL     1       0.290  11.585  19.898  0.00  0.00    +0.000 A 
ATOM     17  C   UNL     1      -0.290  11.992  21.096  0.00  0.00    +0.000 A 
ATOM     18  C   UNL     1      -0.447  11.068  22.136  0.00  0.00    +0.000 A 
ATOM     19  C   UNL     1       0.081   9.775  22.002  0.00  0.00    +0.000 A 
ATOM     20  O   UNL     1      -1.065  11.325  23.339  0.00  0.00    +0.000 OA
ATOM     21  C   UNL     1      -2.153  12.247  23.244  0.00  0.00    +0.000 C 
ATOM     22  C   UNL     1      -1.679  13.692  23.286  0.00  0.00    +0.000 C 
ATOM     23  C   UNL     1      -0.465  13.915  22.406  0.00  0.00    +0.000 C 
ATOM     24  O   UNL     1      -0.663  13.311  21.130  0.00  0.00    +0.000 OA
ENDBRANCH   3  14
TORSDOF 1
ENDMDL
