MODEL 1
REMARK VINA RESULT:      -8.3      0.000      0.000
REMARK  Name = 
REMARK  12 active torsions:
REMARK  status: ('A' for Active; 'I' for Inactive)
REMARK    1  A    between atoms: C_1  and  C_2
REMARK    2  A    between atoms: C_2  and  O_3
REMARK    3  A    between atoms: O_3  and  C_4
REMARK    4  A    between atoms: C_4  and  C_6
REMARK    5  A    between atoms: C_7  and  C_8
REMARK    6  A    between atoms: C_10  and  C_11
REMARK    7  A    between atoms: C_13  and  O_14
REMARK    8  A    between atoms: C_13  and  O_15
REMARK    9  A    between atoms: O_15  and  C_16
REMARK   10  A    between atoms: C_16  and  C_17
REMARK   11  A    between atoms: C_18  and  C_19
REMARK   12  A    between atoms: C_23  and  C_24
REMARK                            x       y       z     vdW  Elec       q    Type
REMARK                         _______ _______ _______ _____ _____    ______ ____
ROOT
ATOM      1  C   UNL     1       2.135   4.245  18.874  0.00  0.00    +0.000 C 
ATOM      2  C   UNL     1       1.690   4.367  20.143  0.00  0.00    +0.000 C 
ATOM      3  C   UNL     1       1.253   3.245  21.061  0.00  0.00    +0.000 C 
ATOM      4  N   UNL     1       1.587   5.582  20.774  0.00  0.00    +0.000 NA
ATOM      5  C   UNL     1       1.857   6.694  20.169  0.00  0.00    +0.000 C 
ATOM      6  C   UNL     1       1.625   7.932  21.016  0.00  0.00    +0.000 C 
ATOM      7  C   UNL     1       2.364   6.803  18.751  0.00  0.00    +0.000 C 
ATOM      8  C   UNL     1       2.593   7.991  18.134  0.00  0.00    +0.000 C 
ATOM      9  C   UNL     1       2.640   5.447  18.098  0.00  0.00    +0.000 C 
ENDROOT
BRANCH   9  10
ATOM     10  C   UNL     1       4.144   5.288  17.834  0.00  0.00    +0.000 A 
ATOM     11  C   UNL     1       5.091   5.443  18.852  0.00  0.00    +0.000 A 
ATOM     12  C   UNL     1       6.448   5.329  18.563  0.00  0.00    +0.000 A 
ATOM     13  C   UNL     1       6.873   5.094  17.250  0.00  0.00    +0.000 A 
ATOM     14  C   UNL     1       5.953   4.943  16.201  0.00  0.00    +0.000 A 
ATOM     15  C   UNL     1       4.590   5.018  16.530  0.00  0.00    +0.000 A 
BRANCH  14  16
ATOM     16  C   UNL     1       6.366   4.738  14.798  0.00  0.00    +0.000 A 
ATOM     17  C   UNL     1       5.726   3.800  13.970  0.00  0.00    +0.000 A 
ATOM     18  C   UNL     1       6.146   3.597  12.659  0.00  0.00    +0.000 A 
ATOM     19  C   UNL     1       7.199   4.358  12.189  0.00  0.00    +0.000 A 
ATOM     20  N   UNL     1       7.844   5.281  12.931  0.00  0.00    +0.000 NA
ATOM     21  C   UNL     1       7.417   5.442  14.208  0.00  0.00    +0.000 A 
ENDBRANCH  14  16
ENDBRANCH   9  10
BRANCH   1  22
ATOM     22  C   UNL     1       2.218   2.915  18.199  0.00  0.00    +0.000 C 
ATOM     23  O   UNL     1       1.273   2.276  17.774  0.00  0.00    +0.000 OA
BRANCH  22  24
ATOM     24  O   UNL     1       3.512   2.496  18.128  0.00  0.00    +0.000 OA
BRANCH  24  26
ATOM     25  C   UNL     1       4.653   1.986  20.233  0.00  0.00    +0.000 C 
ATOM     26  C   UNL     1       3.855   1.451  19.055  0.00  0.00    +0.000 C 
ENDBRANCH  24  26
ENDBRANCH  22  24
ENDBRANCH   1  22
BRANCH   8  27
ATOM     27  O   UNL     1       3.039   8.087  16.829  0.00  0.00    +0.000 OA
ATOM     28  H   UNL     1       2.665   7.385  16.282  0.00  0.00    +0.000 HD
ENDBRANCH   8  27
BRANCH   8  29
ATOM     29  O   UNL     1       2.374   9.185  18.782  0.00  0.00    +0.000 OA
BRANCH  29  30
ATOM     30  C   UNL     1       1.677  10.155  17.994  0.00  0.00    +0.000 C 
ATOM     31  C   UNL     1       0.201   9.809  18.039  0.00  0.00    +0.000 C 
ENDBRANCH  29  30
ENDBRANCH   8  29
TORSDOF 8
ENDMDL
MODEL 2
REMARK VINA RESULT:      -8.0      0.681      1.007
REMARK  Name = 
REMARK  12 active torsions:
REMARK  status: ('A' for Active; 'I' for Inactive)
REMARK    1  A    between atoms: C_1  and  C_2
REMARK    2  A    between atoms: C_2  and  O_3
REMARK    3  A    between atoms: O_3  and  C_4
REMARK    4  A    between atoms: C_4  and  C_6
REMARK    5  A    between atoms: C_7  and  C_8
REMARK    6  A    between atoms: C_10  and  C_11
REMARK    7  A    between atoms: C_13  and  O_14
REMARK    8  A    between atoms: C_13  and  O_15
REMARK    9  A    between atoms: O_15  and  C_16
REMARK   10  A    between atoms: C_16  and  C_17
REMARK   11  A    between atoms: C_18  and  C_19
REMARK   12  A    between atoms: C_23  and  C_24
REMARK                            x       y       z     vdW  Elec       q    Type
REMARK                         _______ _______ _______ _____ _____    ______ ____
ROOT
ATOM      1  C   UNL     1       2.124   4.129  18.881  0.00  0.00    +0.000 C 
ATOM      2  C   UNL     1       1.692   4.273  20.151  0.00  0.00    +0.000 C 
ATOM      3  C   UNL     1       1.265   3.169  21.094  0.00  0.00    +0.000 C 
ATOM      4  N   UNL     1       1.594   5.500  20.760  0.00  0.00    +0.000 NA
ATOM      5  C   UNL     1       1.856   6.601  20.132  0.00  0.00    +0.000 C 
ATOM      6  C   UNL     1       1.632   7.854  20.958  0.00  0.00    +0.000 C 
ATOM      7  C   UNL     1       2.349   6.684  18.707  0.00  0.00    +0.000 C 
ATOM      8  C   UNL     1       2.571   7.860  18.066  0.00  0.00    +0.000 C 
ATOM      9  C   UNL     1       2.621   5.317  18.078  0.00  0.00    +0.000 C 
ENDROOT
BRANCH   9  10
ATOM     10  C   UNL     1       4.122   5.154  17.802  0.00  0.00    +0.000 A 
ATOM     11  C   UNL     1       5.078   5.324  18.808  0.00  0.00    +0.000 A 
ATOM     12  C   UNL     1       6.433   5.207  18.507  0.00  0.00    +0.000 A 
ATOM     13  C   UNL     1       6.845   4.951  17.194  0.00  0.00    +0.000 A 
ATOM     14  C   UNL     1       5.915   4.785  16.156  0.00  0.00    +0.000 A 
ATOM     15  C   UNL     1       4.556   4.864  16.497  0.00  0.00    +0.000 A 
BRANCH  14  16
ATOM     16  C   UNL     1       6.315   4.558  14.753  0.00  0.00    +0.000 A 
ATOM     17  C   UNL     1       7.408   5.229  14.180  0.00  0.00    +0.000 A 
ATOM     18  C   UNL     1       7.754   5.027  12.847  0.00  0.00    +0.000 A 
ATOM     19  C   UNL     1       7.004   4.131  12.109  0.00  0.00    +0.000 A 
ATOM     20  N   UNL     1       5.954   3.448  12.607  0.00  0.00    +0.000 NA
ATOM     21  C   UNL     1       5.636   3.681  13.906  0.00  0.00    +0.000 A 
ENDBRANCH  14  16
ENDBRANCH   9  10
BRANCH   1  22
ATOM     22  C   UNL     1       2.202   2.786  18.229  0.00  0.00    +0.000 C 
ATOM     23  O   UNL     1       1.880   2.535  17.083  0.00  0.00    +0.000 OA
BRANCH  22  24
ATOM     24  O   UNL     1       2.679   1.858  19.105  0.00  0.00    +0.000 OA
BRANCH  24  26
ATOM     25  C   UNL     1       4.749   1.986  20.405  0.00  0.00    +0.000 C 
ATOM     26  C   UNL     1       4.105   1.673  19.065  0.00  0.00    +0.000 C 
ENDBRANCH  24  26
ENDBRANCH  22  24
ENDBRANCH   1  22
BRANCH   8  27
ATOM     27  O   UNL     1       3.004   7.932  16.755  0.00  0.00    +0.000 OA
ATOM     28  H   UNL     1       2.751   7.141  16.263  0.00  0.00    +0.000 HD
ENDBRANCH   8  27
BRANCH   8  29
ATOM     29  O   UNL     1       2.357   9.066  18.694  0.00  0.00    +0.000 OA
BRANCH  29  30
ATOM     30  C   UNL     1       1.415   9.910  18.027  0.00  0.00    +0.000 C 
ATOM     31  C   UNL     1       1.295  11.192  18.830  0.00  0.00    +0.000 C 
ENDBRANCH  29  30
ENDBRANCH   8  29
TORSDOF 8
ENDMDL
MODEL 3
REMARK VINA RESULT:      -7.0      3.699      7.246
REMARK  Name = 
REMARK  12 active torsions:
REMARK  status: ('A' for Active; 'I' for Inactive)
REMARK    1  A    between atoms: C_1  and  C_2
REMARK    2  A    between atoms: C_2  and  O_3
REMARK    3  A    between atoms: O_3  and  C_4
REMARK    4  A    between atoms: C_4  and  C_6
REMARK    5  A    between atoms: C_7  and  C_8
REMARK    6  A    between atoms: C_10  and  C_11
REMARK    7  A    between atoms: C_13  and  O_14
REMARK    8  A    between atoms: C_13  and  O_15
REMARK    9  A    between atoms: O_15  and  C_16
REMARK   10  A    between atoms: C_16  and  C_17
REMARK   11  A    between atoms: C_18  and  C_19
REMARK   12  A    between atoms: C_23  and  C_24
REMARK                            x       y       z     vdW  Elec       q    Type
REMARK                         _______ _______ _______ _____ _____    ______ ____
ROOT
ATOM      1  C   UNL     1      -1.569  11.198  18.332  0.00  0.00    +0.000 C 
ATOM      2  C   UNL     1      -2.229  12.165  19.004  0.00  0.00    +0.000 C 
ATOM      3  C   UNL     1      -3.715  12.219  19.288  0.00  0.00    +0.000 C 
ATOM      4  N   UNL     1      -1.591  13.257  19.538  0.00  0.00    +0.000 NA
ATOM      5  C   UNL     1      -0.321  13.456  19.378  0.00  0.00    +0.000 C 
ATOM      6  C   UNL     1       0.185  14.748  19.992  0.00  0.00    +0.000 C 
ATOM      7  C   UNL     1       0.615  12.515  18.659  0.00  0.00    +0.000 C 
ATOM      8  C   UNL     1       1.933  12.779  18.472  0.00  0.00    +0.000 C 
ATOM      9  C   UNL     1      -0.057  11.217  18.208  0.00  0.00    +0.000 C 
ENDROOT
BRANCH   9  10
ATOM     10  C   UNL     1       0.532  10.026  18.976  0.00  0.00    +0.000 A 
ATOM     11  C   UNL     1       0.349   9.875  20.355  0.00  0.00    +0.000 A 
ATOM     12  C   UNL     1       0.933   8.801  21.021  0.00  0.00    +0.000 A 
ATOM     13  C   UNL     1       1.732   7.888  20.324  0.00  0.00    +0.000 A 
ATOM     14  C   UNL     1       1.948   8.012  18.943  0.00  0.00    +0.000 A 
ATOM     15  C   UNL     1       1.309   9.078  18.290  0.00  0.00    +0.000 A 
BRANCH  14  16
ATOM     16  C   UNL     1       2.819   7.093  18.184  0.00  0.00    +0.000 A 
ATOM     17  C   UNL     1       2.613   5.703  18.194  0.00  0.00    +0.000 A 
ATOM     18  C   UNL     1       3.461   4.848  17.496  0.00  0.00    +0.000 A 
ATOM     19  C   UNL     1       4.501   5.406  16.778  0.00  0.00    +0.000 A 
ATOM     20  N   UNL     1       4.741   6.731  16.720  0.00  0.00    +0.000 NA
ATOM     21  C   UNL     1       3.904   7.535  17.423  0.00  0.00    +0.000 A 
ENDBRANCH  14  16
ENDBRANCH   9  10
BRANCH   1  22
ATOM     22  C   UNL     1      -2.287  10.029  17.739  0.00  0.00    +0.000 C 
ATOM     23  O   UNL     1      -3.005   9.256  18.347  0.00  0.00    +0.000 OA
BRANCH  22  24
ATOM     24  O   UNL     1      -2.019   9.930  16.407  0.00  0.00    +0.000 OA
BRANCH  24  26
ATOM     25  C   UNL     1      -3.459  10.091  14.435  0.00  0.00    +0.000 C 
ATOM     26  C   UNL     1      -2.776  10.827  15.576  0.00  0.00    +0.000 C 
ENDBRANCH  24  26
ENDBRANCH  22  24
ENDBRANCH   1  22
BRANCH   8  27
ATOM     27  O   UNL     1       2.784  11.923  17.796  0.00  0.00    +0.000 OA
ATOM     28  H   UNL     1       2.287  11.301  17.250  0.00  0.00    +0.000 HD
ENDBRANCH   8  27
BRANCH   8  29
ATOM     29  O   UNL     1       2.502  13.942  18.941  0.00  0.00    +0.000 OA
BRANCH  29  30
ATOM     30  C   UNL     1       3.194  14.695  17.941  0.00  0.00    +0.000 C 
ATOM     31  C   UNL     1       4.601  14.948  18.448  0.00  0.00    +0.000 C 
ENDBRANCH  29  30
ENDBRANCH   8  29
TORSDOF 8
ENDMDL
MODEL 4
REMARK VINA RESULT:      -6.9      0.826      1.342
REMARK  Name = 
REMARK  12 active torsions:
REMARK  status: ('A' for Active; 'I' for Inactive)
REMARK    1  A    between atoms: C_1  and  C_2
REMARK    2  A    between atoms: C_2  and  O_3
REMARK    3  A    between atoms: O_3  and  C_4
REMARK    4  A    between atoms: C_4  and  C_6
REMARK    5  A    between atoms: C_7  and  C_8
REMARK    6  A    between atoms: C_10  and  C_11
REMARK    7  A    between atoms: C_13  and  O_14
REMARK    8  A    between atoms: C_13  and  O_15
REMARK    9  A    between atoms: O_15  and  C_16
REMARK   10  A    between atoms: C_16  and  C_17
REMARK   11  A    between atoms: C_18  and  C_19
REMARK   12  A    between atoms: C_23  and  C_24
REMARK                            x       y       z     vdW  Elec       q    Type
REMARK                         _______ _______ _______ _____ _____    ______ ____
ROOT
ATOM      1  C   UNL     1       2.904   3.952  19.303  0.00  0.00    +0.000 C 
ATOM      2  C   UNL     1       2.540   4.131  20.590  0.00  0.00    +0.000 C 
ATOM      3  C   UNL     1       2.420   3.062  21.655  0.00  0.00    +0.000 C 
ATOM      4  N   UNL     1       2.229   5.367  21.102  0.00  0.00    +0.000 NA
ATOM      5  C   UNL     1       2.211   6.430  20.365  0.00  0.00    +0.000 C 
ATOM      6  C   UNL     1       1.786   7.688  21.101  0.00  0.00    +0.000 C 
ATOM      7  C   UNL     1       2.576   6.470  18.900  0.00  0.00    +0.000 C 
ATOM      8  C   UNL     1       2.502   7.597  18.147  0.00  0.00    +0.000 C 
ATOM      9  C   UNL     1       3.084   5.130  18.364  0.00  0.00    +0.000 C 
ENDROOT
BRANCH   9  10
ATOM     10  C   UNL     1       4.563   5.248  17.971  0.00  0.00    +0.000 A 
ATOM     11  C   UNL     1       5.534   5.682  18.880  0.00  0.00    +0.000 A 
ATOM     12  C   UNL     1       6.859   5.813  18.473  0.00  0.00    +0.000 A 
ATOM     13  C   UNL     1       7.220   5.544  17.147  0.00  0.00    +0.000 A 
ATOM     14  C   UNL     1       6.272   5.117  16.204  0.00  0.00    +0.000 A 
ATOM     15  C   UNL     1       4.953   4.950  16.655  0.00  0.00    +0.000 A 
BRANCH  14  16
ATOM     16  C   UNL     1       6.609   4.866  14.789  0.00  0.00    +0.000 A 
ATOM     17  C   UNL     1       5.949   3.880  14.037  0.00  0.00    +0.000 A 
ATOM     18  C   UNL     1       6.298   3.636  12.712  0.00  0.00    +0.000 A 
ATOM     19  C   UNL     1       7.299   4.405  12.151  0.00  0.00    +0.000 A 
ATOM     20  N   UNL     1       7.959   5.373  12.818  0.00  0.00    +0.000 NA
ATOM     21  C   UNL     1       7.603   5.574  14.111  0.00  0.00    +0.000 A 
ENDBRANCH  14  16
ENDBRANCH   9  10
BRANCH   1  22
ATOM     22  C   UNL     1       3.216   2.595  18.760  0.00  0.00    +0.000 C 
ATOM     23  O   UNL     1       4.193   1.926  19.044  0.00  0.00    +0.000 OA
BRANCH  22  24
ATOM     24  O   UNL     1       2.253   2.200  17.881  0.00  0.00    +0.000 OA
BRANCH  24  26
ATOM     25  C   UNL     1       0.044   2.766  18.768  0.00  0.00    +0.000 C 
ATOM     26  C   UNL     1       1.063   1.673  18.492  0.00  0.00    +0.000 C 
ENDBRANCH  24  26
ENDBRANCH  22  24
ENDBRANCH   1  22
BRANCH   8  27
ATOM     27  O   UNL     1       2.819   7.625  16.801  0.00  0.00    +0.000 OA
ATOM     28  H   UNL     1       3.341   8.408  16.585  0.00  0.00    +0.000 HD
ENDBRANCH   8  27
BRANCH   8  29
ATOM     29  O   UNL     1       2.084   8.792  18.690  0.00  0.00    +0.000 OA
BRANCH  29  30
ATOM     30  C   UNL     1       1.305   9.594  17.798  0.00  0.00    +0.000 C 
ATOM     31  C   UNL     1       0.187  10.226  18.605  0.00  0.00    +0.000 C 
ENDBRANCH  29  30
ENDBRANCH   8  29
TORSDOF 8
ENDMDL
MODEL 5
REMARK VINA RESULT:      -6.6      7.814     10.304
REMARK  Name = 
REMARK  12 active torsions:
REMARK  status: ('A' for Active; 'I' for Inactive)
REMARK    1  A    between atoms: C_1  and  C_2
REMARK    2  A    between atoms: C_2  and  O_3
REMARK    3  A    between atoms: O_3  and  C_4
REMARK    4  A    between atoms: C_4  and  C_6
REMARK    5  A    between atoms: C_7  and  C_8
REMARK    6  A    between atoms: C_10  and  C_11
REMARK    7  A    between atoms: C_13  and  O_14
REMARK    8  A    between atoms: C_13  and  O_15
REMARK    9  A    between atoms: O_15  and  C_16
REMARK   10  A    between atoms: C_16  and  C_17
REMARK   11  A    between atoms: C_18  and  C_19
REMARK   12  A    between atoms: C_23  and  C_24
REMARK                            x       y       z     vdW  Elec       q    Type
REMARK                         _______ _______ _______ _____ _____    ______ ____
ROOT
ATOM      1  C   UNL     1      -1.852  11.973  21.205  0.00  0.00    +0.000 C 
ATOM      2  C   UNL     1      -3.070  12.548  21.284  0.00  0.00    +0.000 C 
ATOM      3  C   UNL     1      -3.675  13.229  22.494  0.00  0.00    +0.000 C 
ATOM      4  N   UNL     1      -3.937  12.588  20.219  0.00  0.00    +0.000 NA
ATOM      5  C   UNL     1      -3.659  12.023  19.088  0.00  0.00    +0.000 C 
ATOM      6  C   UNL     1      -4.767  12.125  18.056  0.00  0.00    +0.000 C 
ATOM      7  C   UNL     1      -2.362  11.317  18.772  0.00  0.00    +0.000 C 
ATOM      8  C   UNL     1      -2.124  10.696  17.588  0.00  0.00    +0.000 C 
ATOM      9  C   UNL     1      -1.328  11.414  19.895  0.00  0.00    +0.000 C 
ENDROOT
BRANCH   9  10
ATOM     10  C   UNL     1      -0.125  12.247  19.431  0.00  0.00    +0.000 A 
ATOM     11  C   UNL     1       1.148  11.685  19.286  0.00  0.00    +0.000 A 
ATOM     12  C   UNL     1       2.221  12.483  18.900  0.00  0.00    +0.000 A 
ATOM     13  C   UNL     1       2.040  13.855  18.689  0.00  0.00    +0.000 A 
ATOM     14  C   UNL     1       0.781  14.457  18.835  0.00  0.00    +0.000 A 
ATOM     15  C   UNL     1      -0.291  13.619  19.180  0.00  0.00    +0.000 A 
BRANCH  14  16
ATOM     16  C   UNL     1       0.562  15.907  18.662  0.00  0.00    +0.000 A 
ATOM     17  C   UNL     1      -0.726  16.467  18.691  0.00  0.00    +0.000 A 
ATOM     18  C   UNL     1      -0.918  17.832  18.497  0.00  0.00    +0.000 A 
ATOM     19  C   UNL     1       0.197  18.623  18.296  0.00  0.00    +0.000 A 
ATOM     20  N   UNL     1       1.457  18.146  18.272  0.00  0.00    +0.000 NA
ATOM     21  C   UNL     1       1.606  16.809  18.449  0.00  0.00    +0.000 A 
ENDBRANCH  14  16
ENDBRANCH   9  10
BRANCH   1  22
ATOM     22  C   UNL     1      -0.934  11.921  22.383  0.00  0.00    +0.000 C 
ATOM     23  O   UNL     1      -0.209  12.824  22.756  0.00  0.00    +0.000 OA
BRANCH  22  24
ATOM     24  O   UNL     1      -1.007  10.704  22.991  0.00  0.00    +0.000 OA
BRANCH  24  26
ATOM     25  C   UNL     1      -0.281   8.574  22.029  0.00  0.00    +0.000 C 
ATOM     26  C   UNL     1       0.123   9.847  22.754  0.00  0.00    +0.000 C 
ENDBRANCH  24  26
ENDBRANCH  22  24
ENDBRANCH   1  22
BRANCH   8  27
ATOM     27  O   UNL     1      -0.942  10.035  17.310  0.00  0.00    +0.000 OA
ATOM     28  H   UNL     1      -1.089   9.311  16.687  0.00  0.00    +0.000 HD
ENDBRANCH   8  27
BRANCH   8  29
ATOM     29  O   UNL     1      -3.071  10.679  16.589  0.00  0.00    +0.000 OA
BRANCH  29  30
ATOM     30  C   UNL     1      -2.713   9.872  15.463  0.00  0.00    +0.000 C 
ATOM     31  C   UNL     1      -3.651  10.227  14.325  0.00  0.00    +0.000 C 
ENDBRANCH  29  30
ENDBRANCH   8  29
TORSDOF 8
ENDMDL
MODEL 6
REMARK VINA RESULT:      -6.6      3.878      7.538
REMARK  Name = 
REMARK  12 active torsions:
REMARK  status: ('A' for Active; 'I' for Inactive)
REMARK    1  A    between atoms: C_1  and  C_2
REMARK    2  A    between atoms: C_2  and  O_3
REMARK    3  A    between atoms: O_3  and  C_4
REMARK    4  A    between atoms: C_4  and  C_6
REMARK    5  A    between atoms: C_7  and  C_8
REMARK    6  A    between atoms: C_10  and  C_11
REMARK    7  A    between atoms: C_13  and  O_14
REMARK    8  A    between atoms: C_13  and  O_15
REMARK    9  A    between atoms: O_15  and  C_16
REMARK   10  A    between atoms: C_16  and  C_17
REMARK   11  A    between atoms: C_18  and  C_19
REMARK   12  A    between atoms: C_23  and  C_24
REMARK                            x       y       z     vdW  Elec       q    Type
REMARK                         _______ _______ _______ _____ _____    ______ ____
ROOT
ATOM      1  C   UNL     1      -1.803  11.281  18.432  0.00  0.00    +0.000 C 
ATOM      2  C   UNL     1      -2.596  12.181  19.050  0.00  0.00    +0.000 C 
ATOM      3  C   UNL     1      -4.106  12.145  19.145  0.00  0.00    +0.000 C 
ATOM      4  N   UNL     1      -2.093  13.282  19.700  0.00  0.00    +0.000 NA
ATOM      5  C   UNL     1      -0.827  13.553  19.710  0.00  0.00    +0.000 C 
ATOM      6  C   UNL     1      -0.477  14.843  20.430  0.00  0.00    +0.000 C 
ATOM      7  C   UNL     1       0.244  12.695  19.082  0.00  0.00    +0.000 C 
ATOM      8  C   UNL     1       1.558  13.035  19.074  0.00  0.00    +0.000 C 
ATOM      9  C   UNL     1      -0.290  11.384  18.502  0.00  0.00    +0.000 C 
ENDROOT
BRANCH   9  10
ATOM     10  C   UNL     1       0.266  10.193  19.296  0.00  0.00    +0.000 A 
ATOM     11  C   UNL     1       0.002  10.029  20.659  0.00  0.00    +0.000 A 
ATOM     12  C   UNL     1       0.558   8.957  21.351  0.00  0.00    +0.000 A 
ATOM     13  C   UNL     1       1.408   8.058  20.696  0.00  0.00    +0.000 A 
ATOM     14  C   UNL     1       1.704   8.195  19.331  0.00  0.00    +0.000 A 
ATOM     15  C   UNL     1       1.093   9.260  18.649  0.00  0.00    +0.000 A 
BRANCH  14  16
ATOM     16  C   UNL     1       2.630   7.293  18.619  0.00  0.00    +0.000 A 
ATOM     17  C   UNL     1       3.478   7.759  17.600  0.00  0.00    +0.000 A 
ATOM     18  C   UNL     1       4.324   6.890  16.917  0.00  0.00    +0.000 A 
ATOM     19  C   UNL     1       4.319   5.558  17.283  0.00  0.00    +0.000 A 
ATOM     20  N   UNL     1       3.538   5.054  18.260  0.00  0.00    +0.000 NA
ATOM     21  C   UNL     1       2.716   5.927  18.894  0.00  0.00    +0.000 A 
ENDBRANCH  14  16
ENDBRANCH   9  10
BRANCH   1  22
ATOM     22  C   UNL     1      -2.372  10.102  17.711  0.00  0.00    +0.000 C 
ATOM     23  O   UNL     1      -2.933   9.156  18.233  0.00  0.00    +0.000 OA
BRANCH  22  24
ATOM     24  O   UNL     1      -2.169  10.220  16.369  0.00  0.00    +0.000 OA
BRANCH  24  26
ATOM     25  C   UNL     1      -3.134  10.082  14.125  0.00  0.00    +0.000 C 
ATOM     26  C   UNL     1      -3.368  10.389  15.594  0.00  0.00    +0.000 C 
ENDBRANCH  24  26
ENDBRANCH  22  24
ENDBRANCH   1  22
BRANCH   8  27
ATOM     27  O   UNL     1       2.534  12.255  18.481  0.00  0.00    +0.000 OA
ATOM     28  H   UNL     1       3.342  12.763  18.334  0.00  0.00    +0.000 HD
ENDBRANCH   8  27
BRANCH   8  29
ATOM     29  O   UNL     1       1.996  14.205  19.653  0.00  0.00    +0.000 OA
BRANCH  29  30
ATOM     30  C   UNL     1       3.293  14.109  20.249  0.00  0.00    +0.000 C 
ATOM     31  C   UNL     1       3.206  14.709  21.640  0.00  0.00    +0.000 C 
ENDBRANCH  29  30
ENDBRANCH   8  29
TORSDOF 8
ENDMDL
MODEL 7
REMARK VINA RESULT:      -6.3      8.584     11.154
REMARK  Name = 
REMARK  12 active torsions:
REMARK  status: ('A' for Active; 'I' for Inactive)
REMARK    1  A    between atoms: C_1  and  C_2
REMARK    2  A    between atoms: C_2  and  O_3
REMARK    3  A    between atoms: O_3  and  C_4
REMARK    4  A    between atoms: C_4  and  C_6
REMARK    5  A    between atoms: C_7  and  C_8
REMARK    6  A    between atoms: C_10  and  C_11
REMARK    7  A    between atoms: C_13  and  O_14
REMARK    8  A    between atoms: C_13  and  O_15
REMARK    9  A    between atoms: O_15  and  C_16
REMARK   10  A    between atoms: C_16  and  C_17
REMARK   11  A    between atoms: C_18  and  C_19
REMARK   12  A    between atoms: C_23  and  C_24
REMARK                            x       y       z     vdW  Elec       q    Type
REMARK                         _______ _______ _______ _____ _____    ______ ____
ROOT
ATOM      1  C   UNL     1      -1.081  14.894  21.378  0.00  0.00    +0.000 C 
ATOM      2  C   UNL     1      -1.790  15.871  20.776  0.00  0.00    +0.000 C 
ATOM      3  C   UNL     1      -1.235  17.060  20.021  0.00  0.00    +0.000 C 
ATOM      4  N   UNL     1      -3.164  15.892  20.775  0.00  0.00    +0.000 NA
ATOM      5  C   UNL     1      -3.863  15.002  21.404  0.00  0.00    +0.000 C 
ATOM      6  C   UNL     1      -5.362  15.230  21.334  0.00  0.00    +0.000 C 
ATOM      7  C   UNL     1      -3.288  13.822  22.150  0.00  0.00    +0.000 C 
ATOM      8  C   UNL     1      -4.051  12.934  22.836  0.00  0.00    +0.000 C 
ATOM      9  C   UNL     1      -1.769  13.699  22.015  0.00  0.00    +0.000 C 
ENDROOT
BRANCH   9  10
ATOM     10  C   UNL     1      -1.412  12.429  21.231  0.00  0.00    +0.000 A 
ATOM     11  C   UNL     1      -0.408  11.555  21.661  0.00  0.00    +0.000 A 
ATOM     12  C   UNL     1      -0.089  10.434  20.901  0.00  0.00    +0.000 A 
ATOM     13  C   UNL     1      -0.745  10.193  19.688  0.00  0.00    +0.000 A 
ATOM     14  C   UNL     1      -1.750  11.052  19.218  0.00  0.00    +0.000 A 
ATOM     15  C   UNL     1      -2.083  12.149  20.028  0.00  0.00    +0.000 A 
BRANCH  14  16
ATOM     16  C   UNL     1      -2.433  10.853  17.924  0.00  0.00    +0.000 A 
ATOM     17  C   UNL     1      -1.941   9.955  16.962  0.00  0.00    +0.000 A 
ATOM     18  C   UNL     1      -2.579   9.800  15.734  0.00  0.00    +0.000 A 
ATOM     19  C   UNL     1      -3.721  10.541  15.497  0.00  0.00    +0.000 A 
ATOM     20  N   UNL     1      -4.247  11.407  16.386  0.00  0.00    +0.000 NA
ATOM     21  C   UNL     1      -3.592  11.543  17.566  0.00  0.00    +0.000 A 
ENDBRANCH  14  16
ENDBRANCH   9  10
BRANCH   1  22
ATOM     22  C   UNL     1       0.413  14.903  21.386  0.00  0.00    +0.000 C 
ATOM     23  O   UNL     1       1.116  14.910  22.380  0.00  0.00    +0.000 OA
BRANCH  22  24
ATOM     24  O   UNL     1       0.897  14.913  20.112  0.00  0.00    +0.000 OA
BRANCH  24  26
ATOM     25  C   UNL     1       1.239  13.084  18.523  0.00  0.00    +0.000 C 
ATOM     26  C   UNL     1       1.727  13.788  19.778  0.00  0.00    +0.000 C 
ENDBRANCH  24  26
ENDBRANCH  22  24
ENDBRANCH   1  22
BRANCH   8  27
ATOM     27  O   UNL     1      -3.519  11.866  23.534  0.00  0.00    +0.000 OA
ATOM     28  H   UNL     1      -3.621  11.043  23.040  0.00  0.00    +0.000 HD
ENDBRANCH   8  27
BRANCH   8  29
ATOM     29  O   UNL     1      -5.421  13.061  22.888  0.00  0.00    +0.000 OA
BRANCH  29  30
ATOM     30  C   UNL     1      -5.980  12.807  24.180  0.00  0.00    +0.000 C 
ATOM     31  C   UNL     1      -7.429  13.257  24.151  0.00  0.00    +0.000 C 
ENDBRANCH  29  30
ENDBRANCH   8  29
TORSDOF 8
ENDMDL
MODEL 8
REMARK VINA RESULT:      -6.2      2.605      7.019
REMARK  Name = 
REMARK  12 active torsions:
REMARK  status: ('A' for Active; 'I' for Inactive)
REMARK    1  A    between atoms: C_1  and  C_2
REMARK    2  A    between atoms: C_2  and  O_3
REMARK    3  A    between atoms: O_3  and  C_4
REMARK    4  A    between atoms: C_4  and  C_6
REMARK    5  A    between atoms: C_7  and  C_8
REMARK    6  A    between atoms: C_10  and  C_11
REMARK    7  A    between atoms: C_13  and  O_14
REMARK    8  A    between atoms: C_13  and  O_15
REMARK    9  A    between atoms: O_15  and  C_16
REMARK   10  A    between atoms: C_16  and  C_17
REMARK   11  A    between atoms: C_18  and  C_19
REMARK   12  A    between atoms: C_23  and  C_24
REMARK                            x       y       z     vdW  Elec       q    Type
REMARK                         _______ _______ _______ _____ _____    ______ ____
ROOT
ATOM      1  C   UNL     1       2.341   4.654  19.204  0.00  0.00    +0.000 C 
ATOM      2  C   UNL     1       2.155   3.654  18.318  0.00  0.00    +0.000 C 
ATOM      3  C   UNL     1       1.114   2.558  18.394  0.00  0.00    +0.000 C 
ATOM      4  N   UNL     1       2.926   3.517  17.189  0.00  0.00    +0.000 NA
ATOM      5  C   UNL     1       3.917   4.310  16.936  0.00  0.00    +0.000 C 
ATOM      6  C   UNL     1       4.682   3.960  15.672  0.00  0.00    +0.000 C 
ATOM      7  C   UNL     1       4.315   5.493  17.786  0.00  0.00    +0.000 C 
ATOM      8  C   UNL     1       5.389   6.276  17.512  0.00  0.00    +0.000 C 
ATOM      9  C   UNL     1       3.360   5.751  18.953  0.00  0.00    +0.000 C 
ENDROOT
BRANCH   9  10
ATOM     10  C   UNL     1       2.632   7.087  18.751  0.00  0.00    +0.000 A 
ATOM     11  C   UNL     1       2.684   7.778  17.536  0.00  0.00    +0.000 A 
ATOM     12  C   UNL     1       2.043   9.006  17.406  0.00  0.00    +0.000 A 
ATOM     13  C   UNL     1       1.371   9.571  18.497  0.00  0.00    +0.000 A 
ATOM     14  C   UNL     1       1.305   8.913  19.734  0.00  0.00    +0.000 A 
ATOM     15  C   UNL     1       1.923   7.655  19.822  0.00  0.00    +0.000 A 
BRANCH  14  16
ATOM     16  C   UNL     1       0.644   9.498  20.917  0.00  0.00    +0.000 A 
ATOM     17  C   UNL     1       0.067   8.692  21.914  0.00  0.00    +0.000 A 
ATOM     18  C   UNL     1      -0.579   9.259  23.009  0.00  0.00    +0.000 A 
ATOM     19  C   UNL     1      -0.620  10.637  23.097  0.00  0.00    +0.000 A 
ATOM     20  N   UNL     1      -0.075  11.461  22.180  0.00  0.00    +0.000 NA
ATOM     21  C   UNL     1       0.535  10.875  21.119  0.00  0.00    +0.000 A 
ENDBRANCH  14  16
ENDBRANCH   9  10
BRANCH   1  22
ATOM     22  C   UNL     1       1.506   4.771  20.438  0.00  0.00    +0.000 C 
ATOM     23  O   UNL     1       0.324   5.061  20.468  0.00  0.00    +0.000 OA
BRANCH  22  24
ATOM     24  O   UNL     1       2.255   4.518  21.547  0.00  0.00    +0.000 OA
BRANCH  24  26
ATOM     25  C   UNL     1       1.372   2.284  22.014  0.00  0.00    +0.000 C 
ATOM     26  C   UNL     1       2.599   3.134  21.734  0.00  0.00    +0.000 C 
ENDBRANCH  24  26
ENDBRANCH  22  24
ENDBRANCH   1  22
BRANCH   8  27
ATOM     27  O   UNL     1       5.761   7.347  18.304  0.00  0.00    +0.000 OA
ATOM     28  H   UNL     1       6.698   7.299  18.534  0.00  0.00    +0.000 HD
ENDBRANCH   8  27
BRANCH   8  29
ATOM     29  O   UNL     1       6.191   6.031  16.420  0.00  0.00    +0.000 OA
BRANCH  29  30
ATOM     30  C   UNL     1       7.574   5.858  16.741  0.00  0.00    +0.000 C 
ATOM     31  C   UNL     1       7.703   4.578  17.546  0.00  0.00    +0.000 C 
ENDBRANCH  29  30
ENDBRANCH   8  29
TORSDOF 8
ENDMDL
MODEL 9
REMARK VINA RESULT:      -6.2      2.306      6.938
REMARK  Name = 
REMARK  12 active torsions:
REMARK  status: ('A' for Active; 'I' for Inactive)
REMARK    1  A    between atoms: C_1  and  C_2
REMARK    2  A    between atoms: C_2  and  O_3
REMARK    3  A    between atoms: O_3  and  C_4
REMARK    4  A    between atoms: C_4  and  C_6
REMARK    5  A    between atoms: C_7  and  C_8
REMARK    6  A    between atoms: C_10  and  C_11
REMARK    7  A    between atoms: C_13  and  O_14
REMARK    8  A    between atoms: C_13  and  O_15
REMARK    9  A    between atoms: O_15  and  C_16
REMARK   10  A    between atoms: C_16  and  C_17
REMARK   11  A    between atoms: C_18  and  C_19
REMARK   12  A    between atoms: C_23  and  C_24
REMARK                            x       y       z     vdW  Elec       q    Type
REMARK                         _______ _______ _______ _____ _____    ______ ____
ROOT
ATOM      1  C   UNL     1       5.474   5.856  17.962  0.00  0.00    +0.000 C 
ATOM      2  C   UNL     1       6.127   5.321  19.016  0.00  0.00    +0.000 C 
ATOM      3  C   UNL     1       7.551   5.610  19.440  0.00  0.00    +0.000 C 
ATOM      4  N   UNL     1       5.538   4.417  19.865  0.00  0.00    +0.000 NA
ATOM      5  C   UNL     1       4.336   3.977  19.673  0.00  0.00    +0.000 C 
ATOM      6  C   UNL     1       3.887   2.939  20.685  0.00  0.00    +0.000 C 
ATOM      7  C   UNL     1       3.421   4.427  18.559  0.00  0.00    +0.000 C 
ATOM      8  C   UNL     1       2.181   3.910  18.362  0.00  0.00    +0.000 C 
ATOM      9  C   UNL     1       4.007   5.556  17.710  0.00  0.00    +0.000 C 
ENDROOT
BRANCH   9  10
ATOM     10  C   UNL     1       3.185   6.838  17.899  0.00  0.00    +0.000 A 
ATOM     11  C   UNL     1       3.055   7.787  16.880  0.00  0.00    +0.000 A 
ATOM     12  C   UNL     1       2.333   8.956  17.106  0.00  0.00    +0.000 A 
ATOM     13  C   UNL     1       1.762   9.202  18.360  0.00  0.00    +0.000 A 
ATOM     14  C   UNL     1       1.878   8.278  19.409  0.00  0.00    +0.000 A 
ATOM     15  C   UNL     1       2.574   7.089  19.139  0.00  0.00    +0.000 A 
BRANCH  14  16
ATOM     16  C   UNL     1       1.326   8.523  20.756  0.00  0.00    +0.000 A 
ATOM     17  C   UNL     1      -0.007   8.215  21.075  0.00  0.00    +0.000 A 
ATOM     18  C   UNL     1      -0.521   8.479  22.341  0.00  0.00    +0.000 A 
ATOM     19  C   UNL     1       0.324   9.037  23.282  0.00  0.00    +0.000 A 
ATOM     20  N   UNL     1       1.614   9.343  23.039  0.00  0.00    +0.000 NA
ATOM     21  C   UNL     1       2.077   9.085  21.791  0.00  0.00    +0.000 A 
ENDBRANCH  14  16
ENDBRANCH   9  10
BRANCH   1  22
ATOM     22  C   UNL     1       6.140   6.822  17.037  0.00  0.00    +0.000 C 
ATOM     23  O   UNL     1       6.663   7.871  17.365  0.00  0.00    +0.000 OA
BRANCH  22  24
ATOM     24  O   UNL     1       6.076   6.373  15.752  0.00  0.00    +0.000 OA
BRANCH  24  26
ATOM     25  C   UNL     1       6.083   4.145  14.740  0.00  0.00    +0.000 C 
ATOM     26  C   UNL     1       6.874   5.207  15.485  0.00  0.00    +0.000 C 
ENDBRANCH  24  26
ENDBRANCH  22  24
ENDBRANCH   1  22
BRANCH   8  27
ATOM     27  O   UNL     1       1.354   4.311  17.330  0.00  0.00    +0.000 OA
ATOM     28  H   UNL     1       0.471   3.932  17.426  0.00  0.00    +0.000 HD
ENDBRANCH   8  27
BRANCH   8  29
ATOM     29  O   UNL     1       1.679   2.927  19.186  0.00  0.00    +0.000 OA
BRANCH  29  30
ATOM     30  C   UNL     1       0.476   3.298  19.866  0.00  0.00    +0.000 C 
ATOM     31  C   UNL     1       0.776   4.538  20.687  0.00  0.00    +0.000 C 
ENDBRANCH  29  30
ENDBRANCH   8  29
TORSDOF 8
ENDMDL
