MODEL 1
REMARK VINA RESULT:      -9.3      0.000      0.000
REMARK  Name = 
REMARK  9 active torsions:
REMARK  status: ('A' for Active; 'I' for Inactive)
REMARK    1  A    between atoms: N_1  and  C_2
REMARK    2  A    between atoms: C_5  and  C_6
REMARK    3  A    between atoms: C_13  and  C_14
REMARK    4  A    between atoms: C_17  and  C_18
REMARK    5  A    between atoms: N_20  and  CA_21
REMARK    6  A    between atoms: CA_21  and  C_22
REMARK    7  A    between atoms: CA_21  and  C_24
REMARK    8  A    between atoms: C_22  and  O_23
REMARK    9  A    between atoms: C_29  and  C_30
REMARK                            x       y       z     vdW  Elec       q    Type
REMARK                         _______ _______ _______ _____ _____    ______ ____
ROOT
ATOM      1  C   UNL     1       1.679   8.504  19.031  0.00  0.00    +0.000 A 
ATOM      2  C   UNL     1       2.491   8.539  17.886  0.00  0.00    +0.000 A 
ATOM      3  C   UNL     1       3.402   7.511  17.604  0.00  0.00    +0.000 A 
ATOM      4  C   UNL     1       3.516   6.393  18.441  0.00  0.00    +0.000 A 
ATOM      5  C   UNL     1       2.732   6.350  19.587  0.00  0.00    +0.000 A 
ATOM      6  F   UNL     1       2.808   5.314  20.436  0.00  0.00    +0.000 F 
ATOM      7  C   UNL     1       1.830   7.384  19.878  0.00  0.00    +0.000 A 
ENDROOT
BRANCH   1  13
ATOM      8  C   UNL     1       0.575  10.285  20.533  0.00  0.00    +0.000 A 
ATOM      9  N   UNL     1      -0.371  11.234  20.717  0.00  0.00    +0.000 NA
ATOM     10  C   UNL     1      -1.209  11.457  19.680  0.00  0.00    +0.000 A 
ATOM     11  C   UNL     1      -1.130  10.763  18.481  0.00  0.00    +0.000 A 
ATOM     12  N   UNL     1      -0.200   9.790  18.305  0.00  0.00    +0.000 NA
ATOM     13  C   UNL     1       0.670   9.553  19.331  0.00  0.00    +0.000 A 
BRANCH  11  14
ATOM     14  C   UNL     1      -2.043  11.095  17.325  0.00  0.00    +0.000 C 
ATOM     15  C   UNL     1      -3.461  11.436  17.801  0.00  0.00    +0.000 C 
ATOM     16  C   UNL     1      -4.381  11.655  16.607  0.00  0.00    +0.000 C 
ATOM     17  O   UNL     1      -4.379  10.517  15.748  0.00  0.00    +0.000 OA
ATOM     18  C   UNL     1      -3.090  10.243  15.206  0.00  0.00    +0.000 C 
ATOM     19  C   UNL     1      -2.091   9.940  16.315  0.00  0.00    +0.000 C 
ENDBRANCH  11  14
BRANCH   8  20
ATOM     20  N   UNL     1       1.441  10.143  21.616  0.00  0.00    +0.000 N 
ATOM     21  H   UNL     1       0.982  10.561  22.424  0.00  0.00    +0.000 HD
ATOM     22  H   UNL     1       1.700   9.178  21.779  0.00  0.00    +0.000 HD
ENDBRANCH   8  20
ENDBRANCH   1  13
BRANCH   4  23
ATOM     23  C   UNL     1       4.441   5.308  18.015  0.00  0.00    +0.000 C 
ATOM     24  O   UNL     1       4.504   4.286  18.695  0.00  0.00    +0.000 OA
ATOM     25  N   UNL     1       5.235   5.477  16.896  0.00  0.00    +0.000 N 
ATOM     26  H   UNL     1       5.224   6.344  16.371  0.00  0.00    +0.000 HD
BRANCH  25  27
ATOM     27  CA  UNL     1       6.232   4.448  16.567  0.00  0.00    +0.000 C 
BRANCH  27  28
ATOM     28  C   UNL     1       6.514   4.348  15.070  0.00  0.00    +0.000 A 
ATOM     29  C   UNL     1       7.554   5.105  14.505  0.00  0.00    +0.000 A 
ATOM     30  C   UNL     1       7.714   5.170  13.123  0.00  0.00    +0.000 A 
ATOM     31  F   UNL     1       8.696   5.923  12.610  0.00  0.00    +0.000 F 
ATOM     32  C   UNL     1       6.847   4.505  12.264  0.00  0.00    +0.000 A 
ATOM     33  C   UNL     1       5.808   3.736  12.791  0.00  0.00    +0.000 A 
ATOM     34  C   UNL     1       5.662   3.653  14.187  0.00  0.00    +0.000 A 
BRANCH  33  35
ATOM     35  C   UNL     1       4.825   3.033  11.894  0.00  0.00    +0.000 C 
ATOM     36  F   UNL     1       4.094   3.881  11.117  0.00  0.00    +0.000 F 
ENDBRANCH  33  35
ENDBRANCH  27  28
BRANCH  27  37
ATOM     37  C   UNL     1       7.472   4.567  17.495  0.00  0.00    +0.000 C 
BRANCH  37  38
ATOM     38  O   UNL     1       7.711   5.908  17.930  0.00  0.00    +0.000 OA
ATOM     39  H   UNL     1       7.328   6.493  17.256  0.00  0.00    +0.000 HD
ENDBRANCH  37  38
ENDBRANCH  27  37
ENDBRANCH  25  27
ENDBRANCH   4  23
TORSDOF 9
ENDMDL
MODEL 2
REMARK VINA RESULT:      -8.9      3.444      4.505
REMARK  Name = 
REMARK  9 active torsions:
REMARK  status: ('A' for Active; 'I' for Inactive)
REMARK    1  A    between atoms: N_1  and  C_2
REMARK    2  A    between atoms: C_5  and  C_6
REMARK    3  A    between atoms: C_13  and  C_14
REMARK    4  A    between atoms: C_17  and  C_18
REMARK    5  A    between atoms: N_20  and  CA_21
REMARK    6  A    between atoms: CA_21  and  C_22
REMARK    7  A    between atoms: CA_21  and  C_24
REMARK    8  A    between atoms: C_22  and  O_23
REMARK    9  A    between atoms: C_29  and  C_30
REMARK                            x       y       z     vdW  Elec       q    Type
REMARK                         _______ _______ _______ _____ _____    ______ ____
ROOT
ATOM      1  C   UNL     1       1.218  10.034  18.871  0.00  0.00    +0.000 A 
ATOM      2  C   UNL     1       1.953   9.506  17.798  0.00  0.00    +0.000 A 
ATOM      3  C   UNL     1       2.535   8.232  17.868  0.00  0.00    +0.000 A 
ATOM      4  C   UNL     1       2.380   7.425  19.002  0.00  0.00    +0.000 A 
ATOM      5  C   UNL     1       1.669   7.938  20.080  0.00  0.00    +0.000 A 
ATOM      6  F   UNL     1       1.501   7.220  21.200  0.00  0.00    +0.000 F 
ATOM      7  C   UNL     1       1.098   9.218  20.017  0.00  0.00    +0.000 A 
ENDROOT
BRANCH   1  13
ATOM      8  C   UNL     1      -0.842  11.576  18.705  0.00  0.00    +0.000 A 
ATOM      9  N   UNL     1      -1.369  12.821  18.667  0.00  0.00    +0.000 NA
ATOM     10  C   UNL     1      -0.494  13.847  18.753  0.00  0.00    +0.000 A 
ATOM     11  C   UNL     1       0.877  13.665  18.871  0.00  0.00    +0.000 A 
ATOM     12  N   UNL     1       1.410  12.417  18.879  0.00  0.00    +0.000 NA
ATOM     13  C   UNL     1       0.548  11.359  18.809  0.00  0.00    +0.000 A 
BRANCH  11  14
ATOM     14  C   UNL     1       1.810  14.841  19.034  0.00  0.00    +0.000 C 
ATOM     15  C   UNL     1       1.073  16.177  18.882  0.00  0.00    +0.000 C 
ATOM     16  C   UNL     1       2.060  17.336  18.941  0.00  0.00    +0.000 C 
ATOM     17  O   UNL     1       3.077  17.187  17.953  0.00  0.00    +0.000 OA
ATOM     18  C   UNL     1       3.849  16.002  18.137  0.00  0.00    +0.000 C 
ATOM     19  C   UNL     1       2.971  14.764  18.032  0.00  0.00    +0.000 C 
ENDBRANCH  11  14
BRANCH   8  20
ATOM     20  N   UNL     1      -1.800  10.564  18.669  0.00  0.00    +0.000 N 
ATOM     21  H   UNL     1      -2.140  10.438  19.621  0.00  0.00    +0.000 HD
ATOM     22  H   UNL     1      -2.549  10.765  18.018  0.00  0.00    +0.000 HD
ENDBRANCH   8  20
ENDBRANCH   1  13
BRANCH   4  23
ATOM     23  C   UNL     1       2.953   6.052  18.952  0.00  0.00    +0.000 C 
ATOM     24  O   UNL     1       3.666   5.677  19.879  0.00  0.00    +0.000 OA
ATOM     25  N   UNL     1       2.709   5.241  17.859  0.00  0.00    +0.000 N 
ATOM     26  H   UNL     1       2.168   5.575  17.070  0.00  0.00    +0.000 HD
BRANCH  25  27
ATOM     27  CA  UNL     1       3.388   3.941  17.771  0.00  0.00    +0.000 C 
BRANCH  27  28
ATOM     28  C   UNL     1       4.806   4.045  17.214  0.00  0.00    +0.000 A 
ATOM     29  C   UNL     1       5.881   4.271  18.089  0.00  0.00    +0.000 A 
ATOM     30  C   UNL     1       7.153   4.550  17.592  0.00  0.00    +0.000 A 
ATOM     31  F   UNL     1       8.154   4.791  18.447  0.00  0.00    +0.000 F 
ATOM     32  C   UNL     1       7.393   4.626  16.225  0.00  0.00    +0.000 A 
ATOM     33  C   UNL     1       6.349   4.397  15.327  0.00  0.00    +0.000 A 
ATOM     34  C   UNL     1       5.071   4.093  15.831  0.00  0.00    +0.000 A 
BRANCH  33  35
ATOM     35  C   UNL     1       6.559   4.508  13.841  0.00  0.00    +0.000 C 
ATOM     36  F   UNL     1       6.447   3.318  13.184  0.00  0.00    +0.000 F 
ENDBRANCH  33  35
ENDBRANCH  27  28
BRANCH  27  37
ATOM     37  C   UNL     1       3.223   3.143  19.093  0.00  0.00    +0.000 C 
BRANCH  37  38
ATOM     38  O   UNL     1       1.964   2.472  19.183  0.00  0.00    +0.000 OA
ATOM     39  H   UNL     1       1.989   1.938  19.994  0.00  0.00    +0.000 HD
ENDBRANCH  37  38
ENDBRANCH  27  37
ENDBRANCH  25  27
ENDBRANCH   4  23
TORSDOF 9
ENDMDL
MODEL 3
REMARK VINA RESULT:      -8.9      3.857     10.546
REMARK  Name = 
REMARK  9 active torsions:
REMARK  status: ('A' for Active; 'I' for Inactive)
REMARK    1  A    between atoms: N_1  and  C_2
REMARK    2  A    between atoms: C_5  and  C_6
REMARK    3  A    between atoms: C_13  and  C_14
REMARK    4  A    between atoms: C_17  and  C_18
REMARK    5  A    between atoms: N_20  and  CA_21
REMARK    6  A    between atoms: CA_21  and  C_22
REMARK    7  A    between atoms: CA_21  and  C_24
REMARK    8  A    between atoms: C_22  and  O_23
REMARK    9  A    between atoms: C_29  and  C_30
REMARK                            x       y       z     vdW  Elec       q    Type
REMARK                         _______ _______ _______ _____ _____    ______ ____
ROOT
ATOM      1  C   UNL     1       2.240   6.628  19.219  0.00  0.00    +0.000 A 
ATOM      2  C   UNL     1       1.772   7.005  20.487  0.00  0.00    +0.000 A 
ATOM      3  C   UNL     1       1.299   8.302  20.736  0.00  0.00    +0.000 A 
ATOM      4  C   UNL     1       1.247   9.263  19.717  0.00  0.00    +0.000 A 
ATOM      5  C   UNL     1       1.721   8.911  18.460  0.00  0.00    +0.000 A 
ATOM      6  F   UNL     1       1.713   9.792  17.448  0.00  0.00    +0.000 F 
ATOM      7  C   UNL     1       2.209   7.619  18.213  0.00  0.00    +0.000 A 
ENDROOT
BRANCH   1  13
ATOM      8  C   UNL     1       2.065   4.057  19.318  0.00  0.00    +0.000 A 
ATOM      9  N   UNL     1       2.549   2.840  18.982  0.00  0.00    +0.000 NA
ATOM     10  C   UNL     1       3.666   2.826  18.221  0.00  0.00    +0.000 A 
ATOM     11  C   UNL     1       4.306   3.982  17.794  0.00  0.00    +0.000 A 
ATOM     12  N   UNL     1       3.838   5.203  18.155  0.00  0.00    +0.000 NA
ATOM     13  C   UNL     1       2.702   5.249  18.912  0.00  0.00    +0.000 A 
BRANCH  11  14
ATOM     14  C   UNL     1       5.510   3.918  16.886  0.00  0.00    +0.000 C 
ATOM     15  C   UNL     1       6.678   4.749  17.433  0.00  0.00    +0.000 C 
ATOM     16  C   UNL     1       7.833   4.754  16.440  0.00  0.00    +0.000 C 
ATOM     17  O   UNL     1       7.407   5.230  15.166  0.00  0.00    +0.000 OA
ATOM     18  C   UNL     1       6.394   4.410  14.587  0.00  0.00    +0.000 C 
ATOM     19  C   UNL     1       5.153   4.383  15.468  0.00  0.00    +0.000 C 
ENDBRANCH  11  14
BRANCH   8  20
ATOM     20  N   UNL     1       0.883   4.003  20.055  0.00  0.00    +0.000 N 
ATOM     21  H   UNL     1       0.603   3.025  20.101  0.00  0.00    +0.000 HD
ATOM     22  H   UNL     1       0.982   4.417  20.974  0.00  0.00    +0.000 HD
ENDBRANCH   8  20
ENDBRANCH   1  13
BRANCH   4  23
ATOM     23  C   UNL     1       0.643  10.582  20.048  0.00  0.00    +0.000 C 
ATOM     24  O   UNL     1       1.314  11.597  19.875  0.00  0.00    +0.000 OA
ATOM     25  N   UNL     1      -0.634  10.645  20.573  0.00  0.00    +0.000 N 
ATOM     26  H   UNL     1      -1.163   9.803  20.769  0.00  0.00    +0.000 HD
BRANCH  25  27
ATOM     27  CA  UNL     1      -1.161  11.945  21.011  0.00  0.00    +0.000 C 
BRANCH  27  28
ATOM     28  C   UNL     1      -2.537  12.258  20.427  0.00  0.00    +0.000 A 
ATOM     29  C   UNL     1      -3.541  12.786  21.256  0.00  0.00    +0.000 A 
ATOM     30  C   UNL     1      -4.850  12.909  20.794  0.00  0.00    +0.000 A 
ATOM     31  F   UNL     1      -5.794  13.388  21.614  0.00  0.00    +0.000 F 
ATOM     32  C   UNL     1      -5.204  12.504  19.512  0.00  0.00    +0.000 A 
ATOM     33  C   UNL     1      -4.230  11.983  18.659  0.00  0.00    +0.000 A 
ATOM     34  C   UNL     1      -2.905  11.881  19.120  0.00  0.00    +0.000 A 
BRANCH  33  35
ATOM     35  C   UNL     1      -4.580  11.497  17.279  0.00  0.00    +0.000 C 
ATOM     36  F   UNL     1      -3.501  11.375  16.454  0.00  0.00    +0.000 F 
ENDBRANCH  33  35
ENDBRANCH  27  28
BRANCH  27  37
ATOM     37  C   UNL     1      -1.012  12.109  22.549  0.00  0.00    +0.000 C 
BRANCH  37  38
ATOM     38  O   UNL     1      -0.474  10.945  23.180  0.00  0.00    +0.000 OA
ATOM     39  H   UNL     1      -0.610  11.057  24.135  0.00  0.00    +0.000 HD
ENDBRANCH  37  38
ENDBRANCH  27  37
ENDBRANCH  25  27
ENDBRANCH   4  23
TORSDOF 9
ENDMDL
MODEL 4
REMARK VINA RESULT:      -8.9      0.978      1.268
REMARK  Name = 
REMARK  9 active torsions:
REMARK  status: ('A' for Active; 'I' for Inactive)
REMARK    1  A    between atoms: N_1  and  C_2
REMARK    2  A    between atoms: C_5  and  C_6
REMARK    3  A    between atoms: C_13  and  C_14
REMARK    4  A    between atoms: C_17  and  C_18
REMARK    5  A    between atoms: N_20  and  CA_21
REMARK    6  A    between atoms: CA_21  and  C_22
REMARK    7  A    between atoms: CA_21  and  C_24
REMARK    8  A    between atoms: C_22  and  O_23
REMARK    9  A    between atoms: C_29  and  C_30
REMARK                            x       y       z     vdW  Elec       q    Type
REMARK                         _______ _______ _______ _____ _____    ______ ____
ROOT
ATOM      1  C   UNL     1       1.520   8.398  19.115  0.00  0.00    +0.000 A 
ATOM      2  C   UNL     1       1.746   7.222  19.849  0.00  0.00    +0.000 A 
ATOM      3  C   UNL     1       2.638   6.239  19.397  0.00  0.00    +0.000 A 
ATOM      4  C   UNL     1       3.362   6.407  18.209  0.00  0.00    +0.000 A 
ATOM      5  C   UNL     1       3.139   7.557  17.463  0.00  0.00    +0.000 A 
ATOM      6  F   UNL     1       3.789   7.766  16.308  0.00  0.00    +0.000 F 
ATOM      7  C   UNL     1       2.236   8.535  17.905  0.00  0.00    +0.000 A 
ENDROOT
BRANCH   1  13
ATOM      8  C   UNL     1       0.673  10.100  20.857  0.00  0.00    +0.000 A 
ATOM      9  N   UNL     1      -0.181  11.089  21.203  0.00  0.00    +0.000 NA
ATOM     10  C   UNL     1      -1.078  11.466  20.265  0.00  0.00    +0.000 A 
ATOM     11  C   UNL     1      -1.144  10.885  19.006  0.00  0.00    +0.000 A 
ATOM     12  N   UNL     1      -0.307   9.872  18.667  0.00  0.00    +0.000 NA
ATOM     13  C   UNL     1       0.620   9.479  19.591  0.00  0.00    +0.000 A 
BRANCH  11  14
ATOM     14  C   UNL     1      -2.116  11.386  17.964  0.00  0.00    +0.000 C 
ATOM     15  C   UNL     1      -3.545  11.471  18.515  0.00  0.00    +0.000 C 
ATOM     16  C   UNL     1      -4.515  11.872  17.410  0.00  0.00    +0.000 C 
ATOM     17  O   UNL     1      -4.433  10.968  16.311  0.00  0.00    +0.000 OA
ATOM     18  C   UNL     1      -3.140  10.950  15.712  0.00  0.00    +0.000 C 
ATOM     19  C   UNL     1      -2.087  10.497  16.714  0.00  0.00    +0.000 C 
ENDBRANCH  11  14
BRANCH   8  20
ATOM     20  N   UNL     1       1.606   9.797  21.847  0.00  0.00    +0.000 N 
ATOM     21  H   UNL     1       2.500  10.183  21.546  0.00  0.00    +0.000 HD
ATOM     22  H   UNL     1       1.327  10.142  22.758  0.00  0.00    +0.000 HD
ENDBRANCH   8  20
ENDBRANCH   1  13
BRANCH   4  23
ATOM     23  C   UNL     1       4.354   5.355  17.856  0.00  0.00    +0.000 C 
ATOM     24  O   UNL     1       4.346   4.301  18.486  0.00  0.00    +0.000 OA
ATOM     25  N   UNL     1       5.285   5.590  16.861  0.00  0.00    +0.000 N 
ATOM     26  H   UNL     1       5.327   6.483  16.382  0.00  0.00    +0.000 HD
BRANCH  25  27
ATOM     27  CA  UNL     1       6.335   4.591  16.615  0.00  0.00    +0.000 C 
BRANCH  27  28
ATOM     28  C   UNL     1       6.683   4.443  15.136  0.00  0.00    +0.000 A 
ATOM     29  C   UNL     1       7.685   5.250  14.573  0.00  0.00    +0.000 A 
ATOM     30  C   UNL     1       7.894   5.263  13.195  0.00  0.00    +0.000 A 
ATOM     31  F   UNL     1       8.836   6.064  12.682  0.00  0.00    +0.000 F 
ATOM     32  C   UNL     1       7.116   4.493  12.340  0.00  0.00    +0.000 A 
ATOM     33  C   UNL     1       6.118   3.672  12.866  0.00  0.00    +0.000 A 
ATOM     34  C   UNL     1       5.922   3.643  14.259  0.00  0.00    +0.000 A 
BRANCH  33  35
ATOM     35  C   UNL     1       5.227   2.853  11.971  0.00  0.00    +0.000 C 
ATOM     36  F   UNL     1       4.155   3.545  11.489  0.00  0.00    +0.000 F 
ENDBRANCH  33  35
ENDBRANCH  27  28
BRANCH  27  37
ATOM     37  C   UNL     1       7.528   4.798  17.587  0.00  0.00    +0.000 C 
BRANCH  37  38
ATOM     38  O   UNL     1       7.160   4.638  18.959  0.00  0.00    +0.000 OA
ATOM     39  H   UNL     1       7.708   5.257  19.470  0.00  0.00    +0.000 HD
ENDBRANCH  37  38
ENDBRANCH  27  37
ENDBRANCH  25  27
ENDBRANCH   4  23
TORSDOF 9
ENDMDL
MODEL 5
REMARK VINA RESULT:      -8.8      2.024      2.916
REMARK  Name = 
REMARK  9 active torsions:
REMARK  status: ('A' for Active; 'I' for Inactive)
REMARK    1  A    between atoms: N_1  and  C_2
REMARK    2  A    between atoms: C_5  and  C_6
REMARK    3  A    between atoms: C_13  and  C_14
REMARK    4  A    between atoms: C_17  and  C_18
REMARK    5  A    between atoms: N_20  and  CA_21
REMARK    6  A    between atoms: CA_21  and  C_22
REMARK    7  A    between atoms: CA_21  and  C_24
REMARK    8  A    between atoms: C_22  and  O_23
REMARK    9  A    between atoms: C_29  and  C_30
REMARK                            x       y       z     vdW  Elec       q    Type
REMARK                         _______ _______ _______ _____ _____    ______ ____
ROOT
ATOM      1  C   UNL     1       1.073   9.655  18.995  0.00  0.00    +0.000 A 
ATOM      2  C   UNL     1       1.799   9.191  17.887  0.00  0.00    +0.000 A 
ATOM      3  C   UNL     1       2.491   7.972  17.925  0.00  0.00    +0.000 A 
ATOM      4  C   UNL     1       2.458   7.154  19.063  0.00  0.00    +0.000 A 
ATOM      5  C   UNL     1       1.757   7.605  20.174  0.00  0.00    +0.000 A 
ATOM      6  F   UNL     1       1.703   6.875  21.298  0.00  0.00    +0.000 F 
ATOM      7  C   UNL     1       1.077   8.832  20.143  0.00  0.00    +0.000 A 
ENDROOT
BRANCH   1  13
ATOM      8  C   UNL     1       0.830  12.220  18.916  0.00  0.00    +0.000 A 
ATOM      9  N   UNL     1       0.040  13.318  18.883  0.00  0.00    +0.000 NA
ATOM     10  C   UNL     1      -1.294  13.100  18.884  0.00  0.00    +0.000 A 
ATOM     11  C   UNL     1      -1.853  11.830  18.920  0.00  0.00    +0.000 A 
ATOM     12  N   UNL     1      -1.062  10.729  18.983  0.00  0.00    +0.000 NA
ATOM     13  C   UNL     1       0.291  10.918  18.969  0.00  0.00    +0.000 A 
BRANCH  11  14
ATOM     14  C   UNL     1      -3.348  11.632  18.848  0.00  0.00    +0.000 C 
ATOM     15  C   UNL     1      -3.853  11.642  17.400  0.00  0.00    +0.000 C 
ATOM     16  C   UNL     1      -5.373  11.553  17.369  0.00  0.00    +0.000 C 
ATOM     17  O   UNL     1      -5.959  12.605  18.133  0.00  0.00    +0.000 OA
ATOM     18  C   UNL     1      -5.590  12.554  19.508  0.00  0.00    +0.000 C 
ATOM     19  C   UNL     1      -4.083  12.701  19.668  0.00  0.00    +0.000 C 
ENDBRANCH  11  14
BRANCH   8  20
ATOM     20  N   UNL     1       2.191  12.511  18.857  0.00  0.00    +0.000 N 
ATOM     21  H   UNL     1       2.498  12.323  17.904  0.00  0.00    +0.000 HD
ATOM     22  H   UNL     1       2.396  13.461  19.146  0.00  0.00    +0.000 HD
ENDBRANCH   8  20
ENDBRANCH   1  13
BRANCH   4  23
ATOM     23  C   UNL     1       3.144   5.835  18.981  0.00  0.00    +0.000 C 
ATOM     24  O   UNL     1       4.049   5.591  19.774  0.00  0.00    +0.000 OA
ATOM     25  N   UNL     1       2.782   4.929  18.001  0.00  0.00    +0.000 N 
ATOM     26  H   UNL     1       2.075   5.156  17.312  0.00  0.00    +0.000 HD
BRANCH  25  27
ATOM     27  CA  UNL     1       3.556   3.688  17.858  0.00  0.00    +0.000 C 
BRANCH  27  28
ATOM     28  C   UNL     1       4.888   3.895  17.139  0.00  0.00    +0.000 A 
ATOM     29  C   UNL     1       5.982   4.428  17.840  0.00  0.00    +0.000 A 
ATOM     30  C   UNL     1       7.145   4.795  17.167  0.00  0.00    +0.000 A 
ATOM     31  F   UNL     1       8.162   5.327  17.856  0.00  0.00    +0.000 F 
ATOM     32  C   UNL     1       7.254   4.659  15.788  0.00  0.00    +0.000 A 
ATOM     33  C   UNL     1       6.190   4.125  15.061  0.00  0.00    +0.000 A 
ATOM     34  C   UNL     1       5.025   3.734  15.745  0.00  0.00    +0.000 A 
BRANCH  33  35
ATOM     35  C   UNL     1       6.254   3.998  13.562  0.00  0.00    +0.000 C 
ATOM     36  F   UNL     1       5.030   3.864  12.974  0.00  0.00    +0.000 F 
ENDBRANCH  33  35
ENDBRANCH  27  28
BRANCH  27  37
ATOM     37  C   UNL     1       3.614   2.916  19.204  0.00  0.00    +0.000 C 
BRANCH  37  38
ATOM     38  O   UNL     1       4.207   1.622  19.076  0.00  0.00    +0.000 OA
ATOM     39  H   UNL     1       4.641   1.598  18.207  0.00  0.00    +0.000 HD
ENDBRANCH  37  38
ENDBRANCH  27  37
ENDBRANCH  25  27
ENDBRANCH   4  23
TORSDOF 9
ENDMDL
MODEL 6
REMARK VINA RESULT:      -8.7      3.329      4.690
REMARK  Name = 
REMARK  9 active torsions:
REMARK  status: ('A' for Active; 'I' for Inactive)
REMARK    1  A    between atoms: N_1  and  C_2
REMARK    2  A    between atoms: C_5  and  C_6
REMARK    3  A    between atoms: C_13  and  C_14
REMARK    4  A    between atoms: C_17  and  C_18
REMARK    5  A    between atoms: N_20  and  CA_21
REMARK    6  A    between atoms: CA_21  and  C_22
REMARK    7  A    between atoms: CA_21  and  C_24
REMARK    8  A    between atoms: C_22  and  O_23
REMARK    9  A    between atoms: C_29  and  C_30
REMARK                            x       y       z     vdW  Elec       q    Type
REMARK                         _______ _______ _______ _____ _____    ______ ____
ROOT
ATOM      1  C   UNL     1       0.715   9.940  20.811  0.00  0.00    +0.000 A 
ATOM      2  C   UNL     1       0.969   8.763  21.532  0.00  0.00    +0.000 A 
ATOM      3  C   UNL     1       1.508   7.627  20.911  0.00  0.00    +0.000 A 
ATOM      4  C   UNL     1       1.842   7.634  19.550  0.00  0.00    +0.000 A 
ATOM      5  C   UNL     1       1.583   8.785  18.818  0.00  0.00    +0.000 A 
ATOM      6  F   UNL     1       1.865   8.847  17.508  0.00  0.00    +0.000 F 
ATOM      7  C   UNL     1       1.030   9.918  19.435  0.00  0.00    +0.000 A 
ENDROOT
BRANCH   1  13
ATOM      8  C   UNL     1      -0.634  11.224  22.594  0.00  0.00    +0.000 A 
ATOM      9  N   UNL     1      -1.056  12.397  23.118  0.00  0.00    +0.000 NA
ATOM     10  C   UNL     1      -0.630  13.521  22.499  0.00  0.00    +0.000 A 
ATOM     11  C   UNL     1       0.194  13.503  21.382  0.00  0.00    +0.000 A 
ATOM     12  N   UNL     1       0.595  12.327  20.838  0.00  0.00    +0.000 NA
ATOM     13  C   UNL     1       0.191  11.174  21.450  0.00  0.00    +0.000 A 
BRANCH  11  14
ATOM     14  C   UNL     1       0.702  14.785  20.766  0.00  0.00    +0.000 C 
ATOM     15  C   UNL     1      -0.376  15.476  19.922  0.00  0.00    +0.000 C 
ATOM     16  C   UNL     1       0.202  16.702  19.227  0.00  0.00    +0.000 C 
ATOM     17  O   UNL     1       1.336  16.351  18.438  0.00  0.00    +0.000 OA
ATOM     18  C   UNL     1       2.397  15.804  19.217  0.00  0.00    +0.000 C 
ATOM     19  C   UNL     1       1.952  14.525  19.913  0.00  0.00    +0.000 C 
ENDBRANCH  11  14
BRANCH   8  20
ATOM     20  N   UNL     1      -1.062  10.108  23.310  0.00  0.00    +0.000 N 
ATOM     21  H   UNL     1      -0.848   9.288  22.744  0.00  0.00    +0.000 HD
ATOM     22  H   UNL     1      -0.644  10.057  24.231  0.00  0.00    +0.000 HD
ENDBRANCH   8  20
ENDBRANCH   1  13
BRANCH   4  23
ATOM     23  C   UNL     1       2.495   6.416  18.997  0.00  0.00    +0.000 C 
ATOM     24  O   UNL     1       2.361   6.167  17.801  0.00  0.00    +0.000 OA
ATOM     25  N   UNL     1       3.203   5.572  19.832  0.00  0.00    +0.000 N 
ATOM     26  H   UNL     1       3.262   5.749  20.828  0.00  0.00    +0.000 HD
BRANCH  25  27
ATOM     27  CA  UNL     1       3.730   4.311  19.292  0.00  0.00    +0.000 C 
BRANCH  27  28
ATOM     28  C   UNL     1       5.069   4.481  18.578  0.00  0.00    +0.000 A 
ATOM     29  C   UNL     1       6.128   5.130  19.233  0.00  0.00    +0.000 A 
ATOM     30  C   UNL     1       7.294   5.459  18.544  0.00  0.00    +0.000 A 
ATOM     31  F   UNL     1       8.277   6.103  19.185  0.00  0.00    +0.000 F 
ATOM     32  C   UNL     1       7.439   5.168  17.192  0.00  0.00    +0.000 A 
ATOM     33  C   UNL     1       6.410   4.515  16.512  0.00  0.00    +0.000 A 
ATOM     34  C   UNL     1       5.243   4.165  17.216  0.00  0.00    +0.000 A 
BRANCH  33  35
ATOM     35  C   UNL     1       6.512   4.218  15.041  0.00  0.00    +0.000 C 
ATOM     36  F   UNL     1       5.301   4.085  14.427  0.00  0.00    +0.000 F 
ENDBRANCH  33  35
ENDBRANCH  27  28
BRANCH  27  37
ATOM     37  C   UNL     1       3.655   3.182  20.356  0.00  0.00    +0.000 C 
BRANCH  37  38
ATOM     38  O   UNL     1       2.541   3.329  21.241  0.00  0.00    +0.000 OA
ATOM     39  H   UNL     1       2.812   3.960  21.928  0.00  0.00    +0.000 HD
ENDBRANCH  37  38
ENDBRANCH  27  37
ENDBRANCH  25  27
ENDBRANCH   4  23
TORSDOF 9
ENDMDL
MODEL 7
REMARK VINA RESULT:      -8.7      3.259      4.578
REMARK  Name = 
REMARK  9 active torsions:
REMARK  status: ('A' for Active; 'I' for Inactive)
REMARK    1  A    between atoms: N_1  and  C_2
REMARK    2  A    between atoms: C_5  and  C_6
REMARK    3  A    between atoms: C_13  and  C_14
REMARK    4  A    between atoms: C_17  and  C_18
REMARK    5  A    between atoms: N_20  and  CA_21
REMARK    6  A    between atoms: CA_21  and  C_22
REMARK    7  A    between atoms: CA_21  and  C_24
REMARK    8  A    between atoms: C_22  and  O_23
REMARK    9  A    between atoms: C_29  and  C_30
REMARK                            x       y       z     vdW  Elec       q    Type
REMARK                         _______ _______ _______ _____ _____    ______ ____
ROOT
ATOM      1  C   UNL     1       0.722   9.805  20.841  0.00  0.00    +0.000 A 
ATOM      2  C   UNL     1       0.996   8.606  21.517  0.00  0.00    +0.000 A 
ATOM      3  C   UNL     1       1.555   7.504  20.854  0.00  0.00    +0.000 A 
ATOM      4  C   UNL     1       1.890   7.569  19.495  0.00  0.00    +0.000 A 
ATOM      5  C   UNL     1       1.611   8.742  18.806  0.00  0.00    +0.000 A 
ATOM      6  F   UNL     1       1.894   8.859  17.500  0.00  0.00    +0.000 F 
ATOM      7  C   UNL     1       1.038   9.841  19.465  0.00  0.00    +0.000 A 
ENDROOT
BRANCH   1  13
ATOM      8  C   UNL     1      -0.652  10.998  22.667  0.00  0.00    +0.000 A 
ATOM      9  N   UNL     1      -1.095  12.142  23.235  0.00  0.00    +0.000 NA
ATOM     10  C   UNL     1      -0.686  13.296  22.661  0.00  0.00    +0.000 A 
ATOM     11  C   UNL     1       0.140  13.335  21.547  0.00  0.00    +0.000 A 
ATOM     12  N   UNL     1       0.562  12.187  20.958  0.00  0.00    +0.000 NA
ATOM     13  C   UNL     1       0.176  11.006  21.525  0.00  0.00    +0.000 A 
BRANCH  11  14
ATOM     14  C   UNL     1       0.628  14.648  20.982  0.00  0.00    +0.000 C 
ATOM     15  C   UNL     1       0.599  14.652  19.448  0.00  0.00    +0.000 C 
ATOM     16  C   UNL     1       1.201  15.944  18.912  0.00  0.00    +0.000 C 
ATOM     17  O   UNL     1       2.525  16.132  19.408  0.00  0.00    +0.000 OA
ATOM     18  C   UNL     1       2.566  16.239  20.828  0.00  0.00    +0.000 C 
ATOM     19  C   UNL     1       2.045  14.967  21.481  0.00  0.00    +0.000 C 
ENDBRANCH  11  14
BRANCH   8  20
ATOM     20  N   UNL     1      -1.063   9.847  23.339  0.00  0.00    +0.000 N 
ATOM     21  H   UNL     1      -1.226   9.130  22.634  0.00  0.00    +0.000 HD
ATOM     22  H   UNL     1      -0.395   9.551  24.040  0.00  0.00    +0.000 HD
ENDBRANCH   8  20
ENDBRANCH   1  13
BRANCH   4  23
ATOM     23  C   UNL     1       2.564   6.384  18.897  0.00  0.00    +0.000 C 
ATOM     24  O   UNL     1       2.249   6.037  17.761  0.00  0.00    +0.000 OA
ATOM     25  N   UNL     1       3.497   5.676  19.632  0.00  0.00    +0.000 N 
ATOM     26  H   UNL     1       3.712   5.929  20.590  0.00  0.00    +0.000 HD
BRANCH  25  27
ATOM     27  CA  UNL     1       4.055   4.437  19.072  0.00  0.00    +0.000 C 
BRANCH  27  28
ATOM     28  C   UNL     1       5.138   4.691  18.026  0.00  0.00    +0.000 A 
ATOM     29  C   UNL     1       6.221   5.530  18.335  0.00  0.00    +0.000 A 
ATOM     30  C   UNL     1       7.121   5.921  17.345  0.00  0.00    +0.000 A 
ATOM     31  F   UNL     1       8.128   6.745  17.662  0.00  0.00    +0.000 F 
ATOM     32  C   UNL     1       6.969   5.506  16.027  0.00  0.00    +0.000 A 
ATOM     33  C   UNL     1       5.909   4.664  15.687  0.00  0.00    +0.000 A 
ATOM     34  C   UNL     1       5.015   4.253  16.691  0.00  0.00    +0.000 A 
BRANCH  33  35
ATOM     35  C   UNL     1       5.687   4.226  14.264  0.00  0.00    +0.000 C 
ATOM     36  F   UNL     1       6.720   3.498  13.751  0.00  0.00    +0.000 F 
ENDBRANCH  33  35
ENDBRANCH  27  28
BRANCH  27  37
ATOM     37  C   UNL     1       4.411   3.433  20.202  0.00  0.00    +0.000 C 
BRANCH  37  38
ATOM     38  O   UNL     1       5.034   2.244  19.711  0.00  0.00    +0.000 OA
ATOM     39  H   UNL     1       5.489   1.835  20.465  0.00  0.00    +0.000 HD
ENDBRANCH  37  38
ENDBRANCH  27  37
ENDBRANCH  25  27
ENDBRANCH   4  23
TORSDOF 9
ENDMDL
MODEL 8
REMARK VINA RESULT:      -8.7      4.245     10.139
REMARK  Name = 
REMARK  9 active torsions:
REMARK  status: ('A' for Active; 'I' for Inactive)
REMARK    1  A    between atoms: N_1  and  C_2
REMARK    2  A    between atoms: C_5  and  C_6
REMARK    3  A    between atoms: C_13  and  C_14
REMARK    4  A    between atoms: C_17  and  C_18
REMARK    5  A    between atoms: N_20  and  CA_21
REMARK    6  A    between atoms: CA_21  and  C_22
REMARK    7  A    between atoms: CA_21  and  C_24
REMARK    8  A    between atoms: C_22  and  O_23
REMARK    9  A    between atoms: C_29  and  C_30
REMARK                            x       y       z     vdW  Elec       q    Type
REMARK                         _______ _______ _______ _____ _____    ______ ____
ROOT
ATOM      1  C   UNL     1       2.102   6.647  19.492  0.00  0.00    +0.000 A 
ATOM      2  C   UNL     1       1.657   6.968  20.783  0.00  0.00    +0.000 A 
ATOM      3  C   UNL     1       1.226   8.262  21.108  0.00  0.00    +0.000 A 
ATOM      4  C   UNL     1       1.196   9.279  20.144  0.00  0.00    +0.000 A 
ATOM      5  C   UNL     1       1.648   8.984  18.865  0.00  0.00    +0.000 A 
ATOM      6  F   UNL     1       1.659   9.920  17.904  0.00  0.00    +0.000 F 
ATOM      7  C   UNL     1       2.094   7.693  18.543  0.00  0.00    +0.000 A 
ENDROOT
BRANCH   1  13
ATOM      8  C   UNL     1       1.830   4.084  19.422  0.00  0.00    +0.000 A 
ATOM      9  N   UNL     1       2.275   2.873  19.017  0.00  0.00    +0.000 NA
ATOM     10  C   UNL     1       3.405   2.865  18.274  0.00  0.00    +0.000 A 
ATOM     11  C   UNL     1       4.095   4.020  17.933  0.00  0.00    +0.000 A 
ATOM     12  N   UNL     1       3.666   5.233  18.364  0.00  0.00    +0.000 NA
ATOM     13  C   UNL     1       2.518   5.274  19.104  0.00  0.00    +0.000 A 
BRANCH  11  14
ATOM     14  C   UNL     1       5.313   3.969  17.043  0.00  0.00    +0.000 C 
ATOM     15  C   UNL     1       6.513   4.678  17.681  0.00  0.00    +0.000 C 
ATOM     16  C   UNL     1       7.688   4.705  16.711  0.00  0.00    +0.000 C 
ATOM     17  O   UNL     1       7.316   5.318  15.479  0.00  0.00    +0.000 OA
ATOM     18  C   UNL     1       6.271   4.613  14.812  0.00  0.00    +0.000 C 
ATOM     19  C   UNL     1       5.012   4.579  15.666  0.00  0.00    +0.000 C 
ENDBRANCH  11  14
BRANCH   8  20
ATOM     20  N   UNL     1       0.634   4.028  20.135  0.00  0.00    +0.000 N 
ATOM     21  H   UNL     1       0.696   3.229  20.764  0.00  0.00    +0.000 HD
ATOM     22  H   UNL     1       0.439   4.891  20.629  0.00  0.00    +0.000 HD
ENDBRANCH   8  20
ENDBRANCH   1  13
BRANCH   4  23
ATOM     23  C   UNL     1       0.636  10.597  20.554  0.00  0.00    +0.000 C 
ATOM     24  O   UNL     1       0.707  10.925  21.735  0.00  0.00    +0.000 OA
ATOM     25  N   UNL     1       0.018  11.406  19.618  0.00  0.00    +0.000 N 
ATOM     26  H   UNL     1      -0.090  11.105  18.656  0.00  0.00    +0.000 HD
BRANCH  25  27
ATOM     27  CA  UNL     1      -0.639  12.641  20.066  0.00  0.00    +0.000 C 
BRANCH  27  28
ATOM     28  C   UNL     1       0.100  13.903  19.626  0.00  0.00    +0.000 A 
ATOM     29  C   UNL     1      -0.606  15.110  19.490  0.00  0.00    +0.000 A 
ATOM     30  C   UNL     1       0.002  16.226  18.918  0.00  0.00    +0.000 A 
ATOM     31  F   UNL     1      -0.702  17.355  18.773  0.00  0.00    +0.000 F 
ATOM     32  C   UNL     1       1.312  16.177  18.456  0.00  0.00    +0.000 A 
ATOM     33  C   UNL     1       2.045  14.996  18.584  0.00  0.00    +0.000 A 
ATOM     34  C   UNL     1       1.437  13.877  19.182  0.00  0.00    +0.000 A 
BRANCH  33  35
ATOM     35  C   UNL     1       3.452  14.890  18.060  0.00  0.00    +0.000 C 
ATOM     36  F   UNL     1       3.638  15.525  16.867  0.00  0.00    +0.000 F 
ENDBRANCH  33  35
ENDBRANCH  27  28
BRANCH  27  37
ATOM     37  C   UNL     1      -2.162  12.594  19.766  0.00  0.00    +0.000 C 
BRANCH  37  38
ATOM     38  O   UNL     1      -2.448  12.296  18.397  0.00  0.00    +0.000 OA
ATOM     39  H   UNL     1      -2.063  11.422  18.216  0.00  0.00    +0.000 HD
ENDBRANCH  37  38
ENDBRANCH  27  37
ENDBRANCH  25  27
ENDBRANCH   4  23
TORSDOF 9
ENDMDL
MODEL 9
REMARK VINA RESULT:      -8.7      2.706      3.946
REMARK  Name = 
REMARK  9 active torsions:
REMARK  status: ('A' for Active; 'I' for Inactive)
REMARK    1  A    between atoms: N_1  and  C_2
REMARK    2  A    between atoms: C_5  and  C_6
REMARK    3  A    between atoms: C_13  and  C_14
REMARK    4  A    between atoms: C_17  and  C_18
REMARK    5  A    between atoms: N_20  and  CA_21
REMARK    6  A    between atoms: CA_21  and  C_22
REMARK    7  A    between atoms: CA_21  and  C_24
REMARK    8  A    between atoms: C_22  and  O_23
REMARK    9  A    between atoms: C_29  and  C_30
REMARK                            x       y       z     vdW  Elec       q    Type
REMARK                         _______ _______ _______ _____ _____    ______ ____
ROOT
ATOM      1  C   UNL     1       0.707  10.679  19.918  0.00  0.00    +0.000 A 
ATOM      2  C   UNL     1       1.213  10.404  18.638  0.00  0.00    +0.000 A 
ATOM      3  C   UNL     1       1.785   9.161  18.330  0.00  0.00    +0.000 A 
ATOM      4  C   UNL     1       1.846   8.134  19.282  0.00  0.00    +0.000 A 
ATOM      5  C   UNL     1       1.364   8.395  20.559  0.00  0.00    +0.000 A 
ATOM      6  F   UNL     1       1.410   7.459  21.518  0.00  0.00    +0.000 F 
ATOM      7  C   UNL     1       0.805   9.643  20.873  0.00  0.00    +0.000 A 
ENDROOT
BRANCH   1  13
ATOM      8  C   UNL     1       0.714  13.162  20.614  0.00  0.00    +0.000 A 
ATOM      9  N   UNL     1       0.036  14.296  20.900  0.00  0.00    +0.000 NA
ATOM     10  C   UNL     1      -1.311  14.231  20.811  0.00  0.00    +0.000 A 
ATOM     11  C   UNL     1      -1.990  13.075  20.452  0.00  0.00    +0.000 A 
ATOM     12  N   UNL     1      -1.313  11.928  20.193  0.00  0.00    +0.000 NA
ATOM     13  C   UNL     1       0.051  11.968  20.261  0.00  0.00    +0.000 A 
BRANCH  11  14
ATOM     14  C   UNL     1      -3.492  13.068  20.297  0.00  0.00    +0.000 C 
ATOM     15  C   UNL     1      -4.199  12.794  21.630  0.00  0.00    +0.000 C 
ATOM     16  C   UNL     1      -5.704  12.683  21.418  0.00  0.00    +0.000 C 
ATOM     17  O   UNL     1      -6.007  11.679  20.451  0.00  0.00    +0.000 OA
ATOM     18  C   UNL     1      -5.449  11.966  19.171  0.00  0.00    +0.000 C 
ATOM     19  C   UNL     1      -3.930  12.036  19.248  0.00  0.00    +0.000 C 
ENDBRANCH  11  14
BRANCH   8  20
ATOM     20  N   UNL     1       2.099  13.311  20.669  0.00  0.00    +0.000 N 
ATOM     21  H   UNL     1       2.289  14.157  21.204  0.00  0.00    +0.000 HD
ATOM     22  H   UNL     1       2.559  12.498  21.062  0.00  0.00    +0.000 HD
ENDBRANCH   8  20
ENDBRANCH   1  13
BRANCH   4  23
ATOM     23  C   UNL     1       2.384   6.819  18.840  0.00  0.00    +0.000 C 
ATOM     24  O   UNL     1       2.133   6.431  17.702  0.00  0.00    +0.000 OA
ATOM     25  N   UNL     1       3.120   6.044  19.718  0.00  0.00    +0.000 N 
ATOM     26  H   UNL     1       3.276   6.340  20.674  0.00  0.00    +0.000 HD
BRANCH  25  27
ATOM     27  CA  UNL     1       3.532   4.695  19.304  0.00  0.00    +0.000 C 
BRANCH  27  28
ATOM     28  C   UNL     1       4.895   4.674  18.616  0.00  0.00    +0.000 A 
ATOM     29  C   UNL     1       6.013   5.221  19.267  0.00  0.00    +0.000 A 
ATOM     30  C   UNL     1       7.221   5.377  18.591  0.00  0.00    +0.000 A 
ATOM     31  F   UNL     1       8.263   5.928  19.228  0.00  0.00    +0.000 F 
ATOM     32  C   UNL     1       7.355   5.012  17.257  0.00  0.00    +0.000 A 
ATOM     33  C   UNL     1       6.267   4.456  16.582  0.00  0.00    +0.000 A 
ATOM     34  C   UNL     1       5.054   4.278  17.272  0.00  0.00    +0.000 A 
BRANCH  33  35
ATOM     35  C   UNL     1       6.359   4.085  15.126  0.00  0.00    +0.000 C 
ATOM     36  F   UNL     1       5.173   4.188  14.461  0.00  0.00    +0.000 F 
ENDBRANCH  33  35
ENDBRANCH  27  28
BRANCH  27  37
ATOM     37  C   UNL     1       3.329   3.679  20.460  0.00  0.00    +0.000 C 
BRANCH  37  38
ATOM     38  O   UNL     1       2.237   4.025  21.316  0.00  0.00    +0.000 OA
ATOM     39  H   UNL     1       1.949   4.916  21.056  0.00  0.00    +0.000 HD
ENDBRANCH  37  38
ENDBRANCH  27  37
ENDBRANCH  25  27
ENDBRANCH   4  23
TORSDOF 9
ENDMDL
