MODEL 1
REMARK VINA RESULT:      -8.2      0.000      0.000
REMARK  Name = 
REMARK  8 active torsions:
REMARK  status: ('A' for Active; 'I' for Inactive)
REMARK    1  A    between atoms: C_1  and  C_2
REMARK    2  A    between atoms: C_10  and  C_11
REMARK    3  A    between atoms: N_13  and  C_14
REMARK    4  A    between atoms: C_14  and  C_15
REMARK    5  A    between atoms: N_23  and  C_24
REMARK    6  A    between atoms: C_24  and  C_25
REMARK    7  A    between atoms: C_25  and  C_26
REMARK    8  A    between atoms: C_26  and  N_27
REMARK                            x       y       z     vdW  Elec       q    Type
REMARK                         _______ _______ _______ _____ _____    ______ ____
ROOT
ATOM      1  C   UNL     1      -7.282  13.044  17.033  0.00  0.00    +0.000 C 
ATOM      2  C   UNL     1      -6.095  12.823  17.924  0.00  0.00    +0.000 A 
ATOM      3  C   UNL     1      -6.094  13.440  19.229  0.00  0.00    +0.000 A 
ATOM      4  C   UNL     1      -5.052  13.295  20.055  0.00  0.00    +0.000 A 
ATOM      5  C   UNL     1      -3.877  12.484  19.636  0.00  0.00    +0.000 A 
ATOM      6  N   UNL     1      -2.880  12.381  20.455  0.00  0.00    +0.000 NA
ATOM      7  C   UNL     1      -1.799  11.596  20.120  0.00  0.00    +0.000 A 
ATOM      8  C   UNL     1      -1.734  10.959  18.927  0.00  0.00    +0.000 A 
ATOM      9  C   UNL     1      -0.588  10.124  18.578  0.00  0.00    +0.000 A 
ATOM     10  C   UNL     1       0.444   9.907  19.415  0.00  0.00    +0.000 A 
ATOM     11  C   UNL     1       0.334  10.557  20.770  0.00  0.00    +0.000 A 
ATOM     12  N   UNL     1       1.207  10.296  21.703  0.00  0.00    +0.000 NA
ATOM     13  N   UNL     1      -0.735  11.427  21.042  0.00  0.00    +0.000 N 
ATOM     14  C   UNL     1      -2.865  11.116  17.961  0.00  0.00    +0.000 A 
ATOM     15  O   UNL     1      -2.806  10.576  16.854  0.00  0.00    +0.000 OA
ATOM     16  N   UNL     1      -3.934  11.889  18.391  0.00  0.00    +0.000 N 
ATOM     17  C   UNL     1      -5.037  12.075  17.558  0.00  0.00    +0.000 A 
ATOM     18  H   UNL     1       1.873   9.575  21.404  0.00  0.00    +0.000 HD
ENDROOT
BRANCH  10  19
ATOM     19  C   UNL     1       1.559   9.019  18.973  0.00  0.00    +0.000 C 
ATOM     20  O   UNL     1       2.240   9.277  17.985  0.00  0.00    +0.000 OA
ATOM     21  N   UNL     1       1.766   7.905  19.755  0.00  0.00    +0.000 N 
ATOM     22  H   UNL     1       1.437   7.910  20.715  0.00  0.00    +0.000 HD
BRANCH  21  23
ATOM     23  C   UNL     1       2.793   6.938  19.416  0.00  0.00    +0.000 C 
BRANCH  23  24
ATOM     24  C   UNL     1       2.218   5.548  19.305  0.00  0.00    +0.000 A 
ATOM     25  C   UNL     1       2.274   4.835  18.097  0.00  0.00    +0.000 A 
ATOM     26  C   UNL     1       1.688   3.572  17.990  0.00  0.00    +0.000 A 
ATOM     27  C   UNL     1       1.053   3.000  19.090  0.00  0.00    +0.000 A 
ATOM     28  C   UNL     1       1.020   3.683  20.304  0.00  0.00    +0.000 A 
ATOM     29  C   UNL     1       1.599   4.948  20.411  0.00  0.00    +0.000 A 
ENDBRANCH  23  24
ENDBRANCH  21  23
ENDBRANCH  10  19
BRANCH  13  30
ATOM     30  C   UNL     1      -0.842  12.003  22.397  0.00  0.00    +0.000 C 
BRANCH  30  31
ATOM     31  C   UNL     1      -0.628  13.517  22.404  0.00  0.00    +0.000 C 
BRANCH  31  32
ATOM     32  C   UNL     1      -1.217  14.201  23.634  0.00  0.00    +0.000 C 
BRANCH  32  33
ATOM     33  N   UNL     1      -2.573  14.663  23.390  0.00  0.00    +0.000 N 
ATOM     34  C   UNL     1      -3.718  14.133  23.916  0.00  0.00    +0.000 A 
ATOM     35  C   UNL     1      -4.734  14.902  23.394  0.00  0.00    +0.000 A 
ATOM     36  N   UNL     1      -4.233  15.872  22.566  0.00  0.00    +0.000 NA
ATOM     37  C   UNL     1      -2.930  15.704  22.583  0.00  0.00    +0.000 A 
ENDBRANCH  32  33
ENDBRANCH  31  32
ENDBRANCH  30  31
ENDBRANCH  13  30
TORSDOF 7
ENDMDL
MODEL 2
REMARK VINA RESULT:      -8.1      4.374      8.961
REMARK  Name = 
REMARK  8 active torsions:
REMARK  status: ('A' for Active; 'I' for Inactive)
REMARK    1  A    between atoms: C_1  and  C_2
REMARK    2  A    between atoms: C_10  and  C_11
REMARK    3  A    between atoms: N_13  and  C_14
REMARK    4  A    between atoms: C_14  and  C_15
REMARK    5  A    between atoms: N_23  and  C_24
REMARK    6  A    between atoms: C_24  and  C_25
REMARK    7  A    between atoms: C_25  and  C_26
REMARK    8  A    between atoms: C_26  and  N_27
REMARK                            x       y       z     vdW  Elec       q    Type
REMARK                         _______ _______ _______ _____ _____    ______ ____
ROOT
ATOM      1  C   UNL     1      -0.949  11.330  19.301  0.00  0.00    +0.000 C 
ATOM      2  C   UNL     1      -0.115  10.105  19.538  0.00  0.00    +0.000 A 
ATOM      3  C   UNL     1      -0.402   9.294  20.697  0.00  0.00    +0.000 A 
ATOM      4  C   UNL     1       0.324   8.203  20.967  0.00  0.00    +0.000 A 
ATOM      5  C   UNL     1       1.440   7.809  20.066  0.00  0.00    +0.000 A 
ATOM      6  N   UNL     1       2.132   6.759  20.371  0.00  0.00    +0.000 NA
ATOM      7  C   UNL     1       3.139   6.337  19.531  0.00  0.00    +0.000 A 
ATOM      8  C   UNL     1       3.454   7.024  18.408  0.00  0.00    +0.000 A 
ATOM      9  C   UNL     1       4.519   6.571  17.518  0.00  0.00    +0.000 A 
ATOM     10  C   UNL     1       5.222   5.442  17.730  0.00  0.00    +0.000 A 
ATOM     11  C   UNL     1       4.819   4.640  18.941  0.00  0.00    +0.000 A 
ATOM     12  N   UNL     1       5.339   3.464  19.159  0.00  0.00    +0.000 NA
ATOM     13  N   UNL     1       3.855   5.149  19.826  0.00  0.00    +0.000 N 
ATOM     14  C   UNL     1       2.685   8.266  18.081  0.00  0.00    +0.000 A 
ATOM     15  O   UNL     1       2.983   8.926  17.083  0.00  0.00    +0.000 OA
ATOM     16  N   UNL     1       1.661   8.598  18.954  0.00  0.00    +0.000 N 
ATOM     17  C   UNL     1       0.884   9.733  18.716  0.00  0.00    +0.000 A 
ATOM     18  H   UNL     1       5.952   3.174  18.388  0.00  0.00    +0.000 HD
ENDROOT
BRANCH  10  19
ATOM     19  C   UNL     1       6.278   5.052  16.749  0.00  0.00    +0.000 C 
ATOM     20  O   UNL     1       7.276   4.424  17.087  0.00  0.00    +0.000 OA
ATOM     21  N   UNL     1       6.042   5.442  15.450  0.00  0.00    +0.000 N 
ATOM     22  H   UNL     1       5.089   5.635  15.160  0.00  0.00    +0.000 HD
BRANCH  21  23
ATOM     23  C   UNL     1       7.005   5.161  14.403  0.00  0.00    +0.000 C 
BRANCH  23  24
ATOM     24  C   UNL     1       6.412   4.271  13.340  0.00  0.00    +0.000 A 
ATOM     25  C   UNL     1       5.028   4.044  13.275  0.00  0.00    +0.000 A 
ATOM     26  C   UNL     1       4.495   3.173  12.322  0.00  0.00    +0.000 A 
ATOM     27  C   UNL     1       5.336   2.529  11.416  0.00  0.00    +0.000 A 
ATOM     28  C   UNL     1       6.707   2.771  11.449  0.00  0.00    +0.000 A 
ATOM     29  C   UNL     1       7.242   3.637  12.404  0.00  0.00    +0.000 A 
ENDBRANCH  23  24
ENDBRANCH  21  23
ENDBRANCH  10  19
BRANCH  13  30
ATOM     30  C   UNL     1       3.445   4.312  20.972  0.00  0.00    +0.000 C 
BRANCH  30  31
ATOM     31  C   UNL     1       1.927   4.276  21.152  0.00  0.00    +0.000 C 
BRANCH  31  32
ATOM     32  C   UNL     1       1.280   3.035  20.544  0.00  0.00    +0.000 C 
BRANCH  32  33
ATOM     33  N   UNL     1       1.704   2.831  19.169  0.00  0.00    +0.000 N 
ATOM     34  C   UNL     1       2.471   1.803  18.700  0.00  0.00    +0.000 A 
ATOM     35  C   UNL     1       2.601   2.046  17.352  0.00  0.00    +0.000 A 
ATOM     36  N   UNL     1       1.941   3.194  16.999  0.00  0.00    +0.000 NA
ATOM     37  C   UNL     1       1.410   3.645  18.113  0.00  0.00    +0.000 A 
ENDBRANCH  32  33
ENDBRANCH  31  32
ENDBRANCH  30  31
ENDBRANCH  13  30
TORSDOF 7
ENDMDL
MODEL 3
REMARK VINA RESULT:      -7.8      1.800      2.349
REMARK  Name = 
REMARK  8 active torsions:
REMARK  status: ('A' for Active; 'I' for Inactive)
REMARK    1  A    between atoms: C_1  and  C_2
REMARK    2  A    between atoms: C_10  and  C_11
REMARK    3  A    between atoms: N_13  and  C_14
REMARK    4  A    between atoms: C_14  and  C_15
REMARK    5  A    between atoms: N_23  and  C_24
REMARK    6  A    between atoms: C_24  and  C_25
REMARK    7  A    between atoms: C_25  and  C_26
REMARK    8  A    between atoms: C_26  and  N_27
REMARK                            x       y       z     vdW  Elec       q    Type
REMARK                         _______ _______ _______ _____ _____    ______ ____
ROOT
ATOM      1  C   UNL     1      -7.557  12.994  17.504  0.00  0.00    +0.000 C 
ATOM      2  C   UNL     1      -6.275  12.837  18.269  0.00  0.00    +0.000 A 
ATOM      3  C   UNL     1      -6.143  13.526  19.530  0.00  0.00    +0.000 A 
ATOM      4  C   UNL     1      -5.014  13.439  20.243  0.00  0.00    +0.000 A 
ATOM      5  C   UNL     1      -3.877  12.621  19.741  0.00  0.00    +0.000 A 
ATOM      6  N   UNL     1      -2.795  12.576  20.449  0.00  0.00    +0.000 NA
ATOM      7  C   UNL     1      -1.743  11.787  20.040  0.00  0.00    +0.000 A 
ATOM      8  C   UNL     1      -1.796  11.086  18.883  0.00  0.00    +0.000 A 
ATOM      9  C   UNL     1      -0.681  10.247  18.455  0.00  0.00    +0.000 A 
ATOM     10  C   UNL     1       0.440  10.089  19.184  0.00  0.00    +0.000 A 
ATOM     11  C   UNL     1       0.467  10.812  20.506  0.00  0.00    +0.000 A 
ATOM     12  N   UNL     1       1.442  10.614  21.349  0.00  0.00    +0.000 NA
ATOM     13  N   UNL     1      -0.581  11.682  20.846  0.00  0.00    +0.000 N 
ATOM     14  C   UNL     1      -3.030  11.175  18.040  0.00  0.00    +0.000 A 
ATOM     15  O   UNL     1      -3.082  10.575  16.965  0.00  0.00    +0.000 OA
ATOM     16  N   UNL     1      -4.059  11.957  18.544  0.00  0.00    +0.000 N 
ATOM     17  C   UNL     1      -5.250  12.083  17.829  0.00  0.00    +0.000 A 
ATOM     18  H   UNL     1       2.085   9.886  21.018  0.00  0.00    +0.000 HD
ENDROOT
BRANCH  10  19
ATOM     19  C   UNL     1       1.517   9.191  18.669  0.00  0.00    +0.000 C 
ATOM     20  O   UNL     1       2.068   9.393  17.592  0.00  0.00    +0.000 OA
ATOM     21  N   UNL     1       1.843   8.137  19.492  0.00  0.00    +0.000 N 
ATOM     22  H   UNL     1       1.631   8.203  20.483  0.00  0.00    +0.000 HD
BRANCH  21  23
ATOM     23  C   UNL     1       2.846   7.167  19.096  0.00  0.00    +0.000 C 
BRANCH  23  24
ATOM     24  C   UNL     1       2.266   5.775  19.042  0.00  0.00    +0.000 A 
ATOM     25  C   UNL     1       2.264   5.038  17.847  0.00  0.00    +0.000 A 
ATOM     26  C   UNL     1       1.674   3.773  17.794  0.00  0.00    +0.000 A 
ATOM     27  C   UNL     1       1.093   3.224  18.936  0.00  0.00    +0.000 A 
ATOM     28  C   UNL     1       1.118   3.932  20.135  0.00  0.00    +0.000 A 
ATOM     29  C   UNL     1       1.702   5.199  20.188  0.00  0.00    +0.000 A 
ENDBRANCH  23  24
ENDBRANCH  21  23
ENDBRANCH  10  19
BRANCH  13  30
ATOM     30  C   UNL     1      -0.550  12.331  22.173  0.00  0.00    +0.000 C 
BRANCH  30  31
ATOM     31  C   UNL     1      -0.491  13.856  22.073  0.00  0.00    +0.000 C 
BRANCH  31  32
ATOM     32  C   UNL     1       0.917  14.387  21.824  0.00  0.00    +0.000 C 
BRANCH  32  33
ATOM     33  N   UNL     1       0.970  15.226  20.638  0.00  0.00    +0.000 N 
ATOM     34  C   UNL     1       0.180  15.115  19.529  0.00  0.00    +0.000 A 
ATOM     35  C   UNL     1       0.606  16.120  18.690  0.00  0.00    +0.000 A 
ATOM     36  N   UNL     1       1.633  16.826  19.260  0.00  0.00    +0.000 NA
ATOM     37  C   UNL     1       1.830  16.266  20.432  0.00  0.00    +0.000 A 
ENDBRANCH  32  33
ENDBRANCH  31  32
ENDBRANCH  30  31
ENDBRANCH  13  30
TORSDOF 7
ENDMDL
MODEL 4
REMARK VINA RESULT:      -7.8      3.564     10.386
REMARK  Name = 
REMARK  8 active torsions:
REMARK  status: ('A' for Active; 'I' for Inactive)
REMARK    1  A    between atoms: C_1  and  C_2
REMARK    2  A    between atoms: C_10  and  C_11
REMARK    3  A    between atoms: N_13  and  C_14
REMARK    4  A    between atoms: C_14  and  C_15
REMARK    5  A    between atoms: N_23  and  C_24
REMARK    6  A    between atoms: C_24  and  C_25
REMARK    7  A    between atoms: C_25  and  C_26
REMARK    8  A    between atoms: C_26  and  N_27
REMARK                            x       y       z     vdW  Elec       q    Type
REMARK                         _______ _______ _______ _____ _____    ______ ____
ROOT
ATOM      1  C   UNL     1       7.204   4.757  13.776  0.00  0.00    +0.000 C 
ATOM      2  C   UNL     1       6.359   4.856  15.013  0.00  0.00    +0.000 A 
ATOM      3  C   UNL     1       6.374   3.751  15.941  0.00  0.00    +0.000 A 
ATOM      4  C   UNL     1       5.623   3.777  17.048  0.00  0.00    +0.000 A 
ATOM      5  C   UNL     1       4.763   4.957  17.338  0.00  0.00    +0.000 A 
ATOM      6  N   UNL     1       4.037   4.937  18.409  0.00  0.00    +0.000 NA
ATOM      7  C   UNL     1       3.269   6.033  18.733  0.00  0.00    +0.000 A 
ATOM      8  C   UNL     1       3.221   7.122  17.931  0.00  0.00    +0.000 A 
ATOM      9  C   UNL     1       2.410   8.284  18.281  0.00  0.00    +0.000 A 
ATOM     10  C   UNL     1       1.696   8.365  19.420  0.00  0.00    +0.000 A 
ATOM     11  C   UNL     1       1.810   7.182  20.347  0.00  0.00    +0.000 A 
ATOM     12  N   UNL     1       1.274   7.218  21.535  0.00  0.00    +0.000 NA
ATOM     13  N   UNL     1       2.524   6.043  19.940  0.00  0.00    +0.000 N 
ATOM     14  C   UNL     1       4.024   7.126  16.668  0.00  0.00    +0.000 A 
ATOM     15  O   UNL     1       3.963   8.092  15.905  0.00  0.00    +0.000 OA
ATOM     16  N   UNL     1       4.803   6.001  16.436  0.00  0.00    +0.000 N 
ATOM     17  C   UNL     1       5.594   5.928  15.289  0.00  0.00    +0.000 A 
ATOM     18  H   UNL     1       0.869   8.139  21.738  0.00  0.00    +0.000 HD
ENDROOT
BRANCH  10  19
ATOM     19  C   UNL     1       0.914   9.606  19.698  0.00  0.00    +0.000 C 
ATOM     20  O   UNL     1       1.041  10.231  20.746  0.00  0.00    +0.000 OA
ATOM     21  N   UNL     1       0.056   9.994  18.694  0.00  0.00    +0.000 N 
ATOM     22  H   UNL     1       0.230   9.673  17.747  0.00  0.00    +0.000 HD
BRANCH  21  23
ATOM     23  C   UNL     1      -0.792  11.160  18.849  0.00  0.00    +0.000 C 
BRANCH  23  24
ATOM     24  C   UNL     1      -2.027  11.055  17.991  0.00  0.00    +0.000 A 
ATOM     25  C   UNL     1      -2.002  10.369  16.766  0.00  0.00    +0.000 A 
ATOM     26  C   UNL     1      -3.136  10.325  15.952  0.00  0.00    +0.000 A 
ATOM     27  C   UNL     1      -4.311  10.955  16.357  0.00  0.00    +0.000 A 
ATOM     28  C   UNL     1      -4.359  11.611  17.585  0.00  0.00    +0.000 A 
ATOM     29  C   UNL     1      -3.225  11.660  18.397  0.00  0.00    +0.000 A 
ENDBRANCH  23  24
ENDBRANCH  21  23
ENDBRANCH  10  19
BRANCH  13  30
ATOM     30  C   UNL     1       2.661   4.924  20.895  0.00  0.00    +0.000 C 
BRANCH  30  31
ATOM     31  C   UNL     1       1.377   4.104  21.018  0.00  0.00    +0.000 C 
BRANCH  31  32
ATOM     32  C   UNL     1       1.613   2.601  20.915  0.00  0.00    +0.000 C 
BRANCH  32  33
ATOM     33  N   UNL     1       2.156   2.233  19.619  0.00  0.00    +0.000 N 
ATOM     34  C   UNL     1       3.359   1.629  19.385  0.00  0.00    +0.000 A 
ATOM     35  C   UNL     1       3.424   1.490  18.017  0.00  0.00    +0.000 A 
ATOM     36  N   UNL     1       2.299   2.000  17.423  0.00  0.00    +0.000 NA
ATOM     37  C   UNL     1       1.554   2.440  18.412  0.00  0.00    +0.000 A 
ENDBRANCH  32  33
ENDBRANCH  31  32
ENDBRANCH  30  31
ENDBRANCH  13  30
TORSDOF 7
ENDMDL
MODEL 5
REMARK VINA RESULT:      -7.7      3.345      4.662
REMARK  Name = 
REMARK  8 active torsions:
REMARK  status: ('A' for Active; 'I' for Inactive)
REMARK    1  A    between atoms: C_1  and  C_2
REMARK    2  A    between atoms: C_10  and  C_11
REMARK    3  A    between atoms: N_13  and  C_14
REMARK    4  A    between atoms: C_14  and  C_15
REMARK    5  A    between atoms: N_23  and  C_24
REMARK    6  A    between atoms: C_24  and  C_25
REMARK    7  A    between atoms: C_25  and  C_26
REMARK    8  A    between atoms: C_26  and  N_27
REMARK                            x       y       z     vdW  Elec       q    Type
REMARK                         _______ _______ _______ _____ _____    ______ ____
ROOT
ATOM      1  C   UNL     1      -3.806  12.574  24.815  0.00  0.00    +0.000 C 
ATOM      2  C   UNL     1      -2.881  12.666  23.637  0.00  0.00    +0.000 A 
ATOM      3  C   UNL     1      -2.647  13.964  23.051  0.00  0.00    +0.000 A 
ATOM      4  C   UNL     1      -1.849  14.101  21.986  0.00  0.00    +0.000 A 
ATOM      5  C   UNL     1      -1.184  12.908  21.394  0.00  0.00    +0.000 A 
ATOM      6  N   UNL     1      -0.434  13.078  20.354  0.00  0.00    +0.000 NA
ATOM      7  C   UNL     1       0.236  12.004  19.813  0.00  0.00    +0.000 A 
ATOM      8  C   UNL     1       0.095  10.757  20.320  0.00  0.00    +0.000 A 
ATOM      9  C   UNL     1       0.811   9.621  19.747  0.00  0.00    +0.000 A 
ATOM     10  C   UNL     1       1.671   9.740  18.717  0.00  0.00    +0.000 A 
ATOM     11  C   UNL     1       1.883  11.140  18.202  0.00  0.00    +0.000 A 
ATOM     12  N   UNL     1       2.797  11.384  17.305  0.00  0.00    +0.000 NA
ATOM     13  N   UNL     1       1.112  12.196  18.714  0.00  0.00    +0.000 N 
ATOM     14  C   UNL     1      -0.810  10.553  21.494  0.00  0.00    +0.000 A 
ATOM     15  O   UNL     1      -0.982   9.419  21.946  0.00  0.00    +0.000 OA
ATOM     16  N   UNL     1      -1.414  11.692  22.005  0.00  0.00    +0.000 N 
ATOM     17  C   UNL     1      -2.262  11.593  23.109  0.00  0.00    +0.000 A 
ATOM     18  H   UNL     1       3.350  10.546  17.092  0.00  0.00    +0.000 HD
ENDROOT
BRANCH  10  19
ATOM     19  C   UNL     1       2.372   8.521  18.216  0.00  0.00    +0.000 C 
ATOM     20  O   UNL     1       2.955   8.507  17.136  0.00  0.00    +0.000 OA
ATOM     21  N   UNL     1       2.319   7.429  19.053  0.00  0.00    +0.000 N 
ATOM     22  H   UNL     1       2.145   7.576  20.042  0.00  0.00    +0.000 HD
BRANCH  21  23
ATOM     23  C   UNL     1       2.925   6.168  18.670  0.00  0.00    +0.000 C 
BRANCH  23  24
ATOM     24  C   UNL     1       2.311   5.017  19.425  0.00  0.00    +0.000 A 
ATOM     25  C   UNL     1       1.435   4.119  18.792  0.00  0.00    +0.000 A 
ATOM     26  C   UNL     1       0.828   3.090  19.515  0.00  0.00    +0.000 A 
ATOM     27  C   UNL     1       1.098   2.936  20.873  0.00  0.00    +0.000 A 
ATOM     28  C   UNL     1       1.990   3.799  21.505  0.00  0.00    +0.000 A 
ATOM     29  C   UNL     1       2.593   4.832  20.786  0.00  0.00    +0.000 A 
ENDBRANCH  23  24
ENDBRANCH  21  23
ENDBRANCH  10  19
BRANCH  13  30
ATOM     30  C   UNL     1       1.384  13.563  18.226  0.00  0.00    +0.000 C 
BRANCH  30  31
ATOM     31  C   UNL     1       2.543  14.227  18.971  0.00  0.00    +0.000 C 
BRANCH  31  32
ATOM     32  C   UNL     1       2.179  15.588  19.555  0.00  0.00    +0.000 C 
BRANCH  32  33
ATOM     33  N   UNL     1       1.912  16.564  18.511  0.00  0.00    +0.000 N 
ATOM     34  C   UNL     1       0.748  17.254  18.323  0.00  0.00    +0.000 A 
ATOM     35  C   UNL     1       0.981  18.045  17.221  0.00  0.00    +0.000 A 
ATOM     36  N   UNL     1       2.247  17.843  16.736  0.00  0.00    +0.000 NA
ATOM     37  C   UNL     1       2.784  16.947  17.533  0.00  0.00    +0.000 A 
ENDBRANCH  32  33
ENDBRANCH  31  32
ENDBRANCH  30  31
ENDBRANCH  13  30
TORSDOF 7
ENDMDL
MODEL 6
REMARK VINA RESULT:      -7.5      1.873      4.538
REMARK  Name = 
REMARK  8 active torsions:
REMARK  status: ('A' for Active; 'I' for Inactive)
REMARK    1  A    between atoms: C_1  and  C_2
REMARK    2  A    between atoms: C_10  and  C_11
REMARK    3  A    between atoms: N_13  and  C_14
REMARK    4  A    between atoms: C_14  and  C_15
REMARK    5  A    between atoms: N_23  and  C_24
REMARK    6  A    between atoms: C_24  and  C_25
REMARK    7  A    between atoms: C_25  and  C_26
REMARK    8  A    between atoms: C_26  and  N_27
REMARK                            x       y       z     vdW  Elec       q    Type
REMARK                         _______ _______ _______ _____ _____    ______ ____
ROOT
ATOM      1  C   UNL     1      -3.313  14.280  25.321  0.00  0.00    +0.000 C 
ATOM      2  C   UNL     1      -2.943  13.757  23.963  0.00  0.00    +0.000 A 
ATOM      3  C   UNL     1      -3.564  14.358  22.807  0.00  0.00    +0.000 A 
ATOM      4  C   UNL     1      -3.287  13.916  21.575  0.00  0.00    +0.000 A 
ATOM      5  C   UNL     1      -2.325  12.797  21.383  0.00  0.00    +0.000 A 
ATOM      6  N   UNL     1      -2.097  12.385  20.177  0.00  0.00    +0.000 NA
ATOM      7  C   UNL     1      -1.174  11.387  19.960  0.00  0.00    +0.000 A 
ATOM      8  C   UNL     1      -0.526  10.790  20.988  0.00  0.00    +0.000 A 
ATOM      9  C   UNL     1       0.455   9.735  20.753  0.00  0.00    +0.000 A 
ATOM     10  C   UNL     1       0.802   9.316  19.521  0.00  0.00    +0.000 A 
ATOM     11  C   UNL     1       0.134  10.033  18.376  0.00  0.00    +0.000 A 
ATOM     12  N   UNL     1       0.502   9.803  17.147  0.00  0.00    +0.000 NA
ATOM     13  N   UNL     1      -0.871  10.979  18.636  0.00  0.00    +0.000 N 
ATOM     14  C   UNL     1      -0.825  11.234  22.386  0.00  0.00    +0.000 A 
ATOM     15  O   UNL     1      -0.274  10.676  23.337  0.00  0.00    +0.000 OA
ATOM     16  N   UNL     1      -1.735  12.273  22.515  0.00  0.00    +0.000 N 
ATOM     17  C   UNL     1      -2.060  12.758  23.783  0.00  0.00    +0.000 A 
ATOM     18  H   UNL     1       1.306   9.167  17.106  0.00  0.00    +0.000 HD
ENDROOT
BRANCH  10  19
ATOM     19  C   UNL     1       1.832   8.245  19.385  0.00  0.00    +0.000 C 
ATOM     20  O   UNL     1       2.595   8.197  18.425  0.00  0.00    +0.000 OA
ATOM     21  N   UNL     1       1.865   7.330  20.413  0.00  0.00    +0.000 N 
ATOM     22  H   UNL     1       1.483   7.591  21.316  0.00  0.00    +0.000 HD
BRANCH  21  23
ATOM     23  C   UNL     1       2.792   6.214  20.387  0.00  0.00    +0.000 C 
BRANCH  23  24
ATOM     24  C   UNL     1       2.125   4.962  19.878  0.00  0.00    +0.000 A 
ATOM     25  C   UNL     1       2.121   4.649  18.509  0.00  0.00    +0.000 A 
ATOM     26  C   UNL     1       1.452   3.515  18.041  0.00  0.00    +0.000 A 
ATOM     27  C   UNL     1       0.791   2.675  18.936  0.00  0.00    +0.000 A 
ATOM     28  C   UNL     1       0.815   2.957  20.299  0.00  0.00    +0.000 A 
ATOM     29  C   UNL     1       1.478   4.093  20.768  0.00  0.00    +0.000 A 
ENDBRANCH  23  24
ENDBRANCH  21  23
ENDBRANCH  10  19
BRANCH  13  30
ATOM     30  C   UNL     1      -1.466  11.701  17.493  0.00  0.00    +0.000 C 
BRANCH  30  31
ATOM     31  C   UNL     1      -2.694  10.987  16.928  0.00  0.00    +0.000 C 
BRANCH  31  32
ATOM     32  C   UNL     1      -3.572  10.360  18.006  0.00  0.00    +0.000 C 
BRANCH  32  33
ATOM     33  N   UNL     1      -4.910  10.926  18.001  0.00  0.00    +0.000 N 
ATOM     34  C   UNL     1      -5.253  12.197  17.633  0.00  0.00    +0.000 A 
ATOM     35  C   UNL     1      -6.618  12.255  17.799  0.00  0.00    +0.000 A 
ATOM     36  N   UNL     1      -7.104  11.060  18.262  0.00  0.00    +0.000 NA
ATOM     37  C   UNL     1      -6.053  10.279  18.374  0.00  0.00    +0.000 A 
ENDBRANCH  32  33
ENDBRANCH  31  32
ENDBRANCH  30  31
ENDBRANCH  13  30
TORSDOF 7
ENDMDL
MODEL 7
REMARK VINA RESULT:      -7.5      1.650      2.293
REMARK  Name = 
REMARK  8 active torsions:
REMARK  status: ('A' for Active; 'I' for Inactive)
REMARK    1  A    between atoms: C_1  and  C_2
REMARK    2  A    between atoms: C_10  and  C_11
REMARK    3  A    between atoms: N_13  and  C_14
REMARK    4  A    between atoms: C_14  and  C_15
REMARK    5  A    between atoms: N_23  and  C_24
REMARK    6  A    between atoms: C_24  and  C_25
REMARK    7  A    between atoms: C_25  and  C_26
REMARK    8  A    between atoms: C_26  and  N_27
REMARK                            x       y       z     vdW  Elec       q    Type
REMARK                         _______ _______ _______ _____ _____    ______ ____
ROOT
ATOM      1  C   UNL     1      -7.437  13.140  16.925  0.00  0.00    +0.000 C 
ATOM      2  C   UNL     1      -6.238  12.901  17.797  0.00  0.00    +0.000 A 
ATOM      3  C   UNL     1      -6.227  13.481  19.118  0.00  0.00    +0.000 A 
ATOM      4  C   UNL     1      -5.175  13.318  19.929  0.00  0.00    +0.000 A 
ATOM      5  C   UNL     1      -4.000  12.527  19.474  0.00  0.00    +0.000 A 
ATOM      6  N   UNL     1      -2.993  12.407  20.279  0.00  0.00    +0.000 NA
ATOM      7  C   UNL     1      -1.912  11.639  19.910  0.00  0.00    +0.000 A 
ATOM      8  C   UNL     1      -1.855  11.037  18.699  0.00  0.00    +0.000 A 
ATOM      9  C   UNL     1      -0.709  10.219  18.313  0.00  0.00    +0.000 A 
ATOM     10  C   UNL     1       0.334   9.984  19.133  0.00  0.00    +0.000 A 
ATOM     11  C   UNL     1       0.234  10.595  20.507  0.00  0.00    +0.000 A 
ATOM     12  N   UNL     1       1.119  10.313  21.422  0.00  0.00    +0.000 NA
ATOM     13  N   UNL     1      -0.837  11.450  20.815  0.00  0.00    +0.000 N 
ATOM     14  C   UNL     1      -2.998  11.215  17.749  0.00  0.00    +0.000 A 
ATOM     15  O   UNL     1      -2.948  10.707  16.627  0.00  0.00    +0.000 OA
ATOM     16  N   UNL     1      -4.067  11.968  18.214  0.00  0.00    +0.000 N 
ATOM     17  C   UNL     1      -5.180  12.171  17.398  0.00  0.00    +0.000 A 
ATOM     18  H   UNL     1       1.787   9.605  21.096  0.00  0.00    +0.000 HD
ENDROOT
BRANCH  10  19
ATOM     19  C   UNL     1       1.450   9.116  18.653  0.00  0.00    +0.000 C 
ATOM     20  O   UNL     1       2.065   9.364  17.621  0.00  0.00    +0.000 OA
ATOM     21  N   UNL     1       1.735   8.034  19.454  0.00  0.00    +0.000 N 
ATOM     22  H   UNL     1       1.461   8.059  20.431  0.00  0.00    +0.000 HD
BRANCH  21  23
ATOM     23  C   UNL     1       2.771   7.088  19.084  0.00  0.00    +0.000 C 
BRANCH  23  24
ATOM     24  C   UNL     1       2.258   5.671  19.135  0.00  0.00    +0.000 A 
ATOM     25  C   UNL     1       2.260   4.858  17.990  0.00  0.00    +0.000 A 
ATOM     26  C   UNL     1       1.730   3.566  18.034  0.00  0.00    +0.000 A 
ATOM     27  C   UNL     1       1.206   3.067  19.225  0.00  0.00    +0.000 A 
ATOM     28  C   UNL     1       1.228   3.851  20.375  0.00  0.00    +0.000 A 
ATOM     29  C   UNL     1       1.752   5.144  20.332  0.00  0.00    +0.000 A 
ENDBRANCH  23  24
ENDBRANCH  21  23
ENDBRANCH  10  19
BRANCH  13  30
ATOM     30  C   UNL     1      -0.932  11.986  22.188  0.00  0.00    +0.000 C 
BRANCH  30  31
ATOM     31  C   UNL     1      -0.625  13.483  22.250  0.00  0.00    +0.000 C 
BRANCH  31  32
ATOM     32  C   UNL     1       0.526  13.897  21.338  0.00  0.00    +0.000 C 
BRANCH  32  33
ATOM     33  N   UNL     1       1.252  15.035  21.877  0.00  0.00    +0.000 N 
ATOM     34  C   UNL     1       0.708  16.194  22.354  0.00  0.00    +0.000 A 
ATOM     35  C   UNL     1       1.786  16.955  22.746  0.00  0.00    +0.000 A 
ATOM     36  N   UNL     1       2.961  16.289  22.512  0.00  0.00    +0.000 NA
ATOM     37  C   UNL     1       2.609  15.137  21.989  0.00  0.00    +0.000 A 
ENDBRANCH  32  33
ENDBRANCH  31  32
ENDBRANCH  30  31
ENDBRANCH  13  30
TORSDOF 7
ENDMDL
MODEL 8
REMARK VINA RESULT:      -7.5      3.218     10.314
REMARK  Name = 
REMARK  8 active torsions:
REMARK  status: ('A' for Active; 'I' for Inactive)
REMARK    1  A    between atoms: C_1  and  C_2
REMARK    2  A    between atoms: C_10  and  C_11
REMARK    3  A    between atoms: N_13  and  C_14
REMARK    4  A    between atoms: C_14  and  C_15
REMARK    5  A    between atoms: N_23  and  C_24
REMARK    6  A    between atoms: C_24  and  C_25
REMARK    7  A    between atoms: C_25  and  C_26
REMARK    8  A    between atoms: C_26  and  N_27
REMARK                            x       y       z     vdW  Elec       q    Type
REMARK                         _______ _______ _______ _____ _____    ______ ____
ROOT
ATOM      1  C   UNL     1       7.269   4.567  14.402  0.00  0.00    +0.000 C 
ATOM      2  C   UNL     1       6.345   4.814  15.559  0.00  0.00    +0.000 A 
ATOM      3  C   UNL     1       6.272   3.818  16.601  0.00  0.00    +0.000 A 
ATOM      4  C   UNL     1       5.450   3.977  17.644  0.00  0.00    +0.000 A 
ATOM      5  C   UNL     1       4.600   5.194  17.744  0.00  0.00    +0.000 A 
ATOM      6  N   UNL     1       3.804   5.304  18.758  0.00  0.00    +0.000 NA
ATOM      7  C   UNL     1       3.042   6.441  18.909  0.00  0.00    +0.000 A 
ATOM      8  C   UNL     1       3.073   7.437  17.992  0.00  0.00    +0.000 A 
ATOM      9  C   UNL     1       2.268   8.643  18.157  0.00  0.00    +0.000 A 
ATOM     10  C   UNL     1       1.482   8.859  19.229  0.00  0.00    +0.000 A 
ATOM     11  C   UNL     1       1.505   7.783  20.284  0.00  0.00    +0.000 A 
ATOM     12  N   UNL     1       0.893   7.958  21.421  0.00  0.00    +0.000 NA
ATOM     13  N   UNL     1       2.219   6.596  20.053  0.00  0.00    +0.000 N 
ATOM     14  C   UNL     1       3.959   7.289  16.794  0.00  0.00    +0.000 A 
ATOM     15  O   UNL     1       3.972   8.166  15.929  0.00  0.00    +0.000 OA
ATOM     16  N   UNL     1       4.724   6.133  16.740  0.00  0.00    +0.000 N 
ATOM     17  C   UNL     1       5.589   5.922  15.665  0.00  0.00    +0.000 A 
ATOM     18  H   UNL     1       0.497   8.902  21.495  0.00  0.00    +0.000 HD
ENDROOT
BRANCH  10  19
ATOM     19  C   UNL     1       0.713  10.136  19.316  0.00  0.00    +0.000 C 
ATOM     20  O   UNL     1       1.270  11.229  19.327  0.00  0.00    +0.000 OA
ATOM     21  N   UNL     1      -0.655   9.992  19.373  0.00  0.00    +0.000 N 
ATOM     22  H   UNL     1      -1.075   9.139  19.019  0.00  0.00    +0.000 HD
BRANCH  21  23
ATOM     23  C   UNL     1      -1.520  11.150  19.499  0.00  0.00    +0.000 C 
BRANCH  23  24
ATOM     24  C   UNL     1      -2.524  11.205  18.374  0.00  0.00    +0.000 A 
ATOM     25  C   UNL     1      -3.814  11.719  18.580  0.00  0.00    +0.000 A 
ATOM     26  C   UNL     1      -4.754  11.714  17.546  0.00  0.00    +0.000 A 
ATOM     27  C   UNL     1      -4.412  11.208  16.294  0.00  0.00    +0.000 A 
ATOM     28  C   UNL     1      -3.126  10.725  16.068  0.00  0.00    +0.000 A 
ATOM     29  C   UNL     1      -2.187  10.724  17.101  0.00  0.00    +0.000 A 
ENDBRANCH  23  24
ENDBRANCH  21  23
ENDBRANCH  10  19
BRANCH  13  30
ATOM     30  C   UNL     1       2.266   5.586  21.130  0.00  0.00    +0.000 C 
BRANCH  30  31
ATOM     31  C   UNL     1       1.308   4.421  20.877  0.00  0.00    +0.000 C 
BRANCH  31  32
ATOM     32  C   UNL     1       1.968   3.055  21.045  0.00  0.00    +0.000 C 
BRANCH  32  33
ATOM     33  N   UNL     1       2.353   2.487  19.764  0.00  0.00    +0.000 N 
ATOM     34  C   UNL     1       1.650   2.571  18.594  0.00  0.00    +0.000 A 
ATOM     35  C   UNL     1       2.411   1.884  17.676  0.00  0.00    +0.000 A 
ATOM     36  N   UNL     1       3.545   1.384  18.261  0.00  0.00    +0.000 NA
ATOM     37  C   UNL     1       3.483   1.763  19.517  0.00  0.00    +0.000 A 
ENDBRANCH  32  33
ENDBRANCH  31  32
ENDBRANCH  30  31
ENDBRANCH  13  30
TORSDOF 7
ENDMDL
MODEL 9
REMARK VINA RESULT:      -7.3      3.015      4.554
REMARK  Name = 
REMARK  8 active torsions:
REMARK  status: ('A' for Active; 'I' for Inactive)
REMARK    1  A    between atoms: C_1  and  C_2
REMARK    2  A    between atoms: C_10  and  C_11
REMARK    3  A    between atoms: N_13  and  C_14
REMARK    4  A    between atoms: C_14  and  C_15
REMARK    5  A    between atoms: N_23  and  C_24
REMARK    6  A    between atoms: C_24  and  C_25
REMARK    7  A    between atoms: C_25  and  C_26
REMARK    8  A    between atoms: C_26  and  N_27
REMARK                            x       y       z     vdW  Elec       q    Type
REMARK                         _______ _______ _______ _____ _____    ______ ____
ROOT
ATOM      1  C   UNL     1       2.979  17.071  17.049  0.00  0.00    +0.000 C 
ATOM      2  C   UNL     1       2.272  16.299  18.125  0.00  0.00    +0.000 A 
ATOM      3  C   UNL     1       1.533  17.036  19.122  0.00  0.00    +0.000 A 
ATOM      4  C   UNL     1       0.902  16.400  20.115  0.00  0.00    +0.000 A 
ATOM      5  C   UNL     1       0.951  14.915  20.199  0.00  0.00    +0.000 A 
ATOM      6  N   UNL     1       0.345  14.336  21.185  0.00  0.00    +0.000 NA
ATOM      7  C   UNL     1       0.327  12.962  21.264  0.00  0.00    +0.000 A 
ATOM      8  C   UNL     1       0.971  12.195  20.353  0.00  0.00    +0.000 A 
ATOM      9  C   UNL     1       0.946  10.738  20.437  0.00  0.00    +0.000 A 
ATOM     10  C   UNL     1       0.265  10.069  21.387  0.00  0.00    +0.000 A 
ATOM     11  C   UNL     1      -0.511  10.923  22.357  0.00  0.00    +0.000 A 
ATOM     12  N   UNL     1      -1.315  10.375  23.225  0.00  0.00    +0.000 NA
ATOM     13  N   UNL     1      -0.393  12.322  22.304  0.00  0.00    +0.000 N 
ATOM     14  C   UNL     1       1.713  12.865  19.239  0.00  0.00    +0.000 A 
ATOM     15  O   UNL     1       2.338  12.186  18.422  0.00  0.00    +0.000 OA
ATOM     16  N   UNL     1       1.646  14.250  19.208  0.00  0.00    +0.000 N 
ATOM     17  C   UNL     1       2.297  14.955  18.194  0.00  0.00    +0.000 A 
ATOM     18  H   UNL     1      -1.380   9.360  23.090  0.00  0.00    +0.000 HD
ENDROOT
BRANCH  10  19
ATOM     19  C   UNL     1       0.284   8.577  21.376  0.00  0.00    +0.000 C 
ATOM     20  O   UNL     1      -0.706   7.914  21.668  0.00  0.00    +0.000 OA
ATOM     21  N   UNL     1       1.484   8.009  21.010  0.00  0.00    +0.000 N 
ATOM     22  H   UNL     1       2.138   8.556  20.459  0.00  0.00    +0.000 HD
BRANCH  21  23
ATOM     23  C   UNL     1       1.651   6.569  20.994  0.00  0.00    +0.000 C 
BRANCH  23  24
ATOM     24  C   UNL     1       2.328   6.112  19.726  0.00  0.00    +0.000 A 
ATOM     25  C   UNL     1       2.341   4.757  19.360  0.00  0.00    +0.000 A 
ATOM     26  C   UNL     1       3.019   4.337  18.213  0.00  0.00    +0.000 A 
ATOM     27  C   UNL     1       3.679   5.267  17.412  0.00  0.00    +0.000 A 
ATOM     28  C   UNL     1       3.646   6.619  17.747  0.00  0.00    +0.000 A 
ATOM     29  C   UNL     1       2.974   7.039  18.896  0.00  0.00    +0.000 A 
ENDBRANCH  23  24
ENDBRANCH  21  23
ENDBRANCH  10  19
BRANCH  13  30
ATOM     30  C   UNL     1      -1.211  13.129  23.233  0.00  0.00    +0.000 C 
BRANCH  30  31
ATOM     31  C   UNL     1      -2.578  13.484  22.647  0.00  0.00    +0.000 C 
BRANCH  31  32
ATOM     32  C   UNL     1      -3.737  13.127  23.571  0.00  0.00    +0.000 C 
BRANCH  32  33
ATOM     33  N   UNL     1      -4.973  12.937  22.830  0.00  0.00    +0.000 N 
ATOM     34  C   UNL     1      -6.239  12.958  23.342  0.00  0.00    +0.000 A 
ATOM     35  C   UNL     1      -7.061  12.730  22.262  0.00  0.00    +0.000 A 
ATOM     36  N   UNL     1      -6.325  12.565  21.118  0.00  0.00    +0.000 NA
ATOM     37  C   UNL     1      -5.072  12.695  21.490  0.00  0.00    +0.000 A 
ENDBRANCH  32  33
ENDBRANCH  31  32
ENDBRANCH  30  31
ENDBRANCH  13  30
TORSDOF 7
ENDMDL
