MODEL 1
REMARK VINA RESULT:      -9.1      0.000      0.000
REMARK  Name = 
REMARK  6 active torsions:
REMARK  status: ('A' for Active; 'I' for Inactive)
REMARK    1  A    between atoms: C_1  and  N_2
REMARK    2  A    between atoms: C_5  and  S_6
REMARK    3  A    between atoms: S_6  and  N_9
REMARK    4  A    between atoms: C_11  and  C_12
REMARK    5  A    between atoms: C_18  and  C_19
REMARK    6  A    between atoms: C_19  and  C_20
REMARK                            x       y       z     vdW  Elec       q    Type
REMARK                         _______ _______ _______ _____ _____    ______ ____
ROOT
ATOM      1  N   UNL     1       5.045   5.967  18.085  0.00  0.00    +0.000 NA
ATOM      2  C   UNL     1       4.453   6.124  19.417  0.00  0.00    +0.000 C 
ATOM      3  C   UNL     1       2.954   6.352  19.184  0.00  0.00    +0.000 C 
ATOM      4  C   UNL     1       2.932   7.109  17.831  0.00  0.00    +0.000 C 
ATOM      5  C   UNL     1       4.207   6.664  17.089  0.00  0.00    +0.000 C 
ENDROOT
BRANCH   3   6
ATOM      6  C   UNL     1       2.171   5.048  19.302  0.00  0.00    +0.000 A 
ATOM      7  C   UNL     1       1.861   4.564  20.589  0.00  0.00    +0.000 A 
ATOM      8  C   UNL     1       1.186   3.355  20.769  0.00  0.00    +0.000 A 
ATOM      9  C   UNL     1       0.774   2.620  19.664  0.00  0.00    +0.000 A 
ATOM     10  C   UNL     1       1.022   3.105  18.385  0.00  0.00    +0.000 A 
ATOM     11  C   UNL     1       1.717   4.306  18.206  0.00  0.00    +0.000 A 
ENDBRANCH   3   6
BRANCH   1  12
ATOM     12  S   UNL     1       5.777   4.503  17.647  0.00  0.00    +0.000 S 
ATOM     13  O   UNL     1       4.797   3.438  17.770  0.00  0.00    +0.000 OA
ATOM     14  O   UNL     1       7.049   4.427  18.335  0.00  0.00    +0.000 OA
BRANCH  12  19
ATOM     15  C   UNL     1       6.254   3.540  12.494  0.00  0.00    +0.000 C 
ATOM     16  N   UNL     1       6.439   4.055  13.827  0.00  0.00    +0.000 N 
ATOM     17  C   UNL     1       7.313   5.045  14.171  0.00  0.00    +0.000 A 
ATOM     18  N   UNL     1       7.204   5.360  15.439  0.00  0.00    +0.000 NA
ATOM     19  C   UNL     1       6.233   4.505  15.952  0.00  0.00    +0.000 A 
ATOM     20  C   UNL     1       5.761   3.675  14.951  0.00  0.00    +0.000 A 
ENDBRANCH  12  19
ENDBRANCH   1  12
BRANCH   4  21
ATOM     21  C   UNL     1       2.866   8.637  18.037  0.00  0.00    +0.000 C 
BRANCH  21  22
ATOM     22  C   UNL     1       1.552   9.128  18.607  0.00  0.00    +0.000 A 
ATOM     23  C   UNL     1       1.304   9.115  19.988  0.00  0.00    +0.000 A 
ATOM     24  C   UNL     1       0.091   9.582  20.498  0.00  0.00    +0.000 A 
ATOM     25  C   UNL     1      -0.883  10.082  19.637  0.00  0.00    +0.000 A 
ATOM     26  C   UNL     1      -0.644  10.110  18.264  0.00  0.00    +0.000 A 
ATOM     27  C   UNL     1       0.563   9.636  17.752  0.00  0.00    +0.000 A 
ENDBRANCH  21  22
ENDBRANCH   4  21
TORSDOF 5
ENDMDL
MODEL 2
REMARK VINA RESULT:      -9.0      0.256      1.324
REMARK  Name = 
REMARK  6 active torsions:
REMARK  status: ('A' for Active; 'I' for Inactive)
REMARK    1  A    between atoms: C_1  and  N_2
REMARK    2  A    between atoms: C_5  and  S_6
REMARK    3  A    between atoms: S_6  and  N_9
REMARK    4  A    between atoms: C_11  and  C_12
REMARK    5  A    between atoms: C_18  and  C_19
REMARK    6  A    between atoms: C_19  and  C_20
REMARK                            x       y       z     vdW  Elec       q    Type
REMARK                         _______ _______ _______ _____ _____    ______ ____
ROOT
ATOM      1  N   UNL     1       5.007   5.957  17.996  0.00  0.00    +0.000 NA
ATOM      2  C   UNL     1       4.451   6.145  19.340  0.00  0.00    +0.000 C 
ATOM      3  C   UNL     1       2.941   6.338  19.145  0.00  0.00    +0.000 C 
ATOM      4  C   UNL     1       2.864   7.050  17.770  0.00  0.00    +0.000 C 
ATOM      5  C   UNL     1       4.125   6.606  17.004  0.00  0.00    +0.000 C 
ENDROOT
BRANCH   3   6
ATOM      6  C   UNL     1       2.188   5.024  19.328  0.00  0.00    +0.000 A 
ATOM      7  C   UNL     1       1.746   4.336  18.179  0.00  0.00    +0.000 A 
ATOM      8  C   UNL     1       1.012   3.153  18.276  0.00  0.00    +0.000 A 
ATOM      9  C   UNL     1       0.734   2.610  19.525  0.00  0.00    +0.000 A 
ATOM     10  C   UNL     1       1.205   3.243  20.670  0.00  0.00    +0.000 A 
ATOM     11  C   UNL     1       1.922   4.441  20.571  0.00  0.00    +0.000 A 
ENDBRANCH   3   6
BRANCH   1  12
ATOM     12  S   UNL     1       5.753   4.493  17.582  0.00  0.00    +0.000 S 
ATOM     13  O   UNL     1       4.781   3.422  17.711  0.00  0.00    +0.000 OA
ATOM     14  O   UNL     1       7.021   4.437  18.281  0.00  0.00    +0.000 OA
BRANCH  12  19
ATOM     15  C   UNL     1       6.280   3.469  12.447  0.00  0.00    +0.000 C 
ATOM     16  N   UNL     1       6.450   4.002  13.773  0.00  0.00    +0.000 N 
ATOM     17  C   UNL     1       7.312   5.005  14.111  0.00  0.00    +0.000 A 
ATOM     18  N   UNL     1       7.191   5.335  15.374  0.00  0.00    +0.000 NA
ATOM     19  C   UNL     1       6.223   4.478  15.891  0.00  0.00    +0.000 A 
ATOM     20  C   UNL     1       5.767   3.631  14.897  0.00  0.00    +0.000 A 
ENDBRANCH  12  19
ENDBRANCH   1  12
BRANCH   4  21
ATOM     21  C   UNL     1       2.775   8.583  17.930  0.00  0.00    +0.000 C 
BRANCH  21  22
ATOM     22  C   UNL     1       1.577   9.052  18.729  0.00  0.00    +0.000 A 
ATOM     23  C   UNL     1       0.530   9.766  18.126  0.00  0.00    +0.000 A 
ATOM     24  C   UNL     1      -0.572  10.182  18.876  0.00  0.00    +0.000 A 
ATOM     25  C   UNL     1      -0.650   9.878  20.233  0.00  0.00    +0.000 A 
ATOM     26  C   UNL     1       0.379   9.159  20.840  0.00  0.00    +0.000 A 
ATOM     27  C   UNL     1       1.485   8.750  20.096  0.00  0.00    +0.000 A 
ENDBRANCH  21  22
ENDBRANCH   4  21
TORSDOF 5
ENDMDL
MODEL 3
REMARK VINA RESULT:      -8.6      0.587      1.284
REMARK  Name = 
REMARK  6 active torsions:
REMARK  status: ('A' for Active; 'I' for Inactive)
REMARK    1  A    between atoms: C_1  and  N_2
REMARK    2  A    between atoms: C_5  and  S_6
REMARK    3  A    between atoms: S_6  and  N_9
REMARK    4  A    between atoms: C_11  and  C_12
REMARK    5  A    between atoms: C_18  and  C_19
REMARK    6  A    between atoms: C_19  and  C_20
REMARK                            x       y       z     vdW  Elec       q    Type
REMARK                         _______ _______ _______ _____ _____    ______ ____
ROOT
ATOM      1  N   UNL     1       4.986   5.933  18.044  0.00  0.00    +0.000 NA
ATOM      2  C   UNL     1       4.407   6.122  19.377  0.00  0.00    +0.000 C 
ATOM      3  C   UNL     1       2.904   6.339  19.153  0.00  0.00    +0.000 C 
ATOM      4  C   UNL     1       2.866   7.060  17.782  0.00  0.00    +0.000 C 
ATOM      5  C   UNL     1       4.136   6.601  17.038  0.00  0.00    +0.000 C 
ENDROOT
BRANCH   3   6
ATOM      6  C   UNL     1       2.127   5.036  19.313  0.00  0.00    +0.000 A 
ATOM      7  C   UNL     1       1.856   4.569  20.614  0.00  0.00    +0.000 A 
ATOM      8  C   UNL     1       1.189   3.362  20.831  0.00  0.00    +0.000 A 
ATOM      9  C   UNL     1       0.745   2.611  19.749  0.00  0.00    +0.000 A 
ATOM     10  C   UNL     1       0.954   3.079  18.457  0.00  0.00    +0.000 A 
ATOM     11  C   UNL     1       1.642   4.278  18.241  0.00  0.00    +0.000 A 
ENDBRANCH   3   6
BRANCH   1  12
ATOM     12  S   UNL     1       5.718   4.460  17.636  0.00  0.00    +0.000 S 
ATOM     13  O   UNL     1       4.731   3.401  17.754  0.00  0.00    +0.000 OA
ATOM     14  O   UNL     1       6.978   4.386  18.347  0.00  0.00    +0.000 OA
BRANCH  12  19
ATOM     15  C   UNL     1       8.024   5.325  12.984  0.00  0.00    +0.000 C 
ATOM     16  N   UNL     1       7.150   4.851  14.026  0.00  0.00    +0.000 N 
ATOM     17  C   UNL     1       6.173   3.912  13.864  0.00  0.00    +0.000 A 
ATOM     18  N   UNL     1       5.594   3.621  15.003  0.00  0.00    +0.000 NA
ATOM     19  C   UNL     1       6.204   4.440  15.950  0.00  0.00    +0.000 A 
ATOM     20  C   UNL     1       7.168   5.224  15.341  0.00  0.00    +0.000 A 
ENDBRANCH  12  19
ENDBRANCH   1  12
BRANCH   4  21
ATOM     21  C   UNL     1       2.798   8.593  17.949  0.00  0.00    +0.000 C 
BRANCH  21  22
ATOM     22  C   UNL     1       1.569   9.080  18.688  0.00  0.00    +0.000 A 
ATOM     23  C   UNL     1       0.542   9.771  18.025  0.00  0.00    +0.000 A 
ATOM     24  C   UNL     1      -0.589  10.203  18.720  0.00  0.00    +0.000 A 
ATOM     25  C   UNL     1      -0.717   9.938  20.082  0.00  0.00    +0.000 A 
ATOM     26  C   UNL     1       0.291   9.243  20.748  0.00  0.00    +0.000 A 
ATOM     27  C   UNL     1       1.426   8.818  20.059  0.00  0.00    +0.000 A 
ENDBRANCH  21  22
ENDBRANCH   4  21
TORSDOF 5
ENDMDL
MODEL 4
REMARK VINA RESULT:      -8.4      0.608      1.295
REMARK  Name = 
REMARK  6 active torsions:
REMARK  status: ('A' for Active; 'I' for Inactive)
REMARK    1  A    between atoms: C_1  and  N_2
REMARK    2  A    between atoms: C_5  and  S_6
REMARK    3  A    between atoms: S_6  and  N_9
REMARK    4  A    between atoms: C_11  and  C_12
REMARK    5  A    between atoms: C_18  and  C_19
REMARK    6  A    between atoms: C_19  and  C_20
REMARK                            x       y       z     vdW  Elec       q    Type
REMARK                         _______ _______ _______ _____ _____    ______ ____
ROOT
ATOM      1  N   UNL     1       5.034   5.829  18.000  0.00  0.00    +0.000 NA
ATOM      2  C   UNL     1       4.521   6.014  19.362  0.00  0.00    +0.000 C 
ATOM      3  C   UNL     1       3.010   6.233  19.213  0.00  0.00    +0.000 C 
ATOM      4  C   UNL     1       2.905   6.959  17.847  0.00  0.00    +0.000 C 
ATOM      5  C   UNL     1       4.135   6.500  17.040  0.00  0.00    +0.000 C 
ENDROOT
BRANCH   3   6
ATOM      6  C   UNL     1       2.240   4.930  19.407  0.00  0.00    +0.000 A 
ATOM      7  C   UNL     1       1.642   4.328  18.282  0.00  0.00    +0.000 A 
ATOM      8  C   UNL     1       0.886   3.160  18.396  0.00  0.00    +0.000 A 
ATOM      9  C   UNL     1       0.741   2.547  19.635  0.00  0.00    +0.000 A 
ATOM     10  C   UNL     1       1.366   3.094  20.750  0.00  0.00    +0.000 A 
ATOM     11  C   UNL     1       2.106   4.277  20.637  0.00  0.00    +0.000 A 
ENDBRANCH   3   6
BRANCH   1  12
ATOM     12  S   UNL     1       5.744   4.357  17.553  0.00  0.00    +0.000 S 
ATOM     13  O   UNL     1       4.741   3.310  17.643  0.00  0.00    +0.000 OA
ATOM     14  O   UNL     1       7.002   4.245  18.261  0.00  0.00    +0.000 OA
BRANCH  12  19
ATOM     15  C   UNL     1       8.023   5.353  12.915  0.00  0.00    +0.000 C 
ATOM     16  N   UNL     1       7.163   4.840  13.949  0.00  0.00    +0.000 N 
ATOM     17  C   UNL     1       6.213   3.876  13.773  0.00  0.00    +0.000 A 
ATOM     18  N   UNL     1       5.642   3.553  14.908  0.00  0.00    +0.000 NA
ATOM     19  C   UNL     1       6.229   4.375  15.866  0.00  0.00    +0.000 A 
ATOM     20  C   UNL     1       7.171   5.194  15.270  0.00  0.00    +0.000 A 
ENDBRANCH  12  19
ENDBRANCH   1  12
BRANCH   4  21
ATOM     21  C   UNL     1       2.845   8.491  18.021  0.00  0.00    +0.000 C 
BRANCH  21  22
ATOM     22  C   UNL     1       1.615   8.982  18.756  0.00  0.00    +0.000 A 
ATOM     23  C   UNL     1       1.443   8.752  20.129  0.00  0.00    +0.000 A 
ATOM     24  C   UNL     1       0.308   9.222  20.793  0.00  0.00    +0.000 A 
ATOM     25  C   UNL     1      -0.661   9.940  20.098  0.00  0.00    +0.000 A 
ATOM     26  C   UNL     1      -0.496  10.185  18.735  0.00  0.00    +0.000 A 
ATOM     27  C   UNL     1       0.632   9.709  18.068  0.00  0.00    +0.000 A 
ENDBRANCH  21  22
ENDBRANCH   4  21
TORSDOF 5
ENDMDL
MODEL 5
REMARK VINA RESULT:      -7.6      0.822      1.584
REMARK  Name = 
REMARK  6 active torsions:
REMARK  status: ('A' for Active; 'I' for Inactive)
REMARK    1  A    between atoms: C_1  and  N_2
REMARK    2  A    between atoms: C_5  and  S_6
REMARK    3  A    between atoms: S_6  and  N_9
REMARK    4  A    between atoms: C_11  and  C_12
REMARK    5  A    between atoms: C_18  and  C_19
REMARK    6  A    between atoms: C_19  and  C_20
REMARK                            x       y       z     vdW  Elec       q    Type
REMARK                         _______ _______ _______ _____ _____    ______ ____
ROOT
ATOM      1  N   UNL     1       5.048   6.002  18.003  0.00  0.00    +0.000 NA
ATOM      2  C   UNL     1       4.498   6.206  19.347  0.00  0.00    +0.000 C 
ATOM      3  C   UNL     1       3.004   6.489  19.149  0.00  0.00    +0.000 C 
ATOM      4  C   UNL     1       2.975   7.222  17.783  0.00  0.00    +0.000 C 
ATOM      5  C   UNL     1       4.211   6.713  17.016  0.00  0.00    +0.000 C 
ENDROOT
BRANCH   3   6
ATOM      6  C   UNL     1       2.173   5.221  19.312  0.00  0.00    +0.000 A 
ATOM      7  C   UNL     1       1.719   4.559  18.153  0.00  0.00    +0.000 A 
ATOM      8  C   UNL     1       0.917   3.420  18.231  0.00  0.00    +0.000 A 
ATOM      9  C   UNL     1       0.580   2.893  19.472  0.00  0.00    +0.000 A 
ATOM     10  C   UNL     1       1.060   3.498  20.628  0.00  0.00    +0.000 A 
ATOM     11  C   UNL     1       1.846   4.653  20.548  0.00  0.00    +0.000 A 
ENDBRANCH   3   6
BRANCH   1  12
ATOM     12  S   UNL     1       5.709   4.501  17.574  0.00  0.00    +0.000 S 
ATOM     13  O   UNL     1       4.677   3.487  17.693  0.00  0.00    +0.000 OA
ATOM     14  O   UNL     1       6.971   4.365  18.271  0.00  0.00    +0.000 OA
BRANCH  12  19
ATOM     15  C   UNL     1       8.011   5.299  12.908  0.00  0.00    +0.000 C 
ATOM     16  N   UNL     1       7.123   4.859  13.954  0.00  0.00    +0.000 N 
ATOM     17  C   UNL     1       6.096   3.975  13.791  0.00  0.00    +0.000 A 
ATOM     18  N   UNL     1       5.514   3.702  14.933  0.00  0.00    +0.000 NA
ATOM     19  C   UNL     1       6.176   4.476  15.883  0.00  0.00    +0.000 A 
ATOM     20  C   UNL     1       7.174   5.215  15.273  0.00  0.00    +0.000 A 
ENDBRANCH  12  19
ENDBRANCH   1  12
BRANCH   4  21
ATOM     21  C   UNL     1       2.976   8.755  17.961  0.00  0.00    +0.000 C 
BRANCH  21  22
ATOM     22  C   UNL     1       1.596   9.360  18.118  0.00  0.00    +0.000 A 
ATOM     23  C   UNL     1       0.490   8.848  17.421  0.00  0.00    +0.000 A 
ATOM     24  C   UNL     1      -0.777   9.411  17.586  0.00  0.00    +0.000 A 
ATOM     25  C   UNL     1      -0.959  10.481  18.460  0.00  0.00    +0.000 A 
ATOM     26  C   UNL     1       0.130  10.989  19.166  0.00  0.00    +0.000 A 
ATOM     27  C   UNL     1       1.399  10.436  18.996  0.00  0.00    +0.000 A 
ENDBRANCH  21  22
ENDBRANCH   4  21
TORSDOF 5
ENDMDL
MODEL 6
REMARK VINA RESULT:      -7.3      4.787      9.043
REMARK  Name = 
REMARK  6 active torsions:
REMARK  status: ('A' for Active; 'I' for Inactive)
REMARK    1  A    between atoms: C_1  and  N_2
REMARK    2  A    between atoms: C_5  and  S_6
REMARK    3  A    between atoms: S_6  and  N_9
REMARK    4  A    between atoms: C_11  and  C_12
REMARK    5  A    between atoms: C_18  and  C_19
REMARK    6  A    between atoms: C_19  and  C_20
REMARK                            x       y       z     vdW  Elec       q    Type
REMARK                         _______ _______ _______ _____ _____    ______ ____
ROOT
ATOM      1  N   UNL     1       1.132   9.858  20.975  0.00  0.00    +0.000 NA
ATOM      2  C   UNL     1       1.142  10.967  20.016  0.00  0.00    +0.000 C 
ATOM      3  C   UNL     1       0.692  10.367  18.678  0.00  0.00    +0.000 C 
ATOM      4  C   UNL     1       1.245   8.920  18.751  0.00  0.00    +0.000 C 
ATOM      5  C   UNL     1       1.317   8.582  20.253  0.00  0.00    +0.000 C 
ENDROOT
BRANCH   3   6
ATOM      6  C   UNL     1      -0.804  10.565  18.457  0.00  0.00    +0.000 A 
ATOM      7  C   UNL     1      -1.467   9.721  17.543  0.00  0.00    +0.000 A 
ATOM      8  C   UNL     1      -2.825   9.877  17.260  0.00  0.00    +0.000 A 
ATOM      9  C   UNL     1      -3.560  10.859  17.913  0.00  0.00    +0.000 A 
ATOM     10  C   UNL     1      -2.940  11.668  18.858  0.00  0.00    +0.000 A 
ATOM     11  C   UNL     1      -1.573  11.525  19.124  0.00  0.00    +0.000 A 
ENDBRANCH   3   6
BRANCH   1  12
ATOM     12  S   UNL     1       0.082   9.892  22.304  0.00  0.00    +0.000 S 
ATOM     13  O   UNL     1       0.860   9.710  23.517  0.00  0.00    +0.000 OA
ATOM     14  O   UNL     1      -1.036   9.023  22.000  0.00  0.00    +0.000 OA
BRANCH  12  19
ATOM     15  C   UNL     1      -3.219  13.902  23.155  0.00  0.00    +0.000 C 
ATOM     16  N   UNL     1      -2.071  13.110  22.798  0.00  0.00    +0.000 N 
ATOM     17  C   UNL     1      -0.864  13.611  22.404  0.00  0.00    +0.000 A 
ATOM     18  N   UNL     1       0.015  12.655  22.222  0.00  0.00    +0.000 NA
ATOM     19  C   UNL     1      -0.667  11.469  22.479  0.00  0.00    +0.000 A 
ATOM     20  C   UNL     1      -1.978  11.746  22.824  0.00  0.00    +0.000 A 
ENDBRANCH  12  19
ENDBRANCH   1  12
BRANCH   4  21
ATOM     21  C   UNL     1       2.613   8.799  18.049  0.00  0.00    +0.000 C 
BRANCH  21  22
ATOM     22  C   UNL     1       3.051   7.371  17.790  0.00  0.00    +0.000 A 
ATOM     23  C   UNL     1       4.309   7.081  17.240  0.00  0.00    +0.000 A 
ATOM     24  C   UNL     1       4.701   5.759  17.019  0.00  0.00    +0.000 A 
ATOM     25  C   UNL     1       3.849   4.711  17.358  0.00  0.00    +0.000 A 
ATOM     26  C   UNL     1       2.601   4.988  17.917  0.00  0.00    +0.000 A 
ATOM     27  C   UNL     1       2.203   6.307  18.130  0.00  0.00    +0.000 A 
ENDBRANCH  21  22
ENDBRANCH   4  21
TORSDOF 5
ENDMDL
MODEL 7
REMARK VINA RESULT:      -7.2      2.115      6.670
REMARK  Name = 
REMARK  6 active torsions:
REMARK  status: ('A' for Active; 'I' for Inactive)
REMARK    1  A    between atoms: C_1  and  N_2
REMARK    2  A    between atoms: C_5  and  S_6
REMARK    3  A    between atoms: S_6  and  N_9
REMARK    4  A    between atoms: C_11  and  C_12
REMARK    5  A    between atoms: C_18  and  C_19
REMARK    6  A    between atoms: C_19  and  C_20
REMARK                            x       y       z     vdW  Elec       q    Type
REMARK                         _______ _______ _______ _____ _____    ______ ____
ROOT
ATOM      1  N   UNL     1       4.456   5.393  17.721  0.00  0.00    +0.000 NA
ATOM      2  C   UNL     1       5.681   4.588  17.681  0.00  0.00    +0.000 C 
ATOM      3  C   UNL     1       5.427   3.493  16.637  0.00  0.00    +0.000 C 
ATOM      4  C   UNL     1       3.904   3.242  16.771  0.00  0.00    +0.000 C 
ATOM      5  C   UNL     1       3.311   4.569  17.285  0.00  0.00    +0.000 C 
ENDROOT
BRANCH   3   6
ATOM      6  C   UNL     1       5.983   3.888  15.273  0.00  0.00    +0.000 A 
ATOM      7  C   UNL     1       5.380   3.350  14.118  0.00  0.00    +0.000 A 
ATOM      8  C   UNL     1       5.867   3.635  12.841  0.00  0.00    +0.000 A 
ATOM      9  C   UNL     1       6.948   4.495  12.687  0.00  0.00    +0.000 A 
ATOM     10  C   UNL     1       7.525   5.079  13.809  0.00  0.00    +0.000 A 
ATOM     11  C   UNL     1       7.050   4.775  15.089  0.00  0.00    +0.000 A 
ENDBRANCH   3   6
BRANCH   1  12
ATOM     12  S   UNL     1       4.497   7.026  17.270  0.00  0.00    +0.000 S 
ATOM     13  O   UNL     1       4.290   7.118  15.835  0.00  0.00    +0.000 OA
ATOM     14  O   UNL     1       5.660   7.623  17.894  0.00  0.00    +0.000 OA
BRANCH  12  19
ATOM     15  C   UNL     1       0.691   8.863  20.406  0.00  0.00    +0.000 C 
ATOM     16  N   UNL     1       1.561   8.625  19.284  0.00  0.00    +0.000 N 
ATOM     17  C   UNL     1       1.536   9.321  18.110  0.00  0.00    +0.000 A 
ATOM     18  N   UNL     1       2.497   8.936  17.305  0.00  0.00    +0.000 NA
ATOM     19  C   UNL     1       3.158   7.912  17.978  0.00  0.00    +0.000 A 
ATOM     20  C   UNL     1       2.567   7.702  19.211  0.00  0.00    +0.000 A 
ENDBRANCH  12  19
ENDBRANCH   1  12
BRANCH   4  21
ATOM     21  C   UNL     1       3.604   2.054  17.709  0.00  0.00    +0.000 C 
BRANCH  21  22
ATOM     22  C   UNL     1       2.789   2.422  18.932  0.00  0.00    +0.000 A 
ATOM     23  C   UNL     1       1.399   2.595  18.859  0.00  0.00    +0.000 A 
ATOM     24  C   UNL     1       0.662   2.923  19.999  0.00  0.00    +0.000 A 
ATOM     25  C   UNL     1       1.302   3.067  21.228  0.00  0.00    +0.000 A 
ATOM     26  C   UNL     1       2.681   2.886  21.314  0.00  0.00    +0.000 A 
ATOM     27  C   UNL     1       3.421   2.568  20.176  0.00  0.00    +0.000 A 
ENDBRANCH  21  22
ENDBRANCH   4  21
TORSDOF 5
ENDMDL
MODEL 8
REMARK VINA RESULT:      -7.2      4.810      9.029
REMARK  Name = 
REMARK  6 active torsions:
REMARK  status: ('A' for Active; 'I' for Inactive)
REMARK    1  A    between atoms: C_1  and  N_2
REMARK    2  A    between atoms: C_5  and  S_6
REMARK    3  A    between atoms: S_6  and  N_9
REMARK    4  A    between atoms: C_11  and  C_12
REMARK    5  A    between atoms: C_18  and  C_19
REMARK    6  A    between atoms: C_19  and  C_20
REMARK                            x       y       z     vdW  Elec       q    Type
REMARK                         _______ _______ _______ _____ _____    ______ ____
ROOT
ATOM      1  N   UNL     1       1.103   9.912  20.948  0.00  0.00    +0.000 NA
ATOM      2  C   UNL     1       1.106  11.010  19.977  0.00  0.00    +0.000 C 
ATOM      3  C   UNL     1       0.669  10.391  18.643  0.00  0.00    +0.000 C 
ATOM      4  C   UNL     1       1.235   8.950  18.736  0.00  0.00    +0.000 C 
ATOM      5  C   UNL     1       1.304   8.630  20.242  0.00  0.00    +0.000 C 
ENDROOT
BRANCH   3   6
ATOM      6  C   UNL     1      -0.828  10.571  18.413  0.00  0.00    +0.000 A 
ATOM      7  C   UNL     1      -1.471  11.680  19.000  0.00  0.00    +0.000 A 
ATOM      8  C   UNL     1      -2.846  11.880  18.867  0.00  0.00    +0.000 A 
ATOM      9  C   UNL     1      -3.605  10.993  18.113  0.00  0.00    +0.000 A 
ATOM     10  C   UNL     1      -2.984   9.922  17.481  0.00  0.00    +0.000 A 
ATOM     11  C   UNL     1      -1.609   9.711  17.633  0.00  0.00    +0.000 A 
ENDBRANCH   3   6
BRANCH   1  12
ATOM     12  S   UNL     1       0.047   9.950  22.272  0.00  0.00    +0.000 S 
ATOM     13  O   UNL     1       0.814   9.735  23.487  0.00  0.00    +0.000 OA
ATOM     14  O   UNL     1      -1.088   9.110  21.950  0.00  0.00    +0.000 OA
BRANCH  12  19
ATOM     15  C   UNL     1      -3.228  14.037  22.797  0.00  0.00    +0.000 C 
ATOM     16  N   UNL     1      -2.053  13.220  22.638  0.00  0.00    +0.000 N 
ATOM     17  C   UNL     1      -0.769  13.684  22.635  0.00  0.00    +0.000 A 
ATOM     18  N   UNL     1       0.094  12.701  22.553  0.00  0.00    +0.000 NA
ATOM     19  C   UNL     1      -0.670  11.541  22.464  0.00  0.00    +0.000 A 
ATOM     20  C   UNL     1      -2.015  11.860  22.501  0.00  0.00    +0.000 A 
ENDBRANCH  12  19
ENDBRANCH   1  12
BRANCH   4  21
ATOM     21  C   UNL     1       2.608   8.835  18.041  0.00  0.00    +0.000 C 
BRANCH  21  22
ATOM     22  C   UNL     1       3.063   7.409  17.804  0.00  0.00    +0.000 A 
ATOM     23  C   UNL     1       2.236   6.318  18.111  0.00  0.00    +0.000 A 
ATOM     24  C   UNL     1       2.667   5.010  17.876  0.00  0.00    +0.000 A 
ATOM     25  C   UNL     1       3.923   4.778  17.319  0.00  0.00    +0.000 A 
ATOM     26  C   UNL     1       4.748   5.855  17.000  0.00  0.00    +0.000 A 
ATOM     27  C   UNL     1       4.324   7.161  17.242  0.00  0.00    +0.000 A 
ENDBRANCH  21  22
ENDBRANCH   4  21
TORSDOF 5
ENDMDL
MODEL 9
REMARK VINA RESULT:      -7.1      2.148      3.132
REMARK  Name = 
REMARK  6 active torsions:
REMARK  status: ('A' for Active; 'I' for Inactive)
REMARK    1  A    between atoms: C_1  and  N_2
REMARK    2  A    between atoms: C_5  and  S_6
REMARK    3  A    between atoms: S_6  and  N_9
REMARK    4  A    between atoms: C_11  and  C_12
REMARK    5  A    between atoms: C_18  and  C_19
REMARK    6  A    between atoms: C_19  and  C_20
REMARK                            x       y       z     vdW  Elec       q    Type
REMARK                         _______ _______ _______ _____ _____    ______ ____
ROOT
ATOM      1  N   UNL     1       4.693   6.378  17.753  0.00  0.00    +0.000 NA
ATOM      2  C   UNL     1       4.325   6.532  19.165  0.00  0.00    +0.000 C 
ATOM      3  C   UNL     1       2.803   6.723  19.181  0.00  0.00    +0.000 C 
ATOM      4  C   UNL     1       2.540   7.469  17.847  0.00  0.00    +0.000 C 
ATOM      5  C   UNL     1       3.685   7.048  16.906  0.00  0.00    +0.000 C 
ENDROOT
BRANCH   3   6
ATOM      6  C   UNL     1       2.081   5.403  19.431  0.00  0.00    +0.000 A 
ATOM      7  C   UNL     1       1.555   4.703  18.326  0.00  0.00    +0.000 A 
ATOM      8  C   UNL     1       0.844   3.513  18.489  0.00  0.00    +0.000 A 
ATOM      9  C   UNL     1       0.674   2.975  19.759  0.00  0.00    +0.000 A 
ATOM     10  C   UNL     1       1.230   3.620  20.858  0.00  0.00    +0.000 A 
ATOM     11  C   UNL     1       1.923   4.825  20.695  0.00  0.00    +0.000 A 
ENDBRANCH   3   6
BRANCH   1  12
ATOM     12  S   UNL     1       5.377   4.928  17.206  0.00  0.00    +0.000 S 
ATOM     13  O   UNL     1       6.813   4.982  17.416  0.00  0.00    +0.000 OA
ATOM     14  O   UNL     1       4.826   4.653  15.895  0.00  0.00    +0.000 OA
BRANCH  12  19
ATOM     15  C   UNL     1       4.352   1.495  21.061  0.00  0.00    +0.000 C 
ATOM     16  N   UNL     1       4.456   2.141  19.779  0.00  0.00    +0.000 N 
ATOM     17  C   UNL     1       3.922   1.667  18.616  0.00  0.00    +0.000 A 
ATOM     18  N   UNL     1       4.107   2.507  17.627  0.00  0.00    +0.000 NA
ATOM     19  C   UNL     1       4.829   3.567  18.169  0.00  0.00    +0.000 A 
ATOM     20  C   UNL     1       5.065   3.336  19.512  0.00  0.00    +0.000 A 
ENDBRANCH  12  19
ENDBRANCH   1  12
BRANCH   4  21
ATOM     21  C   UNL     1       2.473   8.997  18.055  0.00  0.00    +0.000 C 
BRANCH  21  22
ATOM     22  C   UNL     1       1.128   9.496  18.543  0.00  0.00    +0.000 A 
ATOM     23  C   UNL     1       0.908   9.798  19.896  0.00  0.00    +0.000 A 
ATOM     24  C   UNL     1      -0.334  10.267  20.327  0.00  0.00    +0.000 A 
ATOM     25  C   UNL     1      -1.367  10.456  19.412  0.00  0.00    +0.000 A 
ATOM     26  C   UNL     1      -1.156  10.170  18.064  0.00  0.00    +0.000 A 
ATOM     27  C   UNL     1       0.081   9.692  17.632  0.00  0.00    +0.000 A 
ENDBRANCH  21  22
ENDBRANCH   4  21
TORSDOF 5
ENDMDL
