MODEL 1
REMARK VINA RESULT:      -8.8      0.000      0.000
REMARK  Name = 
REMARK  4 active torsions:
REMARK  status: ('A' for Active; 'I' for Inactive)
REMARK    1  A    between atoms: C_1  and  C_2
REMARK    2  A    between atoms: C_4  and  N_5
REMARK    3  A    between atoms: C_8  and  C_9
REMARK    4  A    between atoms: C_17  and  C_18
REMARK                            x       y       z     vdW  Elec       q    Type
REMARK                         _______ _______ _______ _____ _____    ______ ____
ROOT
ATOM      1  C   UNL     1       1.650   2.525  21.909  0.00  0.00    +0.000 C 
ATOM      2  C   UNL     1       2.221   3.426  20.857  0.00  0.00    +0.000 A 
ATOM      3  C   UNL     1       3.159   2.963  19.927  0.00  0.00    +0.000 A 
ATOM      4  C   UNL     1       3.612   3.817  18.928  0.00  0.00    +0.000 A 
ATOM      5  N   UNL     1       3.214   5.105  18.896  0.00  0.00    +0.000 NA
ATOM      6  C   UNL     1       2.328   5.580  19.798  0.00  0.00    +0.000 A 
ATOM      7  C   UNL     1       1.805   4.757  20.787  0.00  0.00    +0.000 A 
ENDROOT
BRANCH   4   8
ATOM      8  N   UNL     1       4.515   3.336  17.965  0.00  0.00    +0.000 N 
ATOM      9  C   UNL     1       5.500   4.059  17.282  0.00  0.00    +0.000 A 
ATOM     10  C   UNL     1       6.120   5.185  17.810  0.00  0.00    +0.000 A 
ATOM     11  C   UNL     1       6.977   5.960  17.024  0.00  0.00    +0.000 A 
ATOM     12  C   UNL     1       7.263   5.522  15.734  0.00  0.00    +0.000 A 
ATOM     13  C   UNL     1       6.670   4.350  15.300  0.00  0.00    +0.000 A 
ATOM     14  N   UNL     1       5.797   3.624  16.037  0.00  0.00    +0.000 NA
ATOM     15  H   UNL     1       4.128   2.665  17.313  0.00  0.00    +0.000 HD
BRANCH  11  16
ATOM     16  C   UNL     1       7.530   7.251  17.560  0.00  0.00    +0.000 C 
ATOM     17  F   UNL     1       8.209   7.117  18.734  0.00  0.00    +0.000 F 
ATOM     18  F   UNL     1       8.399   7.843  16.694  0.00  0.00    +0.000 F 
ATOM     19  F   UNL     1       6.556   8.172  17.797  0.00  0.00    +0.000 F 
ENDBRANCH  11  16
ENDBRANCH   4   8
BRANCH   6  20
ATOM     20  C   UNL     1       1.981   7.002  19.644  0.00  0.00    +0.000 A 
ATOM     21  C   UNL     1       2.201   7.692  18.440  0.00  0.00    +0.000 A 
ATOM     22  C   UNL     1       1.868   9.041  18.321  0.00  0.00    +0.000 A 
ATOM     23  C   UNL     1       1.318   9.676  19.417  0.00  0.00    +0.000 A 
ATOM     24  F   UNL     1       1.010  10.976  19.318  0.00  0.00    +0.000 F 
ATOM     25  N   UNL     1       1.074   9.065  20.594  0.00  0.00    +0.000 NA
ATOM     26  C   UNL     1       1.402   7.751  20.669  0.00  0.00    +0.000 A 
ENDBRANCH   6  20
TORSDOF 3
ENDMDL
MODEL 2
REMARK VINA RESULT:      -8.5      3.433      4.297
REMARK  Name = 
REMARK  4 active torsions:
REMARK  status: ('A' for Active; 'I' for Inactive)
REMARK    1  A    between atoms: C_1  and  C_2
REMARK    2  A    between atoms: C_4  and  N_5
REMARK    3  A    between atoms: C_8  and  C_9
REMARK    4  A    between atoms: C_17  and  C_18
REMARK                            x       y       z     vdW  Elec       q    Type
REMARK                         _______ _______ _______ _____ _____    ______ ____
ROOT
ATOM      1  C   UNL     1       3.534   2.226  18.154  0.00  0.00    +0.000 C 
ATOM      2  C   UNL     1       3.826   3.662  17.841  0.00  0.00    +0.000 A 
ATOM      3  C   UNL     1       4.875   4.027  16.990  0.00  0.00    +0.000 A 
ATOM      4  C   UNL     1       5.067   5.368  16.675  0.00  0.00    +0.000 A 
ATOM      5  N   UNL     1       4.301   6.321  17.242  0.00  0.00    +0.000 NA
ATOM      6  C   UNL     1       3.298   5.993  18.086  0.00  0.00    +0.000 A 
ATOM      7  C   UNL     1       3.030   4.667  18.395  0.00  0.00    +0.000 A 
ENDROOT
BRANCH   4   8
ATOM      8  N   UNL     1       6.089   5.728  15.780  0.00  0.00    +0.000 N 
ATOM      9  C   UNL     1       6.345   5.188  14.514  0.00  0.00    +0.000 A 
ATOM     10  C   UNL     1       5.356   4.635  13.709  0.00  0.00    +0.000 A 
ATOM     11  C   UNL     1       5.690   3.968  12.529  0.00  0.00    +0.000 A 
ATOM     12  C   UNL     1       7.025   3.955  12.136  0.00  0.00    +0.000 A 
ATOM     13  C   UNL     1       7.947   4.593  12.946  0.00  0.00    +0.000 A 
ATOM     14  N   UNL     1       7.637   5.194  14.119  0.00  0.00    +0.000 NA
ATOM     15  H   UNL     1       6.984   5.925  16.209  0.00  0.00    +0.000 HD
BRANCH  11  16
ATOM     16  C   UNL     1       4.629   3.252  11.740  0.00  0.00    +0.000 C 
ATOM     17  F   UNL     1       4.102   3.991  10.723  0.00  0.00    +0.000 F 
ATOM     18  F   UNL     1       5.090   2.107  11.167  0.00  0.00    +0.000 F 
ATOM     19  F   UNL     1       3.572   2.881  12.514  0.00  0.00    +0.000 F 
ENDBRANCH  11  16
ENDBRANCH   4   8
BRANCH   6  20
ATOM     20  C   UNL     1       2.541   7.133  18.629  0.00  0.00    +0.000 A 
ATOM     21  C   UNL     1       2.160   8.221  17.826  0.00  0.00    +0.000 A 
ATOM     22  C   UNL     1       1.448   9.290  18.366  0.00  0.00    +0.000 A 
ATOM     23  C   UNL     1       1.130   9.250  19.709  0.00  0.00    +0.000 A 
ATOM     24  F   UNL     1       0.460  10.281  20.241  0.00  0.00    +0.000 F 
ATOM     25  N   UNL     1       1.459   8.231  20.528  0.00  0.00    +0.000 NA
ATOM     26  C   UNL     1       2.142   7.203  19.965  0.00  0.00    +0.000 A 
ENDBRANCH   6  20
TORSDOF 3
ENDMDL
MODEL 3
REMARK VINA RESULT:      -8.5      3.487      4.404
REMARK  Name = 
REMARK  4 active torsions:
REMARK  status: ('A' for Active; 'I' for Inactive)
REMARK    1  A    between atoms: C_1  and  C_2
REMARK    2  A    between atoms: C_4  and  N_5
REMARK    3  A    between atoms: C_8  and  C_9
REMARK    4  A    between atoms: C_17  and  C_18
REMARK                            x       y       z     vdW  Elec       q    Type
REMARK                         _______ _______ _______ _____ _____    ______ ____
ROOT
ATOM      1  C   UNL     1       3.095   2.223  17.814  0.00  0.00    +0.000 C 
ATOM      2  C   UNL     1       3.482   3.659  17.628  0.00  0.00    +0.000 A 
ATOM      3  C   UNL     1       4.557   4.027  16.812  0.00  0.00    +0.000 A 
ATOM      4  C   UNL     1       4.839   5.375  16.616  0.00  0.00    +0.000 A 
ATOM      5  N   UNL     1       4.135   6.323  17.267  0.00  0.00    +0.000 NA
ATOM      6  C   UNL     1       3.108   5.989  18.079  0.00  0.00    +0.000 A 
ATOM      7  C   UNL     1       2.751   4.661  18.270  0.00  0.00    +0.000 A 
ENDROOT
BRANCH   4   8
ATOM      8  N   UNL     1       5.887   5.744  15.756  0.00  0.00    +0.000 N 
ATOM      9  C   UNL     1       6.199   5.195  14.506  0.00  0.00    +0.000 A 
ATOM     10  C   UNL     1       5.250   4.616  13.672  0.00  0.00    +0.000 A 
ATOM     11  C   UNL     1       5.639   3.942  12.512  0.00  0.00    +0.000 A 
ATOM     12  C   UNL     1       6.988   3.949  12.168  0.00  0.00    +0.000 A 
ATOM     13  C   UNL     1       7.868   4.612  13.005  0.00  0.00    +0.000 A 
ATOM     14  N   UNL     1       7.504   5.220  14.159  0.00  0.00    +0.000 NA
ATOM     15  H   UNL     1       6.762   5.961  16.215  0.00  0.00    +0.000 HD
BRANCH  11  16
ATOM     16  C   UNL     1       4.621   3.199  11.693  0.00  0.00    +0.000 C 
ATOM     17  F   UNL     1       3.464   2.930  12.361  0.00  0.00    +0.000 F 
ATOM     18  F   UNL     1       4.253   3.883  10.575  0.00  0.00    +0.000 F 
ATOM     19  F   UNL     1       5.086   1.996  11.258  0.00  0.00    +0.000 F 
ENDBRANCH  11  16
ENDBRANCH   4   8
BRANCH   6  20
ATOM     20  C   UNL     1       2.426   7.124  18.722  0.00  0.00    +0.000 A 
ATOM     21  C   UNL     1       2.076   7.105  20.082  0.00  0.00    +0.000 A 
ATOM     22  C   UNL     1       1.427   8.191  20.667  0.00  0.00    +0.000 A 
ATOM     23  C   UNL     1       1.137   9.282  19.872  0.00  0.00    +0.000 A 
ATOM     24  F   UNL     1       0.498  10.324  20.420  0.00  0.00    +0.000 F 
ATOM     25  N   UNL     1       1.455   9.363  18.565  0.00  0.00    +0.000 NA
ATOM     26  C   UNL     1       2.096   8.292  18.033  0.00  0.00    +0.000 A 
ENDBRANCH   6  20
TORSDOF 3
ENDMDL
MODEL 4
REMARK VINA RESULT:      -8.3      2.521      7.491
REMARK  Name = 
REMARK  4 active torsions:
REMARK  status: ('A' for Active; 'I' for Inactive)
REMARK    1  A    between atoms: C_1  and  C_2
REMARK    2  A    between atoms: C_4  and  N_5
REMARK    3  A    between atoms: C_8  and  C_9
REMARK    4  A    between atoms: C_17  and  C_18
REMARK                            x       y       z     vdW  Elec       q    Type
REMARK                         _______ _______ _______ _____ _____    ______ ____
ROOT
ATOM      1  C   UNL     1       2.224   4.833  20.972  0.00  0.00    +0.000 C 
ATOM      2  C   UNL     1       2.638   5.683  19.809  0.00  0.00    +0.000 A 
ATOM      3  C   UNL     1       2.071   6.943  19.585  0.00  0.00    +0.000 A 
ATOM      4  C   UNL     1       2.533   7.724  18.531  0.00  0.00    +0.000 A 
ATOM      5  N   UNL     1       3.465   7.246  17.682  0.00  0.00    +0.000 NA
ATOM      6  C   UNL     1       4.008   6.022  17.865  0.00  0.00    +0.000 A 
ATOM      7  C   UNL     1       3.620   5.221  18.930  0.00  0.00    +0.000 A 
ENDROOT
BRANCH   4   8
ATOM      8  N   UNL     1       1.999   9.009  18.338  0.00  0.00    +0.000 N 
ATOM      9  C   UNL     1       1.082   9.683  19.153  0.00  0.00    +0.000 A 
ATOM     10  C   UNL     1       0.973   9.462  20.520  0.00  0.00    +0.000 A 
ATOM     11  C   UNL     1      -0.064  10.042  21.255  0.00  0.00    +0.000 A 
ATOM     12  C   UNL     1      -0.926  10.917  20.599  0.00  0.00    +0.000 A 
ATOM     13  C   UNL     1      -0.711  11.152  19.253  0.00  0.00    +0.000 A 
ATOM     14  N   UNL     1       0.259  10.551  18.523  0.00  0.00    +0.000 NA
ATOM     15  H   UNL     1       1.776   9.240  17.379  0.00  0.00    +0.000 HD
BRANCH  11  16
ATOM     16  C   UNL     1      -0.256   9.684  22.702  0.00  0.00    +0.000 C 
ATOM     17  F   UNL     1       0.907   9.453  23.374  0.00  0.00    +0.000 F 
ATOM     18  F   UNL     1      -0.899  10.661  23.399  0.00  0.00    +0.000 F 
ATOM     19  F   UNL     1      -1.006   8.559  22.861  0.00  0.00    +0.000 F 
ENDBRANCH  11  16
ENDBRANCH   4   8
BRANCH   6  20
ATOM     20  C   UNL     1       5.013   5.629  16.865  0.00  0.00    +0.000 A 
ATOM     21  C   UNL     1       4.796   4.565  15.973  0.00  0.00    +0.000 A 
ATOM     22  C   UNL     1       5.766   4.210  15.037  0.00  0.00    +0.000 A 
ATOM     23  C   UNL     1       6.944   4.931  15.013  0.00  0.00    +0.000 A 
ATOM     24  F   UNL     1       7.889   4.586  14.129  0.00  0.00    +0.000 F 
ATOM     25  N   UNL     1       7.206   5.967  15.835  0.00  0.00    +0.000 NA
ATOM     26  C   UNL     1       6.235   6.290  16.725  0.00  0.00    +0.000 A 
ENDBRANCH   6  20
TORSDOF 3
ENDMDL
MODEL 5
REMARK VINA RESULT:      -8.1      3.353      6.992
REMARK  Name = 
REMARK  4 active torsions:
REMARK  status: ('A' for Active; 'I' for Inactive)
REMARK    1  A    between atoms: C_1  and  C_2
REMARK    2  A    between atoms: C_4  and  N_5
REMARK    3  A    between atoms: C_8  and  C_9
REMARK    4  A    between atoms: C_17  and  C_18
REMARK                            x       y       z     vdW  Elec       q    Type
REMARK                         _______ _______ _______ _____ _____    ______ ____
ROOT
ATOM      1  C   UNL     1       6.376   5.975  16.360  0.00  0.00    +0.000 C 
ATOM      2  C   UNL     1       5.111   6.209  17.129  0.00  0.00    +0.000 A 
ATOM      3  C   UNL     1       4.384   7.397  16.997  0.00  0.00    +0.000 A 
ATOM      4  C   UNL     1       3.181   7.544  17.679  0.00  0.00    +0.000 A 
ATOM      5  N   UNL     1       2.751   6.584  18.523  0.00  0.00    +0.000 NA
ATOM      6  C   UNL     1       3.450   5.439  18.684  0.00  0.00    +0.000 A 
ATOM      7  C   UNL     1       4.632   5.220  17.989  0.00  0.00    +0.000 A 
ENDROOT
BRANCH   4   8
ATOM      8  N   UNL     1       2.427   8.717  17.506  0.00  0.00    +0.000 N 
ATOM      9  C   UNL     1       1.449   9.237  18.363  0.00  0.00    +0.000 A 
ATOM     10  C   UNL     1       1.448   9.021  19.736  0.00  0.00    +0.000 A 
ATOM     11  C   UNL     1       0.366   9.427  20.519  0.00  0.00    +0.000 A 
ATOM     12  C   UNL     1      -0.664  10.133  19.904  0.00  0.00    +0.000 A 
ATOM     13  C   UNL     1      -0.561  10.381  18.547  0.00  0.00    +0.000 A 
ATOM     14  N   UNL     1       0.460   9.943  17.772  0.00  0.00    +0.000 NA
ATOM     15  H   UNL     1       2.119   8.892  16.558  0.00  0.00    +0.000 HD
BRANCH  11  16
ATOM     16  C   UNL     1       0.311   9.063  21.977  0.00  0.00    +0.000 C 
ATOM     17  F   UNL     1       0.167  10.133  22.809  0.00  0.00    +0.000 F 
ATOM     18  F   UNL     1      -0.724   8.227  22.266  0.00  0.00    +0.000 F 
ATOM     19  F   UNL     1       1.437   8.419  22.392  0.00  0.00    +0.000 F 
ENDBRANCH  11  16
ENDBRANCH   4   8
BRANCH   6  20
ATOM     20  C   UNL     1       2.865   4.479  19.634  0.00  0.00    +0.000 A 
ATOM     21  C   UNL     1       1.534   4.586  20.071  0.00  0.00    +0.000 A 
ATOM     22  C   UNL     1       1.004   3.666  20.974  0.00  0.00    +0.000 A 
ATOM     23  C   UNL     1       1.823   2.650  21.427  0.00  0.00    +0.000 A 
ATOM     24  F   UNL     1       1.329   1.771  22.308  0.00  0.00    +0.000 F 
ATOM     25  N   UNL     1       3.104   2.490  21.037  0.00  0.00    +0.000 NA
ATOM     26  C   UNL     1       3.582   3.398  20.149  0.00  0.00    +0.000 A 
ENDBRANCH   6  20
TORSDOF 3
ENDMDL
MODEL 6
REMARK VINA RESULT:      -8.1      2.449      7.010
REMARK  Name = 
REMARK  4 active torsions:
REMARK  status: ('A' for Active; 'I' for Inactive)
REMARK    1  A    between atoms: C_1  and  C_2
REMARK    2  A    between atoms: C_4  and  N_5
REMARK    3  A    between atoms: C_8  and  C_9
REMARK    4  A    between atoms: C_17  and  C_18
REMARK                            x       y       z     vdW  Elec       q    Type
REMARK                         _______ _______ _______ _____ _____    ______ ____
ROOT
ATOM      1  C   UNL     1       0.840   3.300  20.746  0.00  0.00    +0.000 C 
ATOM      2  C   UNL     1       1.510   4.522  20.194  0.00  0.00    +0.000 A 
ATOM      3  C   UNL     1       1.283   5.790  20.740  0.00  0.00    +0.000 A 
ATOM      4  C   UNL     1       1.977   6.886  20.238  0.00  0.00    +0.000 A 
ATOM      5  N   UNL     1       2.806   6.748  19.183  0.00  0.00    +0.000 NA
ATOM      6  C   UNL     1       3.021   5.536  18.626  0.00  0.00    +0.000 A 
ATOM      7  C   UNL     1       2.393   4.401  19.119  0.00  0.00    +0.000 A 
ENDROOT
BRANCH   4   8
ATOM      8  N   UNL     1       1.786   8.151  20.820  0.00  0.00    +0.000 N 
ATOM      9  C   UNL     1       1.092   9.242  20.283  0.00  0.00    +0.000 A 
ATOM     10  C   UNL     1       0.037   9.107  19.389  0.00  0.00    +0.000 A 
ATOM     11  C   UNL     1      -0.513  10.227  18.763  0.00  0.00    +0.000 A 
ATOM     12  C   UNL     1      -0.039  11.484  19.128  0.00  0.00    +0.000 A 
ATOM     13  C   UNL     1       0.960  11.549  20.082  0.00  0.00    +0.000 A 
ATOM     14  N   UNL     1       1.535  10.464  20.653  0.00  0.00    +0.000 NA
ATOM     15  H   UNL     1       2.587   8.519  21.316  0.00  0.00    +0.000 HD
BRANCH  11  16
ATOM     16  C   UNL     1      -1.556  10.058  17.694  0.00  0.00    +0.000 C 
ATOM     17  F   UNL     1      -1.950  11.227  17.115  0.00  0.00    +0.000 F 
ATOM     18  F   UNL     1      -1.131   9.263  16.673  0.00  0.00    +0.000 F 
ATOM     19  F   UNL     1      -2.693   9.478  18.168  0.00  0.00    +0.000 F 
ENDBRANCH  11  16
ENDBRANCH   4   8
BRANCH   6  20
ATOM     20  C   UNL     1       3.950   5.531  17.484  0.00  0.00    +0.000 A 
ATOM     21  C   UNL     1       4.320   4.341  16.834  0.00  0.00    +0.000 A 
ATOM     22  C   UNL     1       5.205   4.362  15.758  0.00  0.00    +0.000 A 
ATOM     23  C   UNL     1       5.707   5.582  15.350  0.00  0.00    +0.000 A 
ATOM     24  F   UNL     1       6.571   5.612  14.328  0.00  0.00    +0.000 F 
ATOM     25  N   UNL     1       5.383   6.757  15.927  0.00  0.00    +0.000 NA
ATOM     26  C   UNL     1       4.511   6.699  16.965  0.00  0.00    +0.000 A 
ENDBRANCH   6  20
TORSDOF 3
ENDMDL
MODEL 7
REMARK VINA RESULT:      -8.0      3.972      5.670
REMARK  Name = 
REMARK  4 active torsions:
REMARK  status: ('A' for Active; 'I' for Inactive)
REMARK    1  A    between atoms: C_1  and  C_2
REMARK    2  A    between atoms: C_4  and  N_5
REMARK    3  A    between atoms: C_8  and  C_9
REMARK    4  A    between atoms: C_17  and  C_18
REMARK                            x       y       z     vdW  Elec       q    Type
REMARK                         _______ _______ _______ _____ _____    ______ ____
ROOT
ATOM      1  C   UNL     1       0.994   9.253  22.432  0.00  0.00    +0.000 C 
ATOM      2  C   UNL     1       0.853   9.298  20.941  0.00  0.00    +0.000 A 
ATOM      3  C   UNL     1       1.858   8.816  20.096  0.00  0.00    +0.000 A 
ATOM      4  C   UNL     1       1.655   8.818  18.720  0.00  0.00    +0.000 A 
ATOM      5  N   UNL     1       0.533   9.349  18.194  0.00  0.00    +0.000 NA
ATOM      6  C   UNL     1      -0.441   9.841  18.991  0.00  0.00    +0.000 A 
ATOM      7  C   UNL     1      -0.312   9.819  20.373  0.00  0.00    +0.000 A 
ENDROOT
BRANCH   4   8
ATOM      8  N   UNL     1       2.644   8.287  17.875  0.00  0.00    +0.000 N 
ATOM      9  C   UNL     1       3.103   6.965  17.822  0.00  0.00    +0.000 A 
ATOM     10  C   UNL     1       2.316   5.873  18.167  0.00  0.00    +0.000 A 
ATOM     11  C   UNL     1       2.871   4.594  18.251  0.00  0.00    +0.000 A 
ATOM     12  C   UNL     1       4.206   4.432  17.890  0.00  0.00    +0.000 A 
ATOM     13  C   UNL     1       4.909   5.550  17.482  0.00  0.00    +0.000 A 
ATOM     14  N   UNL     1       4.392   6.801  17.451  0.00  0.00    +0.000 NA
ATOM     15  H   UNL     1       3.443   8.889  17.720  0.00  0.00    +0.000 HD
BRANCH  11  16
ATOM     16  C   UNL     1       2.047   3.445  18.760  0.00  0.00    +0.000 C 
ATOM     17  F   UNL     1       2.666   2.704  19.722  0.00  0.00    +0.000 F 
ATOM     18  F   UNL     1       0.869   3.853  19.307  0.00  0.00    +0.000 F 
ATOM     19  F   UNL     1       1.715   2.569  17.773  0.00  0.00    +0.000 F 
ENDBRANCH  11  16
ENDBRANCH   4   8
BRANCH   6  20
ATOM     20  C   UNL     1      -1.610  10.387  18.283  0.00  0.00    +0.000 A 
ATOM     21  C   UNL     1      -1.923  10.010  16.967  0.00  0.00    +0.000 A 
ATOM     22  C   UNL     1      -3.034  10.545  16.317  0.00  0.00    +0.000 A 
ATOM     23  C   UNL     1      -3.815  11.454  17.002  0.00  0.00    +0.000 A 
ATOM     24  F   UNL     1      -4.876  11.986  16.380  0.00  0.00    +0.000 F 
ATOM     25  N   UNL     1      -3.573  11.847  18.268  0.00  0.00    +0.000 NA
ATOM     26  C   UNL     1      -2.489  11.298  18.872  0.00  0.00    +0.000 A 
ENDBRANCH   6  20
TORSDOF 3
ENDMDL
MODEL 8
REMARK VINA RESULT:      -7.9      3.341      6.589
REMARK  Name = 
REMARK  4 active torsions:
REMARK  status: ('A' for Active; 'I' for Inactive)
REMARK    1  A    between atoms: C_1  and  C_2
REMARK    2  A    between atoms: C_4  and  N_5
REMARK    3  A    between atoms: C_8  and  C_9
REMARK    4  A    between atoms: C_17  and  C_18
REMARK                            x       y       z     vdW  Elec       q    Type
REMARK                         _______ _______ _______ _____ _____    ______ ____
ROOT
ATOM      1  C   UNL     1       5.770   4.096  15.669  0.00  0.00    +0.000 C 
ATOM      2  C   UNL     1       4.837   4.727  16.657  0.00  0.00    +0.000 A 
ATOM      3  C   UNL     1       4.526   6.090  16.602  0.00  0.00    +0.000 A 
ATOM      4  C   UNL     1       3.603   6.618  17.499  0.00  0.00    +0.000 A 
ATOM      5  N   UNL     1       3.067   5.846  18.465  0.00  0.00    +0.000 NA
ATOM      6  C   UNL     1       3.372   4.532  18.551  0.00  0.00    +0.000 A 
ATOM      7  C   UNL     1       4.248   3.942  17.650  0.00  0.00    +0.000 A 
ENDROOT
BRANCH   4   8
ATOM      8  N   UNL     1       3.254   7.977  17.410  0.00  0.00    +0.000 N 
ATOM      9  C   UNL     1       2.324   8.672  18.194  0.00  0.00    +0.000 A 
ATOM     10  C   UNL     1       2.014   8.316  19.501  0.00  0.00    +0.000 A 
ATOM     11  C   UNL     1       0.966   8.943  20.179  0.00  0.00    +0.000 A 
ATOM     12  C   UNL     1       0.307   9.992  19.546  0.00  0.00    +0.000 A 
ATOM     13  C   UNL     1       0.719  10.344  18.273  0.00  0.00    +0.000 A 
ATOM     14  N   UNL     1       1.697   9.705  17.590  0.00  0.00    +0.000 NA
ATOM     15  H   UNL     1       3.185   8.341  16.469  0.00  0.00    +0.000 HD
BRANCH  11  16
ATOM     16  C   UNL     1       0.548   8.454  21.538  0.00  0.00    +0.000 C 
ATOM     17  F   UNL     1       1.169   7.305  21.928  0.00  0.00    +0.000 F 
ATOM     18  F   UNL     1       0.803   9.364  22.519  0.00  0.00    +0.000 F 
ATOM     19  F   UNL     1      -0.787   8.197  21.607  0.00  0.00    +0.000 F 
ENDBRANCH  11  16
ENDBRANCH   4   8
BRANCH   6  20
ATOM     20  C   UNL     1       2.713   3.810  19.651  0.00  0.00    +0.000 A 
ATOM     21  C   UNL     1       1.314   3.734  19.756  0.00  0.00    +0.000 A 
ATOM     22  C   UNL     1       0.714   3.047  20.810  0.00  0.00    +0.000 A 
ATOM     23  C   UNL     1       1.532   2.446  21.746  0.00  0.00    +0.000 A 
ATOM     24  F   UNL     1       0.966   1.797  22.772  0.00  0.00    +0.000 F 
ATOM     25  N   UNL     1       2.879   2.475  21.694  0.00  0.00    +0.000 NA
ATOM     26  C   UNL     1       3.427   3.144  20.648  0.00  0.00    +0.000 A 
ENDBRANCH   6  20
TORSDOF 3
ENDMDL
MODEL 9
REMARK VINA RESULT:      -7.9      2.298      7.018
REMARK  Name = 
REMARK  4 active torsions:
REMARK  status: ('A' for Active; 'I' for Inactive)
REMARK    1  A    between atoms: C_1  and  C_2
REMARK    2  A    between atoms: C_4  and  N_5
REMARK    3  A    between atoms: C_8  and  C_9
REMARK    4  A    between atoms: C_17  and  C_18
REMARK                            x       y       z     vdW  Elec       q    Type
REMARK                         _______ _______ _______ _____ _____    ______ ____
ROOT
ATOM      1  C   UNL     1       0.784   3.231  20.683  0.00  0.00    +0.000 C 
ATOM      2  C   UNL     1       1.460   4.464  20.166  0.00  0.00    +0.000 A 
ATOM      3  C   UNL     1       1.235   5.719  20.743  0.00  0.00    +0.000 A 
ATOM      4  C   UNL     1       1.934   6.825  20.273  0.00  0.00    +0.000 A 
ATOM      5  N   UNL     1       2.766   6.711  19.218  0.00  0.00    +0.000 NA
ATOM      6  C   UNL     1       2.979   5.514  18.629  0.00  0.00    +0.000 A 
ATOM      7  C   UNL     1       2.346   4.368  19.091  0.00  0.00    +0.000 A 
ENDROOT
BRANCH   4   8
ATOM      8  N   UNL     1       1.745   8.075  20.887  0.00  0.00    +0.000 N 
ATOM      9  C   UNL     1       1.074   9.188  20.367  0.00  0.00    +0.000 A 
ATOM     10  C   UNL     1       0.036   9.090  19.449  0.00  0.00    +0.000 A 
ATOM     11  C   UNL     1      -0.489  10.234  18.844  0.00  0.00    +0.000 A 
ATOM     12  C   UNL     1      -0.010  11.475  19.254  0.00  0.00    +0.000 A 
ATOM     13  C   UNL     1       0.971  11.502  20.230  0.00  0.00    +0.000 A 
ATOM     14  N   UNL     1       1.522  10.394  20.781  0.00  0.00    +0.000 NA
ATOM     15  H   UNL     1       2.540   8.420  21.409  0.00  0.00    +0.000 HD
BRANCH  11  16
ATOM     16  C   UNL     1      -1.513  10.107  17.750  0.00  0.00    +0.000 C 
ATOM     17  F   UNL     1      -1.120   9.314  16.714  0.00  0.00    +0.000 F 
ATOM     18  F   UNL     1      -2.687   9.581  18.195  0.00  0.00    +0.000 F 
ATOM     19  F   UNL     1      -1.830  11.310  17.197  0.00  0.00    +0.000 F 
ENDBRANCH  11  16
ENDBRANCH   4   8
BRANCH   6  20
ATOM     20  C   UNL     1       3.913   5.535  17.491  0.00  0.00    +0.000 A 
ATOM     21  C   UNL     1       4.393   6.739  16.948  0.00  0.00    +0.000 A 
ATOM     22  C   UNL     1       5.272   6.732  15.867  0.00  0.00    +0.000 A 
ATOM     23  C   UNL     1       5.656   5.513  15.346  0.00  0.00    +0.000 A 
ATOM     24  F   UNL     1       6.488   5.496  14.296  0.00  0.00    +0.000 F 
ATOM     25  N   UNL     1       5.238   4.326  15.829  0.00  0.00    +0.000 NA
ATOM     26  C   UNL     1       4.391   4.371  16.888  0.00  0.00    +0.000 A 
ENDBRANCH   6  20
TORSDOF 3
ENDMDL
