MODEL 1
REMARK VINA RESULT:      -7.6      0.000      0.000
REMARK  Name = 
REMARK  8 active torsions:
REMARK  status: ('A' for Active; 'I' for Inactive)
REMARK    1  A    between atoms: C_2  and  C_3
REMARK    2  A    between atoms: C_3  and  O_4
REMARK    3  A    between atoms: O_4  and  C_5
REMARK    4  A    between atoms: C_8  and  C_9
REMARK    5  A    between atoms: N_11  and  C_12
REMARK    6  A    between atoms: C_17  and  C_18
REMARK    7  A    between atoms: C_18  and  C_19
REMARK    8  A    between atoms: C_25  and  C_26
REMARK                            x       y       z     vdW  Elec       q    Type
REMARK                         _______ _______ _______ _____ _____    ______ ____
ROOT
ATOM      1  C   UNL     1       1.477   8.526  19.925  0.00  0.00    +0.000 A 
ATOM      2  C   UNL     1       1.055   8.164  21.208  0.00  0.00    +0.000 A 
ATOM      3  C   UNL     1       0.196   8.976  21.936  0.00  0.00    +0.000 A 
ATOM      4  C   UNL     1      -0.233  10.178  21.401  0.00  0.00    +0.000 A 
ATOM      5  F   UNL     1      -1.062  10.919  22.147  0.00  0.00    +0.000 F 
ATOM      6  C   UNL     1       0.212  10.631  20.144  0.00  0.00    +0.000 A 
ATOM      7  C   UNL     1       1.078   9.776  19.415  0.00  0.00    +0.000 A 
ENDROOT
BRANCH   6   8
ATOM      8  C   UNL     1      -0.231  12.033  19.668  0.00  0.00    +0.000 C 
ATOM      9  C   UNL     1       0.332  12.399  18.269  0.00  0.00    +0.000 C 
ATOM     10  N   UNL     1      -1.680  12.016  19.429  0.00  0.00    +0.000 NA
ATOM     11  C   UNL     1      -2.544  12.712  20.065  0.00  0.00    +0.000 C 
ATOM     12  N   UNL     1      -3.861  12.637  19.737  0.00  0.00    +0.000 N 
ATOM     13  S   UNL     1      -2.234  13.849  21.337  0.00  0.00    +0.000 S 
ATOM     14  C   UNL     1      -0.527  13.880  21.402  0.00  0.00    +0.000 C 
ATOM     15  C   UNL     1       0.269  13.095  20.660  0.00  0.00    +0.000 C 
ATOM     16  C   UNL     1       1.765  13.208  20.847  0.00  0.00    +0.000 C 
ATOM     17  H   UNL     1      -4.020  12.302  18.794  0.00  0.00    +0.000 HD
ATOM     18  H   UNL     1      -4.412  13.439  20.006  0.00  0.00    +0.000 HD
ENDBRANCH   6   8
BRANCH   1  21
ATOM     19  C   UNL     1       2.523   6.333  19.421  0.00  0.00    +0.000 C 
ATOM     20  O   UNL     1       2.071   5.716  20.384  0.00  0.00    +0.000 OA
ATOM     21  N   UNL     1       2.284   7.671  19.129  0.00  0.00    +0.000 N 
ATOM     22  H   UNL     1       2.612   8.002  18.227  0.00  0.00    +0.000 HD
BRANCH  19  26
ATOM     23  C   UNL     1       4.918   4.350  16.642  0.00  0.00    +0.000 A 
ATOM     24  C   UNL     1       4.208   3.622  17.603  0.00  0.00    +0.000 A 
ATOM     25  N   UNL     1       3.408   4.201  18.550  0.00  0.00    +0.000 NA
ATOM     26  C   UNL     1       3.373   5.559  18.479  0.00  0.00    +0.000 A 
ATOM     27  C   UNL     1       4.104   6.278  17.535  0.00  0.00    +0.000 A 
ATOM     28  N   UNL     1       4.892   5.695  16.597  0.00  0.00    +0.000 NA
BRANCH  23  29
ATOM     29  O   UNL     1       5.684   3.670  15.729  0.00  0.00    +0.000 OA
BRANCH  29  30
ATOM     30  C   UNL     1       6.296   4.532  14.757  0.00  0.00    +0.000 C 
BRANCH  30  32
ATOM     31  C   UNL     1       5.958   3.271  12.253  0.00  0.00    +0.000 C 
ATOM     32  C   UNL     1       6.114   3.853  13.409  0.00  0.00    +0.000 C 
ENDBRANCH  30  32
ENDBRANCH  29  30
ENDBRANCH  23  29
ENDBRANCH  19  26
ENDBRANCH   1  21
TORSDOF 6
ENDMDL
MODEL 2
REMARK VINA RESULT:      -7.4      1.869      2.518
REMARK  Name = 
REMARK  8 active torsions:
REMARK  status: ('A' for Active; 'I' for Inactive)
REMARK    1  A    between atoms: C_2  and  C_3
REMARK    2  A    between atoms: C_3  and  O_4
REMARK    3  A    between atoms: O_4  and  C_5
REMARK    4  A    between atoms: C_8  and  C_9
REMARK    5  A    between atoms: N_11  and  C_12
REMARK    6  A    between atoms: C_17  and  C_18
REMARK    7  A    between atoms: C_18  and  C_19
REMARK    8  A    between atoms: C_25  and  C_26
REMARK                            x       y       z     vdW  Elec       q    Type
REMARK                         _______ _______ _______ _____ _____    ______ ____
ROOT
ATOM      1  C   UNL     1       0.615   9.659  18.031  0.00  0.00    +0.000 A 
ATOM      2  C   UNL     1      -0.718   9.520  17.631  0.00  0.00    +0.000 A 
ATOM      3  C   UNL     1      -1.665  10.487  17.944  0.00  0.00    +0.000 A 
ATOM      4  C   UNL     1      -1.296  11.594  18.688  0.00  0.00    +0.000 A 
ATOM      5  F   UNL     1      -2.250  12.494  18.959  0.00  0.00    +0.000 F 
ATOM      6  C   UNL     1       0.013  11.755  19.180  0.00  0.00    +0.000 A 
ATOM      7  C   UNL     1       0.964  10.761  18.834  0.00  0.00    +0.000 A 
ENDROOT
BRANCH   6   8
ATOM      8  C   UNL     1       0.312  12.966  20.092  0.00  0.00    +0.000 C 
ATOM      9  C   UNL     1       1.787  13.008  20.572  0.00  0.00    +0.000 C 
ATOM     10  N   UNL     1       0.206  14.196  19.296  0.00  0.00    +0.000 NA
ATOM     11  C   UNL     1      -0.643  15.133  19.489  0.00  0.00    +0.000 C 
ATOM     12  N   UNL     1      -0.629  16.243  18.706  0.00  0.00    +0.000 N 
ATOM     13  S   UNL     1      -1.854  15.202  20.728  0.00  0.00    +0.000 S 
ATOM     14  C   UNL     1      -1.519  13.806  21.656  0.00  0.00    +0.000 C 
ATOM     15  C   UNL     1      -0.579  12.902  21.342  0.00  0.00    +0.000 C 
ATOM     16  C   UNL     1      -0.415  11.695  22.239  0.00  0.00    +0.000 C 
ATOM     17  H   UNL     1       0.263  16.403  18.254  0.00  0.00    +0.000 HD
ATOM     18  H   UNL     1      -1.054  17.061  19.119  0.00  0.00    +0.000 HD
ENDBRANCH   6   8
BRANCH   1  21
ATOM     19  C   UNL     1       2.220   7.829  18.520  0.00  0.00    +0.000 C 
ATOM     20  O   UNL     1       1.970   7.714  19.718  0.00  0.00    +0.000 OA
ATOM     21  N   UNL     1       1.617   8.727  17.647  0.00  0.00    +0.000 N 
ATOM     22  H   UNL     1       1.827   8.610  16.661  0.00  0.00    +0.000 HD
BRANCH  19  26
ATOM     23  C   UNL     1       4.972   5.050  17.074  0.00  0.00    +0.000 A 
ATOM     24  C   UNL     1       5.246   6.418  16.990  0.00  0.00    +0.000 A 
ATOM     25  N   UNL     1       4.392   7.389  17.436  0.00  0.00    +0.000 NA
ATOM     26  C   UNL     1       3.237   6.900  17.963  0.00  0.00    +0.000 A 
ATOM     27  C   UNL     1       2.960   5.536  18.019  0.00  0.00    +0.000 A 
ATOM     28  N   UNL     1       3.816   4.579  17.578  0.00  0.00    +0.000 NA
BRANCH  23  29
ATOM     29  O   UNL     1       5.904   4.157  16.608  0.00  0.00    +0.000 OA
BRANCH  29  30
ATOM     30  C   UNL     1       6.803   4.734  15.649  0.00  0.00    +0.000 C 
BRANCH  30  32
ATOM     31  C   UNL     1       6.068   3.682  13.134  0.00  0.00    +0.000 C 
ATOM     32  C   UNL     1       6.407   4.168  14.295  0.00  0.00    +0.000 C 
ENDBRANCH  30  32
ENDBRANCH  29  30
ENDBRANCH  23  29
ENDBRANCH  19  26
ENDBRANCH   1  21
TORSDOF 6
ENDMDL
MODEL 3
REMARK VINA RESULT:      -7.4      1.138      1.162
REMARK  Name = 
REMARK  8 active torsions:
REMARK  status: ('A' for Active; 'I' for Inactive)
REMARK    1  A    between atoms: C_2  and  C_3
REMARK    2  A    between atoms: C_3  and  O_4
REMARK    3  A    between atoms: O_4  and  C_5
REMARK    4  A    between atoms: C_8  and  C_9
REMARK    5  A    between atoms: N_11  and  C_12
REMARK    6  A    between atoms: C_17  and  C_18
REMARK    7  A    between atoms: C_18  and  C_19
REMARK    8  A    between atoms: C_25  and  C_26
REMARK                            x       y       z     vdW  Elec       q    Type
REMARK                         _______ _______ _______ _____ _____    ______ ____
ROOT
ATOM      1  C   UNL     1       1.144   8.776  20.760  0.00  0.00    +0.000 A 
ATOM      2  C   UNL     1       0.912   8.677  22.135  0.00  0.00    +0.000 A 
ATOM      3  C   UNL     1       0.143   9.622  22.803  0.00  0.00    +0.000 A 
ATOM      4  C   UNL     1      -0.383  10.697  22.106  0.00  0.00    +0.000 A 
ATOM      5  F   UNL     1      -1.117  11.575  22.800  0.00  0.00    +0.000 F 
ATOM      6  C   UNL     1      -0.125  10.889  20.736  0.00  0.00    +0.000 A 
ATOM      7  C   UNL     1       0.651   9.903  20.075  0.00  0.00    +0.000 A 
ENDROOT
BRANCH   6   8
ATOM      8  C   UNL     1      -0.661  12.172  20.060  0.00  0.00    +0.000 C 
ATOM      9  C   UNL     1      -0.287  12.261  18.557  0.00  0.00    +0.000 C 
ATOM     10  N   UNL     1      -2.128  12.106  20.015  0.00  0.00    +0.000 NA
ATOM     11  C   UNL     1      -2.924  12.911  20.611  0.00  0.00    +0.000 C 
ATOM     12  N   UNL     1      -4.269  12.771  20.474  0.00  0.00    +0.000 N 
ATOM     13  S   UNL     1      -2.488  14.273  21.591  0.00  0.00    +0.000 S 
ATOM     14  C   UNL     1      -0.787  14.319  21.431  0.00  0.00    +0.000 C 
ATOM     15  C   UNL     1      -0.070  13.406  20.757  0.00  0.00    +0.000 C 
ATOM     16  C   UNL     1       1.435  13.556  20.727  0.00  0.00    +0.000 C 
ATOM     17  H   UNL     1      -4.536  12.260  19.642  0.00  0.00    +0.000 HD
ATOM     18  H   UNL     1      -4.804  13.609  20.653  0.00  0.00    +0.000 HD
ENDBRANCH   6   8
BRANCH   1  21
ATOM     19  C   UNL     1       2.233   7.894  18.711  0.00  0.00    +0.000 C 
ATOM     20  O   UNL     1       2.019   8.865  17.987  0.00  0.00    +0.000 OA
ATOM     21  N   UNL     1       1.853   7.776  20.043  0.00  0.00    +0.000 N 
ATOM     22  H   UNL     1       2.221   6.976  20.548  0.00  0.00    +0.000 HD
BRANCH  19  26
ATOM     23  C   UNL     1       4.468   4.892  16.873  0.00  0.00    +0.000 A 
ATOM     24  C   UNL     1       3.327   4.565  17.612  0.00  0.00    +0.000 A 
ATOM     25  N   UNL     1       2.547   5.492  18.248  0.00  0.00    +0.000 NA
ATOM     26  C   UNL     1       2.991   6.769  18.104  0.00  0.00    +0.000 A 
ATOM     27  C   UNL     1       4.144   7.085  17.388  0.00  0.00    +0.000 A 
ATOM     28  N   UNL     1       4.910   6.159  16.758  0.00  0.00    +0.000 NA
BRANCH  23  29
ATOM     29  O   UNL     1       5.174   3.886  16.263  0.00  0.00    +0.000 OA
BRANCH  29  30
ATOM     30  C   UNL     1       6.355   4.354  15.593  0.00  0.00    +0.000 C 
BRANCH  30  32
ATOM     31  C   UNL     1       6.084   3.599  12.886  0.00  0.00    +0.000 C 
ATOM     32  C   UNL     1       6.209   3.948  14.136  0.00  0.00    +0.000 C 
ENDBRANCH  30  32
ENDBRANCH  29  30
ENDBRANCH  23  29
ENDBRANCH  19  26
ENDBRANCH   1  21
TORSDOF 6
ENDMDL
MODEL 4
REMARK VINA RESULT:      -7.4      7.205      7.898
REMARK  Name = 
REMARK  8 active torsions:
REMARK  status: ('A' for Active; 'I' for Inactive)
REMARK    1  A    between atoms: C_2  and  C_3
REMARK    2  A    between atoms: C_3  and  O_4
REMARK    3  A    between atoms: O_4  and  C_5
REMARK    4  A    between atoms: C_8  and  C_9
REMARK    5  A    between atoms: N_11  and  C_12
REMARK    6  A    between atoms: C_17  and  C_18
REMARK    7  A    between atoms: C_18  and  C_19
REMARK    8  A    between atoms: C_25  and  C_26
REMARK                            x       y       z     vdW  Elec       q    Type
REMARK                         _______ _______ _______ _____ _____    ______ ____
ROOT
ATOM      1  C   UNL     1       8.466   9.823  18.246  0.00  0.00    +0.000 A 
ATOM      2  C   UNL     1       9.274   9.494  19.339  0.00  0.00    +0.000 A 
ATOM      3  C   UNL     1       9.829  10.481  20.144  0.00  0.00    +0.000 A 
ATOM      4  C   UNL     1       9.605  11.814  19.850  0.00  0.00    +0.000 A 
ATOM      5  F   UNL     1      10.163  12.721  20.661  0.00  0.00    +0.000 F 
ATOM      6  C   UNL     1       8.860  12.210  18.723  0.00  0.00    +0.000 A 
ATOM      7  C   UNL     1       8.292  11.183  17.925  0.00  0.00    +0.000 A 
ENDROOT
BRANCH   6   8
ATOM      8  C   UNL     1       8.749  13.718  18.408  0.00  0.00    +0.000 C 
ATOM      9  C   UNL     1       7.813  14.015  17.206  0.00  0.00    +0.000 C 
ATOM     10  N   UNL     1       8.054  14.385  19.518  0.00  0.00    +0.000 NA
ATOM     11  C   UNL     1       8.561  15.281  20.277  0.00  0.00    +0.000 C 
ATOM     12  N   UNL     1       7.812  15.851  21.257  0.00  0.00    +0.000 N 
ATOM     13  S   UNL     1      10.160  15.944  20.184  0.00  0.00    +0.000 S 
ATOM     14  C   UNL     1      10.790  15.203  18.779  0.00  0.00    +0.000 C 
ATOM     15  C   UNL     1      10.137  14.276  18.060  0.00  0.00    +0.000 C 
ATOM     16  C   UNL     1      10.833  13.681  16.855  0.00  0.00    +0.000 C 
ATOM     17  H   UNL     1       6.815  15.777  21.095  0.00  0.00    +0.000 HD
ATOM     18  H   UNL     1       8.130  16.760  21.561  0.00  0.00    +0.000 HD
ENDBRANCH   6   8
BRANCH   1  21
ATOM     19  C   UNL     1       7.736   7.490  17.821  0.00  0.00    +0.000 C 
ATOM     20  O   UNL     1       8.195   6.990  18.846  0.00  0.00    +0.000 OA
ATOM     21  N   UNL     1       7.818   8.831  17.464  0.00  0.00    +0.000 N 
ATOM     22  H   UNL     1       7.272   9.118  16.658  0.00  0.00    +0.000 HD
BRANCH  19  26
ATOM     23  C   UNL     1       5.866   4.776  15.265  0.00  0.00    +0.000 A 
ATOM     24  C   UNL     1       5.388   6.087  15.369  0.00  0.00    +0.000 A 
ATOM     25  N   UNL     1       5.944   7.031  16.189  0.00  0.00    +0.000 NA
ATOM     26  C   UNL     1       7.004   6.574  16.907  0.00  0.00    +0.000 A 
ATOM     27  C   UNL     1       7.458   5.260  16.818  0.00  0.00    +0.000 A 
ATOM     28  N   UNL     1       6.903   4.331  15.999  0.00  0.00    +0.000 NA
BRANCH  23  29
ATOM     29  O   UNL     1       5.243   3.910  14.403  0.00  0.00    +0.000 OA
BRANCH  29  30
ATOM     30  C   UNL     1       5.987   3.689  13.195  0.00  0.00    +0.000 C 
BRANCH  30  32
ATOM     31  C   UNL     1       4.084   3.173  11.173  0.00  0.00    +0.000 C 
ATOM     32  C   UNL     1       4.962   3.412  12.107  0.00  0.00    +0.000 C 
ENDBRANCH  30  32
ENDBRANCH  29  30
ENDBRANCH  23  29
ENDBRANCH  19  26
ENDBRANCH   1  21
TORSDOF 6
ENDMDL
MODEL 5
REMARK VINA RESULT:      -7.3      2.024      2.625
REMARK  Name = 
REMARK  8 active torsions:
REMARK  status: ('A' for Active; 'I' for Inactive)
REMARK    1  A    between atoms: C_2  and  C_3
REMARK    2  A    between atoms: C_3  and  O_4
REMARK    3  A    between atoms: O_4  and  C_5
REMARK    4  A    between atoms: C_8  and  C_9
REMARK    5  A    between atoms: N_11  and  C_12
REMARK    6  A    between atoms: C_17  and  C_18
REMARK    7  A    between atoms: C_18  and  C_19
REMARK    8  A    between atoms: C_25  and  C_26
REMARK                            x       y       z     vdW  Elec       q    Type
REMARK                         _______ _______ _______ _____ _____    ______ ____
ROOT
ATOM      1  C   UNL     1       0.820   9.525  21.142  0.00  0.00    +0.000 A 
ATOM      2  C   UNL     1       0.617   9.091  22.456  0.00  0.00    +0.000 A 
ATOM      3  C   UNL     1      -0.323   9.702  23.276  0.00  0.00    +0.000 A 
ATOM      4  C   UNL     1      -1.054  10.777  22.801  0.00  0.00    +0.000 A 
ATOM      5  F   UNL     1      -1.946  11.326  23.635  0.00  0.00    +0.000 F 
ATOM      6  C   UNL     1      -0.846  11.304  21.513  0.00  0.00    +0.000 A 
ATOM      7  C   UNL     1       0.109  10.653  20.690  0.00  0.00    +0.000 A 
ENDROOT
BRANCH   6   8
ATOM      8  C   UNL     1      -1.629  12.571  21.101  0.00  0.00    +0.000 C 
ATOM      9  C   UNL     1      -1.384  12.977  19.623  0.00  0.00    +0.000 C 
ATOM     10  N   UNL     1      -3.065  12.264  21.108  0.00  0.00    +0.000 NA
ATOM     11  C   UNL     1      -3.936  12.807  21.872  0.00  0.00    +0.000 C 
ATOM     12  N   UNL     1      -5.247  12.464  21.769  0.00  0.00    +0.000 N 
ATOM     13  S   UNL     1      -3.656  14.038  23.060  0.00  0.00    +0.000 S 
ATOM     14  C   UNL     1      -2.000  14.401  22.838  0.00  0.00    +0.000 C 
ATOM     15  C   UNL     1      -1.196  13.753  21.982  0.00  0.00    +0.000 C 
ATOM     16  C   UNL     1       0.259  14.161  21.915  0.00  0.00    +0.000 C 
ATOM     17  H   UNL     1      -5.487  12.063  20.871  0.00  0.00    +0.000 HD
ATOM     18  H   UNL     1      -5.895  13.155  22.118  0.00  0.00    +0.000 HD
ENDBRANCH   6   8
BRANCH   1  21
ATOM     19  C   UNL     1       1.863   7.478  20.203  0.00  0.00    +0.000 C 
ATOM     20  O   UNL     1       1.254   6.659  20.889  0.00  0.00    +0.000 OA
ATOM     21  N   UNL     1       1.711   8.858  20.259  0.00  0.00    +0.000 N 
ATOM     22  H   UNL     1       2.180   9.395  19.536  0.00  0.00    +0.000 HD
BRANCH  19  26
ATOM     23  C   UNL     1       4.638   5.798  17.583  0.00  0.00    +0.000 A 
ATOM     24  C   UNL     1       3.975   6.980  17.239  0.00  0.00    +0.000 A 
ATOM     25  N   UNL     1       3.048   7.587  18.042  0.00  0.00    +0.000 NA
ATOM     26  C   UNL     1       2.821   6.927  19.209  0.00  0.00    +0.000 A 
ATOM     27  C   UNL     1       3.467   5.735  19.532  0.00  0.00    +0.000 A 
ATOM     28  N   UNL     1       4.387   5.142  18.731  0.00  0.00    +0.000 NA
BRANCH  23  29
ATOM     29  O   UNL     1       5.560   5.278  16.710  0.00  0.00    +0.000 OA
BRANCH  29  30
ATOM     30  C   UNL     1       6.879   5.193  17.271  0.00  0.00    +0.000 C 
BRANCH  30  32
ATOM     31  C   UNL     1       7.773   7.852  17.599  0.00  0.00    +0.000 C 
ATOM     32  C   UNL     1       7.361   6.624  17.448  0.00  0.00    +0.000 C 
ENDBRANCH  30  32
ENDBRANCH  29  30
ENDBRANCH  23  29
ENDBRANCH  19  26
ENDBRANCH   1  21
TORSDOF 6
ENDMDL
MODEL 6
REMARK VINA RESULT:      -7.3      2.002      2.660
REMARK  Name = 
REMARK  8 active torsions:
REMARK  status: ('A' for Active; 'I' for Inactive)
REMARK    1  A    between atoms: C_2  and  C_3
REMARK    2  A    between atoms: C_3  and  O_4
REMARK    3  A    between atoms: O_4  and  C_5
REMARK    4  A    between atoms: C_8  and  C_9
REMARK    5  A    between atoms: N_11  and  C_12
REMARK    6  A    between atoms: C_17  and  C_18
REMARK    7  A    between atoms: C_18  and  C_19
REMARK    8  A    between atoms: C_25  and  C_26
REMARK                            x       y       z     vdW  Elec       q    Type
REMARK                         _______ _______ _______ _____ _____    ______ ____
ROOT
ATOM      1  C   UNL     1       1.305   8.541  20.660  0.00  0.00    +0.000 A 
ATOM      2  C   UNL     1       0.427   8.123  21.665  0.00  0.00    +0.000 A 
ATOM      3  C   UNL     1      -0.449   9.015  22.269  0.00  0.00    +0.000 A 
ATOM      4  C   UNL     1      -0.440  10.347  21.894  0.00  0.00    +0.000 A 
ATOM      5  F   UNL     1      -1.308  11.161  22.508  0.00  0.00    +0.000 F 
ATOM      6  C   UNL     1       0.468  10.843  20.939  0.00  0.00    +0.000 A 
ATOM      7  C   UNL     1       1.343   9.908  20.327  0.00  0.00    +0.000 A 
ENDROOT
BRANCH   6   8
ATOM      8  C   UNL     1       0.482  12.362  20.657  0.00  0.00    +0.000 C 
ATOM      9  C   UNL     1      -0.669  13.118  21.372  0.00  0.00    +0.000 C 
ATOM     10  N   UNL     1       1.677  12.948  21.278  0.00  0.00    +0.000 NA
ATOM     11  C   UNL     1       2.635  13.517  20.651  0.00  0.00    +0.000 C 
ATOM     12  N   UNL     1       3.680  14.052  21.335  0.00  0.00    +0.000 N 
ATOM     13  S   UNL     1       2.762  13.758  18.938  0.00  0.00    +0.000 S 
ATOM     14  C   UNL     1       1.260  13.176  18.368  0.00  0.00    +0.000 C 
ATOM     15  C   UNL     1       0.328  12.606  19.148  0.00  0.00    +0.000 C 
ATOM     16  C   UNL     1      -0.944  12.107  18.499  0.00  0.00    +0.000 C 
ATOM     17  H   UNL     1       3.460  14.266  22.300  0.00  0.00    +0.000 HD
ATOM     18  H   UNL     1       4.188  14.772  20.842  0.00  0.00    +0.000 HD
ENDBRANCH   6   8
BRANCH   1  21
ATOM     19  C   UNL     1       2.244   7.556  18.584  0.00  0.00    +0.000 C 
ATOM     20  O   UNL     1       1.634   8.262  17.783  0.00  0.00    +0.000 OA
ATOM     21  N   UNL     1       2.147   7.629  19.969  0.00  0.00    +0.000 N 
ATOM     22  H   UNL     1       2.814   7.077  20.499  0.00  0.00    +0.000 HD
BRANCH  19  26
ATOM     23  C   UNL     1       4.996   4.942  16.856  0.00  0.00    +0.000 A 
ATOM     24  C   UNL     1       3.819   4.446  17.427  0.00  0.00    +0.000 A 
ATOM     25  N   UNL     1       2.873   5.239  18.017  0.00  0.00    +0.000 NA
ATOM     26  C   UNL     1       3.187   6.562  18.008  0.00  0.00    +0.000 A 
ATOM     27  C   UNL     1       4.374   7.046  17.460  0.00  0.00    +0.000 A 
ATOM     28  N   UNL     1       5.305   6.252  16.873  0.00  0.00    +0.000 NA
BRANCH  23  29
ATOM     29  O   UNL     1       5.874   4.061  16.277  0.00  0.00    +0.000 OA
BRANCH  29  30
ATOM     30  C   UNL     1       6.712   4.674  15.285  0.00  0.00    +0.000 C 
BRANCH  30  32
ATOM     31  C   UNL     1       5.968   3.541  12.808  0.00  0.00    +0.000 C 
ATOM     32  C   UNL     1       6.312   4.064  13.952  0.00  0.00    +0.000 C 
ENDBRANCH  30  32
ENDBRANCH  29  30
ENDBRANCH  23  29
ENDBRANCH  19  26
ENDBRANCH   1  21
TORSDOF 6
ENDMDL
MODEL 7
REMARK VINA RESULT:      -7.3      1.747      2.551
REMARK  Name = 
REMARK  8 active torsions:
REMARK  status: ('A' for Active; 'I' for Inactive)
REMARK    1  A    between atoms: C_2  and  C_3
REMARK    2  A    between atoms: C_3  and  O_4
REMARK    3  A    between atoms: O_4  and  C_5
REMARK    4  A    between atoms: C_8  and  C_9
REMARK    5  A    between atoms: N_11  and  C_12
REMARK    6  A    between atoms: C_17  and  C_18
REMARK    7  A    between atoms: C_18  and  C_19
REMARK    8  A    between atoms: C_25  and  C_26
REMARK                            x       y       z     vdW  Elec       q    Type
REMARK                         _______ _______ _______ _____ _____    ______ ____
ROOT
ATOM      1  C   UNL     1       1.417   8.451  20.129  0.00  0.00    +0.000 A 
ATOM      2  C   UNL     1       0.732   7.853  21.192  0.00  0.00    +0.000 A 
ATOM      3  C   UNL     1      -0.120   8.592  22.002  0.00  0.00    +0.000 A 
ATOM      4  C   UNL     1      -0.278   9.948  21.777  0.00  0.00    +0.000 A 
ATOM      5  F   UNL     1      -1.113  10.609  22.588  0.00  0.00    +0.000 F 
ATOM      6  C   UNL     1       0.437  10.621  20.768  0.00  0.00    +0.000 A 
ATOM      7  C   UNL     1       1.290   9.840  19.945  0.00  0.00    +0.000 A 
ENDROOT
BRANCH   6   8
ATOM      8  C   UNL     1       0.282  12.154  20.654  0.00  0.00    +0.000 C 
ATOM      9  C   UNL     1      -0.858  12.712  21.546  0.00  0.00    +0.000 C 
ATOM     10  N   UNL     1       1.473  12.795  21.229  0.00  0.00    +0.000 NA
ATOM     11  C   UNL     1       2.308  13.519  20.586  0.00  0.00    +0.000 C 
ATOM     12  N   UNL     1       3.361  14.087  21.231  0.00  0.00    +0.000 N 
ATOM     13  S   UNL     1       2.242  13.943  18.906  0.00  0.00    +0.000 S 
ATOM     14  C   UNL     1       0.752  13.270  18.409  0.00  0.00    +0.000 C 
ATOM     15  C   UNL     1      -0.042  12.532  19.201  0.00  0.00    +0.000 C 
ATOM     16  C   UNL     1      -1.319  11.972  18.615  0.00  0.00    +0.000 C 
ATOM     17  H   UNL     1       3.217  14.180  22.229  0.00  0.00    +0.000 HD
ATOM     18  H   UNL     1       3.748  14.901  20.776  0.00  0.00    +0.000 HD
ENDBRANCH   6   8
BRANCH   1  21
ATOM     19  C   UNL     1       2.575   6.367  19.437  0.00  0.00    +0.000 C 
ATOM     20  O   UNL     1       2.235   5.672  20.393  0.00  0.00    +0.000 OA
ATOM     21  N   UNL     1       2.223   7.697  19.235  0.00  0.00    +0.000 N 
ATOM     22  H   UNL     1       2.463   8.096  18.333  0.00  0.00    +0.000 HD
BRANCH  19  26
ATOM     23  C   UNL     1       4.879   4.310  16.636  0.00  0.00    +0.000 A 
ATOM     24  C   UNL     1       4.954   5.704  16.718  0.00  0.00    +0.000 A 
ATOM     25  N   UNL     1       4.225   6.449  17.606  0.00  0.00    +0.000 NA
ATOM     26  C   UNL     1       3.408   5.706  18.399  0.00  0.00    +0.000 A 
ATOM     27  C   UNL     1       3.320   4.319  18.293  0.00  0.00    +0.000 A 
ATOM     28  N   UNL     1       4.049   3.589  17.412  0.00  0.00    +0.000 NA
BRANCH  23  29
ATOM     29  O   UNL     1       5.663   3.658  15.717  0.00  0.00    +0.000 OA
BRANCH  29  30
ATOM     30  C   UNL     1       6.227   4.539  14.734  0.00  0.00    +0.000 C 
BRANCH  30  32
ATOM     31  C   UNL     1       5.902   3.259  12.239  0.00  0.00    +0.000 C 
ATOM     32  C   UNL     1       6.052   3.850  13.391  0.00  0.00    +0.000 C 
ENDBRANCH  30  32
ENDBRANCH  29  30
ENDBRANCH  23  29
ENDBRANCH  19  26
ENDBRANCH   1  21
TORSDOF 6
ENDMDL
MODEL 8
REMARK VINA RESULT:      -7.2      1.698      2.426
REMARK  Name = 
REMARK  8 active torsions:
REMARK  status: ('A' for Active; 'I' for Inactive)
REMARK    1  A    between atoms: C_2  and  C_3
REMARK    2  A    between atoms: C_3  and  O_4
REMARK    3  A    between atoms: O_4  and  C_5
REMARK    4  A    between atoms: C_8  and  C_9
REMARK    5  A    between atoms: N_11  and  C_12
REMARK    6  A    between atoms: C_17  and  C_18
REMARK    7  A    between atoms: C_18  and  C_19
REMARK    8  A    between atoms: C_25  and  C_26
REMARK                            x       y       z     vdW  Elec       q    Type
REMARK                         _______ _______ _______ _____ _____    ______ ____
ROOT
ATOM      1  C   UNL     1       1.228   8.580  20.512  0.00  0.00    +0.000 A 
ATOM      2  C   UNL     1       0.508   8.043  21.583  0.00  0.00    +0.000 A 
ATOM      3  C   UNL     1      -0.321   8.840  22.362  0.00  0.00    +0.000 A 
ATOM      4  C   UNL     1      -0.421  10.195  22.095  0.00  0.00    +0.000 A 
ATOM      5  F   UNL     1      -1.236  10.913  22.877  0.00  0.00    +0.000 F 
ATOM      6  C   UNL     1       0.332  10.807  21.076  0.00  0.00    +0.000 A 
ATOM      7  C   UNL     1       1.161   9.968  20.286  0.00  0.00    +0.000 A 
ENDROOT
BRANCH   6   8
ATOM      8  C   UNL     1       0.243  12.341  20.915  0.00  0.00    +0.000 C 
ATOM      9  C   UNL     1      -0.649  13.009  21.996  0.00  0.00    +0.000 C 
ATOM     10  N   UNL     1       1.562  12.925  21.193  0.00  0.00    +0.000 NA
ATOM     11  C   UNL     1       2.280  13.567  20.351  0.00  0.00    +0.000 C 
ATOM     12  N   UNL     1       3.476  14.090  20.730  0.00  0.00    +0.000 N 
ATOM     13  S   UNL     1       1.883  13.926  18.702  0.00  0.00    +0.000 S 
ATOM     14  C   UNL     1       0.286  13.333  18.565  0.00  0.00    +0.000 C 
ATOM     15  C   UNL     1      -0.361  12.681  19.544  0.00  0.00    +0.000 C 
ATOM     16  C   UNL     1      -1.763  12.183  19.270  0.00  0.00    +0.000 C 
ATOM     17  H   UNL     1       3.553  14.232  21.730  0.00  0.00    +0.000 HD
ATOM     18  H   UNL     1       3.803  14.858  20.161  0.00  0.00    +0.000 HD
ENDBRANCH   6   8
BRANCH   1  21
ATOM     19  C   UNL     1       2.231   6.410  19.847  0.00  0.00    +0.000 C 
ATOM     20  O   UNL     1       1.778   5.736  20.771  0.00  0.00    +0.000 OA
ATOM     21  N   UNL     1       2.012   7.768  19.650  0.00  0.00    +0.000 N 
ATOM     22  H   UNL     1       2.336   8.155  18.769  0.00  0.00    +0.000 HD
BRANCH  19  26
ATOM     23  C   UNL     1       4.553   4.579  16.906  0.00  0.00    +0.000 A 
ATOM     24  C   UNL     1       3.890   3.803  17.862  0.00  0.00    +0.000 A 
ATOM     25  N   UNL     1       3.116   4.330  18.860  0.00  0.00    +0.000 NA
ATOM     26  C   UNL     1       3.057   5.688  18.844  0.00  0.00    +0.000 A 
ATOM     27  C   UNL     1       3.742   6.456  17.905  0.00  0.00    +0.000 A 
ATOM     28  N   UNL     1       4.505   5.924  16.917  0.00  0.00    +0.000 NA
BRANCH  23  29
ATOM     29  O   UNL     1       5.295   3.949  15.939  0.00  0.00    +0.000 OA
BRANCH  29  30
ATOM     30  C   UNL     1       5.812   4.854  14.951  0.00  0.00    +0.000 C 
BRANCH  30  32
ATOM     31  C   UNL     1       6.026   3.375  12.555  0.00  0.00    +0.000 C 
ATOM     32  C   UNL     1       5.927   4.057  13.662  0.00  0.00    +0.000 C 
ENDBRANCH  30  32
ENDBRANCH  29  30
ENDBRANCH  23  29
ENDBRANCH  19  26
ENDBRANCH   1  21
TORSDOF 6
ENDMDL
MODEL 9
REMARK VINA RESULT:      -7.2      1.797      2.641
REMARK  Name = 
REMARK  8 active torsions:
REMARK  status: ('A' for Active; 'I' for Inactive)
REMARK    1  A    between atoms: C_2  and  C_3
REMARK    2  A    between atoms: C_3  and  O_4
REMARK    3  A    between atoms: O_4  and  C_5
REMARK    4  A    between atoms: C_8  and  C_9
REMARK    5  A    between atoms: N_11  and  C_12
REMARK    6  A    between atoms: C_17  and  C_18
REMARK    7  A    between atoms: C_18  and  C_19
REMARK    8  A    between atoms: C_25  and  C_26
REMARK                            x       y       z     vdW  Elec       q    Type
REMARK                         _______ _______ _______ _____ _____    ______ ____
ROOT
ATOM      1  C   UNL     1       0.993   9.035  20.759  0.00  0.00    +0.000 A 
ATOM      2  C   UNL     1       0.320   8.452  21.838  0.00  0.00    +0.000 A 
ATOM      3  C   UNL     1      -0.487   9.212  22.674  0.00  0.00    +0.000 A 
ATOM      4  C   UNL     1      -0.611  10.573  22.460  0.00  0.00    +0.000 A 
ATOM      5  F   UNL     1      -1.404  11.254  23.296  0.00  0.00    +0.000 F 
ATOM      6  C   UNL     1       0.096  11.230  21.435  0.00  0.00    +0.000 A 
ATOM      7  C   UNL     1       0.903  10.429  20.586  0.00  0.00    +0.000 A 
ENDROOT
BRANCH   6   8
ATOM      8  C   UNL     1      -0.016  12.767  21.332  0.00  0.00    +0.000 C 
ATOM      9  C   UNL     1      -0.750  13.400  22.545  0.00  0.00    +0.000 C 
ATOM     10  N   UNL     1       1.329  13.349  21.441  0.00  0.00    +0.000 NA
ATOM     11  C   UNL     1       1.923  14.018  20.527  0.00  0.00    +0.000 C 
ATOM     12  N   UNL     1       3.160  14.535  20.751  0.00  0.00    +0.000 N 
ATOM     13  S   UNL     1       1.301  14.421  18.960  0.00  0.00    +0.000 S 
ATOM     14  C   UNL     1      -0.299  13.825  19.029  0.00  0.00    +0.000 C 
ATOM     15  C   UNL     1      -0.804  13.143  20.068  0.00  0.00    +0.000 C 
ATOM     16  C   UNL     1      -2.230  12.647  19.977  0.00  0.00    +0.000 C 
ATOM     17  H   UNL     1       3.375  14.649  21.734  0.00  0.00    +0.000 HD
ATOM     18  H   UNL     1       3.404  15.320  20.165  0.00  0.00    +0.000 HD
ENDBRANCH   6   8
BRANCH   1  21
ATOM     19  C   UNL     1       1.995   6.901  19.982  0.00  0.00    +0.000 C 
ATOM     20  O   UNL     1       1.586   6.191  20.899  0.00  0.00    +0.000 OA
ATOM     21  N   UNL     1       1.753   8.262  19.840  0.00  0.00    +0.000 N 
ATOM     22  H   UNL     1       2.038   8.683  18.962  0.00  0.00    +0.000 HD
BRANCH  19  26
ATOM     23  C   UNL     1       4.213   4.809  17.138  0.00  0.00    +0.000 A 
ATOM     24  C   UNL     1       4.212   6.208  17.138  0.00  0.00    +0.000 A 
ATOM     25  N   UNL     1       3.505   6.963  18.033  0.00  0.00    +0.000 NA
ATOM     26  C   UNL     1       2.790   6.225  18.924  0.00  0.00    +0.000 A 
ATOM     27  C   UNL     1       2.776   4.832  18.901  0.00  0.00    +0.000 A 
ATOM     28  N   UNL     1       3.483   4.091  18.011  0.00  0.00    +0.000 NA
BRANCH  23  29
ATOM     29  O   UNL     1       4.967   4.147  16.202  0.00  0.00    +0.000 OA
BRANCH  29  30
ATOM     30  C   UNL     1       5.663   5.033  15.313  0.00  0.00    +0.000 C 
BRANCH  30  32
ATOM     31  C   UNL     1       6.156   3.564  12.952  0.00  0.00    +0.000 C 
ATOM     32  C   UNL     1       5.928   4.243  14.042  0.00  0.00    +0.000 C 
ENDBRANCH  30  32
ENDBRANCH  29  30
ENDBRANCH  23  29
ENDBRANCH  19  26
ENDBRANCH   1  21
TORSDOF 6
ENDMDL
