MODEL 1
REMARK VINA RESULT:      -7.2      0.000      0.000
REMARK  Name = 
REMARK  6 active torsions:
REMARK  status: ('A' for Active; 'I' for Inactive)
REMARK    1  A    between atoms: C_2  and  C_16
REMARK    2  A    between atoms: N_3  and  CA_4
REMARK    3  A    between atoms: CA_4  and  C_5
REMARK    4  A    between atoms: CA_4  and  C_13
REMARK    5  A    between atoms: C_5  and  C_6
REMARK    6  A    between atoms: C_13  and  OXT_15
REMARK                            x       y       z     vdW  Elec       q    Type
REMARK                         _______ _______ _______ _____ _____    ______ ____
ROOT
ATOM      1  CA  UNL     1       6.445   6.465  17.225  0.00  0.00    +0.000 C 
ENDROOT
BRANCH   1   4
ATOM      2  O   UNL     1       8.558   7.243  18.921  0.00  0.00    +0.000 OA
ATOM      3  C   UNL     1       8.038   8.096  18.208  0.00  0.00    +0.000 C 
ATOM      4  N   UNL     1       7.017   7.810  17.338  0.00  0.00    +0.000 N 
ATOM      5  H   UNL     1       6.689   8.498  16.665  0.00  0.00    +0.000 HD
BRANCH   3   6
ATOM      6  C   UNL     1       8.508   9.506  18.267  0.00  0.00    +0.000 A 
ATOM      7  C   UNL     1       9.493   9.824  19.212  0.00  0.00    +0.000 A 
ATOM      8  C   UNL     1       9.963  11.134  19.326  0.00  0.00    +0.000 A 
ATOM      9  C   UNL     1       9.442  12.131  18.506  0.00  0.00    +0.000 A 
ATOM     10 CL   UNL     1      10.024  13.743  18.646  0.00  0.00    +0.000 Cl
ATOM     11  C   UNL     1       8.443  11.831  17.581  0.00  0.00    +0.000 A 
ATOM     12  C   UNL     1       7.970  10.519  17.461  0.00  0.00    +0.000 A 
ENDBRANCH   3   6
ENDBRANCH   1   4
BRANCH   1  13
ATOM     13  C   UNL     1       7.423   5.599  16.416  0.00  0.00    +0.000 C 
ATOM     14  O   UNL     1       7.718   5.824  15.247  0.00  0.00    +0.000 OA
BRANCH  13  15
ATOM     15  OXT UNL     1       7.982   4.578  17.106  0.00  0.00    +0.000 OA
ATOM     16  HXT UNL     1       8.707   4.111  16.648  0.00  0.00    +0.000 HD
ENDBRANCH  13  15
ENDBRANCH   1  13
BRANCH   1  17
ATOM     17  C   UNL     1       5.026   6.455  16.617  0.00  0.00    +0.000 C 
BRANCH  17  18
ATOM     18  C   UNL     1       4.092   5.476  17.293  0.00  0.00    +0.000 A 
ATOM     19  C   UNL     1       4.160   4.109  16.997  0.00  0.00    +0.000 A 
ATOM     20  C   UNL     1       3.216   3.226  17.525  0.00  0.00    +0.000 A 
ATOM     21  C   UNL     1       2.204   3.706  18.354  0.00  0.00    +0.000 A 
ATOM     22  I   UNL     1       0.755   2.405  19.075  0.00  0.00    +0.000 I 
ATOM     23  C   UNL     1       2.149   5.060  18.685  0.00  0.00    +0.000 A 
ATOM     24  C   UNL     1       3.095   5.937  18.164  0.00  0.00    +0.000 A 
ENDBRANCH  17  18
ENDBRANCH   1  17
TORSDOF 6
ENDMDL
MODEL 2
REMARK VINA RESULT:      -7.1      5.039      6.426
REMARK  Name = 
REMARK  6 active torsions:
REMARK  status: ('A' for Active; 'I' for Inactive)
REMARK    1  A    between atoms: C_2  and  C_16
REMARK    2  A    between atoms: N_3  and  CA_4
REMARK    3  A    between atoms: CA_4  and  C_5
REMARK    4  A    between atoms: CA_4  and  C_13
REMARK    5  A    between atoms: C_5  and  C_6
REMARK    6  A    between atoms: C_13  and  OXT_15
REMARK                            x       y       z     vdW  Elec       q    Type
REMARK                         _______ _______ _______ _____ _____    ______ ____
ROOT
ATOM      1  CA  UNL     1       3.805   4.174  19.567  0.00  0.00    +0.000 C 
ENDROOT
BRANCH   1   4
ATOM      2  O   UNL     1       6.044   5.590  18.604  0.00  0.00    +0.000 OA
ATOM      3  C   UNL     1       5.446   4.849  17.830  0.00  0.00    +0.000 C 
ATOM      4  N   UNL     1       4.358   4.106  18.211  0.00  0.00    +0.000 N 
ATOM      5  H   UNL     1       3.958   3.402  17.596  0.00  0.00    +0.000 HD
BRANCH   3   6
ATOM      6  C   UNL     1       5.891   4.730  16.415  0.00  0.00    +0.000 A 
ATOM      7  C   UNL     1       5.057   4.036  15.528  0.00  0.00    +0.000 A 
ATOM      8  C   UNL     1       5.428   3.877  14.192  0.00  0.00    +0.000 A 
ATOM      9  C   UNL     1       6.638   4.399  13.742  0.00  0.00    +0.000 A 
ATOM     10 CL   UNL     1       7.093   4.204  12.095  0.00  0.00    +0.000 Cl
ATOM     11  C   UNL     1       7.488   5.068  14.622  0.00  0.00    +0.000 A 
ATOM     12  C   UNL     1       7.119   5.232  15.963  0.00  0.00    +0.000 A 
ENDBRANCH   3   6
ENDBRANCH   1   4
BRANCH   1  13
ATOM     13  C   UNL     1       3.999   2.801  20.229  0.00  0.00    +0.000 C 
ATOM     14  O   UNL     1       3.302   2.388  21.149  0.00  0.00    +0.000 OA
BRANCH  13  15
ATOM     15  OXT UNL     1       4.983   2.044  19.689  0.00  0.00    +0.000 OA
ATOM     16  HXT UNL     1       5.119   1.174  20.108  0.00  0.00    +0.000 HD
ENDBRANCH  13  15
ENDBRANCH   1  13
BRANCH   1  17
ATOM     17  C   UNL     1       2.330   4.629  19.602  0.00  0.00    +0.000 C 
BRANCH  17  18
ATOM     18  C   UNL     1       2.163   6.128  19.483  0.00  0.00    +0.000 A 
ATOM     19  C   UNL     1       1.713   6.882  20.574  0.00  0.00    +0.000 A 
ATOM     20  C   UNL     1       1.440   8.243  20.425  0.00  0.00    +0.000 A 
ATOM     21  C   UNL     1       1.620   8.855  19.186  0.00  0.00    +0.000 A 
ATOM     22  I   UNL     1       1.138  10.860  18.945  0.00  0.00    +0.000 I 
ATOM     23  C   UNL     1       2.103   8.122  18.102  0.00  0.00    +0.000 A 
ATOM     24  C   UNL     1       2.382   6.767  18.255  0.00  0.00    +0.000 A 
ENDBRANCH  17  18
ENDBRANCH   1  17
TORSDOF 6
ENDMDL
MODEL 3
REMARK VINA RESULT:      -7.0      5.105      6.521
REMARK  Name = 
REMARK  6 active torsions:
REMARK  status: ('A' for Active; 'I' for Inactive)
REMARK    1  A    between atoms: C_2  and  C_16
REMARK    2  A    between atoms: N_3  and  CA_4
REMARK    3  A    between atoms: CA_4  and  C_5
REMARK    4  A    between atoms: CA_4  and  C_13
REMARK    5  A    between atoms: C_5  and  C_6
REMARK    6  A    between atoms: C_13  and  OXT_15
REMARK                            x       y       z     vdW  Elec       q    Type
REMARK                         _______ _______ _______ _____ _____    ______ ____
ROOT
ATOM      1  CA  UNL     1       2.762   3.969  19.380  0.00  0.00    +0.000 C 
ENDROOT
BRANCH   1   4
ATOM      2  O   UNL     1       5.552   3.642  19.142  0.00  0.00    +0.000 OA
ATOM      3  C   UNL     1       4.924   4.026  18.159  0.00  0.00    +0.000 C 
ATOM      4  N   UNL     1       3.563   4.196  18.173  0.00  0.00    +0.000 N 
ATOM      5  H   UNL     1       3.046   4.387  17.318  0.00  0.00    +0.000 HD
BRANCH   3   6
ATOM      6  C   UNL     1       5.636   4.328  16.889  0.00  0.00    +0.000 A 
ATOM      7  C   UNL     1       4.944   4.114  15.689  0.00  0.00    +0.000 A 
ATOM      8  C   UNL     1       5.564   4.364  14.464  0.00  0.00    +0.000 A 
ATOM      9  C   UNL     1       6.881   4.817  14.434  0.00  0.00    +0.000 A 
ATOM     10 CL   UNL     1       7.643   5.127  12.923  0.00  0.00    +0.000 Cl
ATOM     11  C   UNL     1       7.587   5.009  15.620  0.00  0.00    +0.000 A 
ATOM     12  C   UNL     1       6.968   4.761  16.852  0.00  0.00    +0.000 A 
ENDBRANCH   3   6
ENDBRANCH   1   4
BRANCH   1  13
ATOM     13  C   UNL     1       1.299   3.780  18.950  0.00  0.00    +0.000 C 
ATOM     14  O   UNL     1       0.922   3.845  17.785  0.00  0.00    +0.000 OA
BRANCH  13  15
ATOM     15  OXT UNL     1       0.444   3.488  19.958  0.00  0.00    +0.000 OA
ATOM     16  HXT UNL     1      -0.458   3.846  19.859  0.00  0.00    +0.000 HD
ENDBRANCH  13  15
ENDBRANCH   1  13
BRANCH   1  17
ATOM     17  C   UNL     1       2.915   5.088  20.433  0.00  0.00    +0.000 C 
BRANCH  17  18
ATOM     18  C   UNL     1       2.324   6.408  19.994  0.00  0.00    +0.000 A 
ATOM     19  C   UNL     1       2.654   6.956  18.748  0.00  0.00    +0.000 A 
ATOM     20  C   UNL     1       2.208   8.232  18.399  0.00  0.00    +0.000 A 
ATOM     21  C   UNL     1       1.426   8.962  19.291  0.00  0.00    +0.000 A 
ATOM     22  I   UNL     1       0.829  10.890  18.803  0.00  0.00    +0.000 I 
ATOM     23  C   UNL     1       1.059   8.411  20.519  0.00  0.00    +0.000 A 
ATOM     24  C   UNL     1       1.499   7.137  20.863  0.00  0.00    +0.000 A 
ENDBRANCH  17  18
ENDBRANCH   1  17
TORSDOF 6
ENDMDL
MODEL 4
REMARK VINA RESULT:      -7.0      5.122      6.461
REMARK  Name = 
REMARK  6 active torsions:
REMARK  status: ('A' for Active; 'I' for Inactive)
REMARK    1  A    between atoms: C_2  and  C_16
REMARK    2  A    between atoms: N_3  and  CA_4
REMARK    3  A    between atoms: CA_4  and  C_5
REMARK    4  A    between atoms: CA_4  and  C_13
REMARK    5  A    between atoms: C_5  and  C_6
REMARK    6  A    between atoms: C_13  and  OXT_15
REMARK                            x       y       z     vdW  Elec       q    Type
REMARK                         _______ _______ _______ _____ _____    ______ ____
ROOT
ATOM      1  CA  UNL     1       2.712   3.822  19.514  0.00  0.00    +0.000 C 
ENDROOT
BRANCH   1   4
ATOM      2  O   UNL     1       5.515   3.697  19.249  0.00  0.00    +0.000 OA
ATOM      3  C   UNL     1       4.847   3.969  18.256  0.00  0.00    +0.000 C 
ATOM      4  N   UNL     1       3.477   4.036  18.282  0.00  0.00    +0.000 N 
ATOM      5  H   UNL     1       2.937   4.133  17.427  0.00  0.00    +0.000 HD
BRANCH   3   6
ATOM      6  C   UNL     1       5.518   4.247  16.957  0.00  0.00    +0.000 A 
ATOM      7  C   UNL     1       6.865   4.632  16.990  0.00  0.00    +0.000 A 
ATOM      8  C   UNL     1       7.544   4.921  15.806  0.00  0.00    +0.000 A 
ATOM      9  C   UNL     1       6.876   4.838  14.586  0.00  0.00    +0.000 A 
ATOM     10 CL   UNL     1       7.716   5.192  13.128  0.00  0.00    +0.000 Cl
ATOM     11  C   UNL     1       5.529   4.481  14.544  0.00  0.00    +0.000 A 
ATOM     12  C   UNL     1       4.844   4.188  15.729  0.00  0.00    +0.000 A 
ENDBRANCH   3   6
ENDBRANCH   1   4
BRANCH   1  13
ATOM     13  C   UNL     1       1.242   3.597  19.126  0.00  0.00    +0.000 C 
ATOM     14  O   UNL     1       0.843   3.577  17.967  0.00  0.00    +0.000 OA
BRANCH  13  15
ATOM     15  OXT UNL     1       0.407   3.374  20.169  0.00  0.00    +0.000 OA
ATOM     16  HXT UNL     1       0.826   3.001  20.967  0.00  0.00    +0.000 HD
ENDBRANCH  13  15
ENDBRANCH   1  13
BRANCH   1  17
ATOM     17  C   UNL     1       2.870   4.968  20.537  0.00  0.00    +0.000 C 
BRANCH  17  18
ATOM     18  C   UNL     1       2.322   6.289  20.045  0.00  0.00    +0.000 A 
ATOM     19  C   UNL     1       2.681   6.784  18.785  0.00  0.00    +0.000 A 
ATOM     20  C   UNL     1       2.276   8.059  18.387  0.00  0.00    +0.000 A 
ATOM     21  C   UNL     1       1.507   8.842  19.245  0.00  0.00    +0.000 A 
ATOM     22  I   UNL     1       0.972  10.768  18.684  0.00  0.00    +0.000 I 
ATOM     23  C   UNL     1       1.112   8.345  20.487  0.00  0.00    +0.000 A 
ATOM     24  C   UNL     1       1.511   7.072  20.880  0.00  0.00    +0.000 A 
ENDBRANCH  17  18
ENDBRANCH   1  17
TORSDOF 6
ENDMDL
MODEL 5
REMARK VINA RESULT:      -6.9      5.390      6.847
REMARK  Name = 
REMARK  6 active torsions:
REMARK  status: ('A' for Active; 'I' for Inactive)
REMARK    1  A    between atoms: C_2  and  C_16
REMARK    2  A    between atoms: N_3  and  CA_4
REMARK    3  A    between atoms: CA_4  and  C_5
REMARK    4  A    between atoms: CA_4  and  C_13
REMARK    5  A    between atoms: C_5  and  C_6
REMARK    6  A    between atoms: C_13  and  OXT_15
REMARK                            x       y       z     vdW  Elec       q    Type
REMARK                         _______ _______ _______ _____ _____    ______ ____
ROOT
ATOM      1  CA  UNL     1       2.623   4.486  20.190  0.00  0.00    +0.000 C 
ENDROOT
BRANCH   1   4
ATOM      2  O   UNL     1       2.414   6.718  18.481  0.00  0.00    +0.000 OA
ATOM      3  C   UNL     1       2.056   6.842  19.648  0.00  0.00    +0.000 C 
ATOM      4  N   UNL     1       2.103   5.809  20.549  0.00  0.00    +0.000 N 
ATOM      5  H   UNL     1       1.682   5.893  21.471  0.00  0.00    +0.000 HD
BRANCH   3   6
ATOM      6  C   UNL     1       1.548   8.152  20.139  0.00  0.00    +0.000 A 
ATOM      7  C   UNL     1       1.229   8.257  21.499  0.00  0.00    +0.000 A 
ATOM      8  C   UNL     1       0.733   9.455  22.016  0.00  0.00    +0.000 A 
ATOM      9  C   UNL     1       0.542  10.547  21.172  0.00  0.00    +0.000 A 
ATOM     10 CL   UNL     1      -0.068  12.023  21.811  0.00  0.00    +0.000 Cl
ATOM     11  C   UNL     1       0.830  10.444  19.812  0.00  0.00    +0.000 A 
ATOM     12  C   UNL     1       1.330   9.246  19.290  0.00  0.00    +0.000 A 
ENDBRANCH   3   6
ENDBRANCH   1   4
BRANCH   1  13
ATOM     13  C   UNL     1       1.990   3.454  21.136  0.00  0.00    +0.000 C 
ATOM     14  O   UNL     1       2.584   2.950  22.083  0.00  0.00    +0.000 OA
BRANCH  13  15
ATOM     15  OXT UNL     1       0.693   3.166  20.876  0.00  0.00    +0.000 OA
ATOM     16  HXT UNL     1       0.541   2.350  20.364  0.00  0.00    +0.000 HD
ENDBRANCH  13  15
ENDBRANCH   1  13
BRANCH   1  17
ATOM     17  C   UNL     1       4.166   4.414  20.204  0.00  0.00    +0.000 C 
BRANCH  17  18
ATOM     18  C   UNL     1       4.773   4.309  18.823  0.00  0.00    +0.000 A 
ATOM     19  C   UNL     1       6.068   4.781  18.578  0.00  0.00    +0.000 A 
ATOM     20  C   UNL     1       6.577   4.799  17.278  0.00  0.00    +0.000 A 
ATOM     21  C   UNL     1       5.795   4.341  16.220  0.00  0.00    +0.000 A 
ATOM     22  I   UNL     1       6.523   4.442  14.278  0.00  0.00    +0.000 I 
ATOM     23  C   UNL     1       4.517   3.834  16.458  0.00  0.00    +0.000 A 
ATOM     24  C   UNL     1       4.014   3.810  17.755  0.00  0.00    +0.000 A 
ENDBRANCH  17  18
ENDBRANCH   1  17
TORSDOF 6
ENDMDL
MODEL 6
REMARK VINA RESULT:      -6.9      0.907      1.826
REMARK  Name = 
REMARK  6 active torsions:
REMARK  status: ('A' for Active; 'I' for Inactive)
REMARK    1  A    between atoms: C_2  and  C_16
REMARK    2  A    between atoms: N_3  and  CA_4
REMARK    3  A    between atoms: CA_4  and  C_5
REMARK    4  A    between atoms: CA_4  and  C_13
REMARK    5  A    between atoms: C_5  and  C_6
REMARK    6  A    between atoms: C_13  and  OXT_15
REMARK                            x       y       z     vdW  Elec       q    Type
REMARK                         _______ _______ _______ _____ _____    ______ ____
ROOT
ATOM      1  CA  UNL     1       6.116   6.412  17.116  0.00  0.00    +0.000 C 
ENDROOT
BRANCH   1   4
ATOM      2  O   UNL     1       8.306   6.984  18.796  0.00  0.00    +0.000 OA
ATOM      3  C   UNL     1       7.815   7.902  18.145  0.00  0.00    +0.000 C 
ATOM      4  N   UNL     1       6.761   7.718  17.288  0.00  0.00    +0.000 N 
ATOM      5  H   UNL     1       6.453   8.458  16.662  0.00  0.00    +0.000 HD
BRANCH   3   6
ATOM      6  C   UNL     1       8.360   9.281  18.270  0.00  0.00    +0.000 A 
ATOM      7  C   UNL     1       7.855  10.260  17.403  0.00  0.00    +0.000 A 
ATOM      8  C   UNL     1       8.338  11.568  17.461  0.00  0.00    +0.000 A 
ATOM      9  C   UNL     1       9.335  11.899  18.375  0.00  0.00    +0.000 A 
ATOM     10 CL   UNL     1       9.927  13.512  18.446  0.00  0.00    +0.000 Cl
ATOM     11  C   UNL     1       9.863  10.927  19.223  0.00  0.00    +0.000 A 
ATOM     12  C   UNL     1       9.380   9.614  19.171  0.00  0.00    +0.000 A 
ENDBRANCH   3   6
ENDBRANCH   1   4
BRANCH   1  13
ATOM     13  C   UNL     1       6.818   5.686  15.958  0.00  0.00    +0.000 C 
ATOM     14  O   UNL     1       7.763   4.920  16.112  0.00  0.00    +0.000 OA
BRANCH  13  15
ATOM     15  OXT UNL     1       6.284   5.917  14.736  0.00  0.00    +0.000 OA
ATOM     16  HXT UNL     1       5.492   5.390  14.519  0.00  0.00    +0.000 HD
ENDBRANCH  13  15
ENDBRANCH   1  13
BRANCH   1  17
ATOM     17  C   UNL     1       4.591   6.509  16.898  0.00  0.00    +0.000 C 
BRANCH  17  18
ATOM     18  C   UNL     1       3.794   5.656  17.859  0.00  0.00    +0.000 A 
ATOM     19  C   UNL     1       3.025   6.250  18.868  0.00  0.00    +0.000 A 
ATOM     20  C   UNL     1       2.393   5.460  19.830  0.00  0.00    +0.000 A 
ATOM     21  C   UNL     1       2.523   4.074  19.785  0.00  0.00    +0.000 A 
ATOM     22  I   UNL     1       1.649   2.905  21.261  0.00  0.00    +0.000 I 
ATOM     23  C   UNL     1       3.256   3.470  18.763  0.00  0.00    +0.000 A 
ATOM     24  C   UNL     1       3.880   4.258  17.801  0.00  0.00    +0.000 A 
ENDBRANCH  17  18
ENDBRANCH   1  17
TORSDOF 6
ENDMDL
MODEL 7
REMARK VINA RESULT:      -6.9      5.070      6.354
REMARK  Name = 
REMARK  6 active torsions:
REMARK  status: ('A' for Active; 'I' for Inactive)
REMARK    1  A    between atoms: C_2  and  C_16
REMARK    2  A    between atoms: N_3  and  CA_4
REMARK    3  A    between atoms: CA_4  and  C_5
REMARK    4  A    between atoms: CA_4  and  C_13
REMARK    5  A    between atoms: C_5  and  C_6
REMARK    6  A    between atoms: C_13  and  OXT_15
REMARK                            x       y       z     vdW  Elec       q    Type
REMARK                         _______ _______ _______ _____ _____    ______ ____
ROOT
ATOM      1  CA  UNL     1       3.818   4.047  19.928  0.00  0.00    +0.000 C 
ENDROOT
BRANCH   1   4
ATOM      2  O   UNL     1       6.349   4.910  19.035  0.00  0.00    +0.000 OA
ATOM      3  C   UNL     1       5.548   4.493  18.203  0.00  0.00    +0.000 C 
ATOM      4  N   UNL     1       4.301   4.035  18.544  0.00  0.00    +0.000 N 
ATOM      5  H   UNL     1       3.703   3.574  17.862  0.00  0.00    +0.000 HD
BRANCH   3   6
ATOM      6  C   UNL     1       5.911   4.472  16.761  0.00  0.00    +0.000 A 
ATOM      7  C   UNL     1       7.204   4.886  16.410  0.00  0.00    +0.000 A 
ATOM      8  C   UNL     1       7.598   4.903  15.071  0.00  0.00    +0.000 A 
ATOM      9  C   UNL     1       6.700   4.520  14.079  0.00  0.00    +0.000 A 
ATOM     10 CL   UNL     1       7.188   4.539  12.430  0.00  0.00    +0.000 Cl
ATOM     11  C   UNL     1       5.403   4.132  14.415  0.00  0.00    +0.000 A 
ATOM     12  C   UNL     1       5.003   4.110  15.756  0.00  0.00    +0.000 A 
ENDBRANCH   3   6
ENDBRANCH   1   4
BRANCH   1  13
ATOM     13  C   UNL     1       4.011   2.639  20.511  0.00  0.00    +0.000 C 
ATOM     14  O   UNL     1       3.395   2.218  21.484  0.00  0.00    +0.000 OA
BRANCH  13  15
ATOM     15  OXT UNL     1       4.893   1.862  19.838  0.00  0.00    +0.000 OA
ATOM     16  HXT UNL     1       4.597   0.950  19.661  0.00  0.00    +0.000 HD
ENDBRANCH  13  15
ENDBRANCH   1  13
BRANCH   1  17
ATOM     17  C   UNL     1       2.358   4.533  20.061  0.00  0.00    +0.000 C 
BRANCH  17  18
ATOM     18  C   UNL     1       2.193   6.013  19.800  0.00  0.00    +0.000 A 
ATOM     19  C   UNL     1       1.675   6.857  20.790  0.00  0.00    +0.000 A 
ATOM     20  C   UNL     1       1.406   8.196  20.504  0.00  0.00    +0.000 A 
ATOM     21  C   UNL     1       1.659   8.698  19.229  0.00  0.00    +0.000 A 
ATOM     22  I   UNL     1       1.185  10.670  18.782  0.00  0.00    +0.000 I 
ATOM     23  C   UNL     1       2.210   7.876  18.246  0.00  0.00    +0.000 A 
ATOM     24  C   UNL     1       2.484   6.543  18.535  0.00  0.00    +0.000 A 
ENDBRANCH  17  18
ENDBRANCH   1  17
TORSDOF 6
ENDMDL
MODEL 8
REMARK VINA RESULT:      -6.9      4.901      6.149
REMARK  Name = 
REMARK  6 active torsions:
REMARK  status: ('A' for Active; 'I' for Inactive)
REMARK    1  A    between atoms: C_2  and  C_16
REMARK    2  A    between atoms: N_3  and  CA_4
REMARK    3  A    between atoms: CA_4  and  C_5
REMARK    4  A    between atoms: CA_4  and  C_13
REMARK    5  A    between atoms: C_5  and  C_6
REMARK    6  A    between atoms: C_13  and  OXT_15
REMARK                            x       y       z     vdW  Elec       q    Type
REMARK                         _______ _______ _______ _____ _____    ______ ____
ROOT
ATOM      1  CA  UNL     1       4.419   3.206  19.646  0.00  0.00    +0.000 C 
ENDROOT
BRANCH   1   4
ATOM      2  O   UNL     1       6.168   5.217  18.727  0.00  0.00    +0.000 OA
ATOM      3  C   UNL     1       5.754   4.391  17.919  0.00  0.00    +0.000 C 
ATOM      4  N   UNL     1       4.915   3.366  18.275  0.00  0.00    +0.000 N 
ATOM      5  H   UNL     1       4.688   2.618  17.624  0.00  0.00    +0.000 HD
BRANCH   3   6
ATOM      6  C   UNL     1       6.157   4.476  16.490  0.00  0.00    +0.000 A 
ATOM      7  C   UNL     1       5.491   3.647  15.576  0.00  0.00    +0.000 A 
ATOM      8  C   UNL     1       5.835   3.671  14.224  0.00  0.00    +0.000 A 
ATOM      9  C   UNL     1       6.853   4.512  13.782  0.00  0.00    +0.000 A 
ATOM     10 CL   UNL     1       7.275   4.541  12.115  0.00  0.00    +0.000 Cl
ATOM     11  C   UNL     1       7.540   5.321  14.687  0.00  0.00    +0.000 A 
ATOM     12  C   UNL     1       7.197   5.303  16.044  0.00  0.00    +0.000 A 
ENDBRANCH   3   6
ENDBRANCH   1   4
BRANCH   1  13
ATOM     13  C   UNL     1       4.808   1.801  20.131  0.00  0.00    +0.000 C 
ATOM     14  O   UNL     1       5.236   1.568  21.256  0.00  0.00    +0.000 OA
BRANCH  13  15
ATOM     15  OXT UNL     1       4.602   0.812  19.230  0.00  0.00    +0.000 OA
ATOM     16  HXT UNL     1       5.258   0.761  18.509  0.00  0.00    +0.000 HD
ENDBRANCH  13  15
ENDBRANCH   1  13
BRANCH   1  17
ATOM     17  C   UNL     1       2.903   3.465  19.780  0.00  0.00    +0.000 C 
BRANCH  17  18
ATOM     18  C   UNL     1       2.501   4.875  19.410  0.00  0.00    +0.000 A 
ATOM     19  C   UNL     1       2.320   5.235  18.069  0.00  0.00    +0.000 A 
ATOM     20  C   UNL     1       2.074   6.565  17.723  0.00  0.00    +0.000 A 
ATOM     21  C   UNL     1       2.003   7.539  18.717  0.00  0.00    +0.000 A 
ATOM     22  I   UNL     1       1.716   9.528  18.195  0.00  0.00    +0.000 I 
ATOM     23  C   UNL     1       2.145   7.186  20.059  0.00  0.00    +0.000 A 
ATOM     24  C   UNL     1       2.383   5.859  20.403  0.00  0.00    +0.000 A 
ENDBRANCH  17  18
ENDBRANCH   1  17
TORSDOF 6
ENDMDL
MODEL 9
REMARK VINA RESULT:      -6.9      5.193      6.544
REMARK  Name = 
REMARK  6 active torsions:
REMARK  status: ('A' for Active; 'I' for Inactive)
REMARK    1  A    between atoms: C_2  and  C_16
REMARK    2  A    between atoms: N_3  and  CA_4
REMARK    3  A    between atoms: CA_4  and  C_5
REMARK    4  A    between atoms: CA_4  and  C_13
REMARK    5  A    between atoms: C_5  and  C_6
REMARK    6  A    between atoms: C_13  and  OXT_15
REMARK                            x       y       z     vdW  Elec       q    Type
REMARK                         _______ _______ _______ _____ _____    ______ ____
ROOT
ATOM      1  CA  UNL     1       4.828   5.507  18.072  0.00  0.00    +0.000 C 
ENDROOT
BRANCH   1   4
ATOM      2  O   UNL     1       6.565   6.688  16.193  0.00  0.00    +0.000 OA
ATOM      3  C   UNL     1       6.063   5.602  15.920  0.00  0.00    +0.000 C 
ATOM      4  N   UNL     1       5.221   4.941  16.778  0.00  0.00    +0.000 N 
ATOM      5  H   UNL     1       4.921   3.987  16.592  0.00  0.00    +0.000 HD
BRANCH   3   6
ATOM      6  C   UNL     1       6.357   4.950  14.616  0.00  0.00    +0.000 A 
ATOM      7  C   UNL     1       5.490   3.935  14.187  0.00  0.00    +0.000 A 
ATOM      8  C   UNL     1       5.722   3.275  12.979  0.00  0.00    +0.000 A 
ATOM      9  C   UNL     1       6.827   3.617  12.203  0.00  0.00    +0.000 A 
ATOM     10 CL   UNL     1       7.110   2.804  10.715  0.00  0.00    +0.000 Cl
ATOM     11  C   UNL     1       7.710   4.607  12.633  0.00  0.00    +0.000 A 
ATOM     12  C   UNL     1       7.480   5.274  13.842  0.00  0.00    +0.000 A 
ENDBRANCH   3   6
ENDBRANCH   1   4
BRANCH   1  13
ATOM     13  C   UNL     1       5.654   4.810  19.165  0.00  0.00    +0.000 C 
ATOM     14  O   UNL     1       6.499   5.383  19.844  0.00  0.00    +0.000 OA
BRANCH  13  15
ATOM     15  OXT UNL     1       5.350   3.506  19.362  0.00  0.00    +0.000 OA
ATOM     16  HXT UNL     1       4.875   3.308  20.190  0.00  0.00    +0.000 HD
ENDBRANCH  13  15
ENDBRANCH   1  13
BRANCH   1  17
ATOM     17  C   UNL     1       3.311   5.410  18.344  0.00  0.00    +0.000 C 
BRANCH  17  18
ATOM     18  C   UNL     1       2.698   6.720  18.787  0.00  0.00    +0.000 A 
ATOM     19  C   UNL     1       2.211   6.872  20.091  0.00  0.00    +0.000 A 
ATOM     20  C   UNL     1       1.533   8.036  20.459  0.00  0.00    +0.000 A 
ATOM     21  C   UNL     1       1.345   9.053  19.526  0.00  0.00    +0.000 A 
ATOM     22  I   UNL     1       0.268  10.749  20.051  0.00  0.00    +0.000 I 
ATOM     23  C   UNL     1       1.859   8.928  18.235  0.00  0.00    +0.000 A 
ATOM     24  C   UNL     1       2.540   7.771  17.873  0.00  0.00    +0.000 A 
ENDBRANCH  17  18
ENDBRANCH   1  17
TORSDOF 6
ENDMDL
