MODEL 1
REMARK VINA RESULT:      -9.1      0.000      0.000
REMARK  Name = 
REMARK  7 active torsions:
REMARK  status: ('A' for Active; 'I' for Inactive)
REMARK    1  A    between atoms: N_5  and  C_6
REMARK    2  A    between atoms: C_6  and  C_7
REMARK    3  A    between atoms: C_7  and  N_8
REMARK    4  A    between atoms: C_10  and  C_11
REMARK    5  A    between atoms: C_11  and  O_12
REMARK    6  A    between atoms: O_12  and  C_13
REMARK    7  A    between atoms: C_29  and  N_30
REMARK                            x       y       z     vdW  Elec       q    Type
REMARK                         _______ _______ _______ _____ _____    ______ ____
ROOT
ATOM      1  N   UNL     1       1.237   8.839  19.967  0.00  0.00    +0.000 N 
ATOM      2  C   UNL     1       0.858  10.132  19.782  0.00  0.00    +0.000 A 
ATOM      3  C   UNL     1       0.178  10.453  20.932  0.00  0.00    +0.000 A 
ATOM      4  N   UNL     1       0.147   9.356  21.752  0.00  0.00    +0.000 NA
ATOM      5  N   UNL     1       0.792   8.368  21.146  0.00  0.00    +0.000 NA
ENDROOT
BRANCH   1   6
ATOM      6  C   UNL     1       1.946   7.986  19.038  0.00  0.00    +0.000 C 
BRANCH   6   7
ATOM      7  C   UNL     1       2.613   6.770  19.697  0.00  0.00    +0.000 C 
BRANCH   7  12
ATOM      8  O   UNL     1       2.308   2.546  17.245  0.00  0.00    +0.000 OA
ATOM      9  C   UNL     1       2.688   3.619  17.646  0.00  0.00    +0.000 C 
ATOM     10  C   UNL     1       2.087   4.478  18.791  0.00  0.00    +0.000 C 
ATOM     11  O   UNL     1       1.184   4.134  19.510  0.00  0.00    +0.000 OA
ATOM     12  N   UNL     1       2.824   5.661  18.787  0.00  0.00    +0.000 N 
ATOM     13  C   UNL     1       3.833   5.612  17.809  0.00  0.00    +0.000 A 
ATOM     14  C   UNL     1       4.788   6.565  17.500  0.00  0.00    +0.000 A 
ATOM     15  C   UNL     1       5.715   6.265  16.491  0.00  0.00    +0.000 A 
ATOM     16  C   UNL     1       5.670   5.023  15.812  0.00  0.00    +0.000 A 
ATOM     17  C   UNL     1       4.696   4.067  16.117  0.00  0.00    +0.000 A 
ATOM     18  C   UNL     1       3.801   4.400  17.115  0.00  0.00    +0.000 A 
BRANCH  16  19
ATOM     19  N   UNL     1       6.668   4.722  14.775  0.00  0.00    +0.000 N 
ATOM     20  O   UNL     1       7.733   5.357  14.806  0.00  0.00    +0.000 OA
ATOM     21  O   UNL     1       6.386   3.855  13.942  0.00  0.00    +0.000 OA
ENDBRANCH  16  19
ENDBRANCH   7  12
ENDBRANCH   6   7
ENDBRANCH   1   6
BRANCH   3  22
ATOM     22  C   UNL     1      -0.464  11.735  21.295  0.00  0.00    +0.000 C 
BRANCH  22  23
ATOM     23  O   UNL     1      -1.014  12.350  20.131  0.00  0.00    +0.000 OA
BRANCH  23  24
ATOM     24  C   UNL     1      -2.380  12.340  19.978  0.00  0.00    +0.000 A 
ATOM     25  C   UNL     1      -3.280  12.762  20.874  0.00  0.00    +0.000 A 
ATOM     26  C   UNL     1      -4.724  12.737  20.614  0.00  0.00    +0.000 A 
ATOM     27  O   UNL     1      -5.504  13.223  21.426  0.00  0.00    +0.000 OA
ATOM     28  O   UNL     1      -5.148  12.149  19.435  0.00  0.00    +0.000 OA
ATOM     29  C   UNL     1      -4.220  11.714  18.471  0.00  0.00    +0.000 A 
ATOM     30  C   UNL     1      -4.740  11.191  17.288  0.00  0.00    +0.000 A 
ATOM     31  C   UNL     1      -3.867  10.781  16.282  0.00  0.00    +0.000 A 
ATOM     32  C   UNL     1      -2.490  10.907  16.463  0.00  0.00    +0.000 A 
ATOM     33  C   UNL     1      -1.983  11.422  17.661  0.00  0.00    +0.000 A 
ATOM     34  C   UNL     1      -2.848  11.821  18.689  0.00  0.00    +0.000 A 
ENDBRANCH  23  24
ENDBRANCH  22  23
ENDBRANCH   3  22
TORSDOF 7
ENDMDL
MODEL 2
REMARK VINA RESULT:      -9.0      5.203      9.819
REMARK  Name = 
REMARK  7 active torsions:
REMARK  status: ('A' for Active; 'I' for Inactive)
REMARK    1  A    between atoms: N_5  and  C_6
REMARK    2  A    between atoms: C_6  and  C_7
REMARK    3  A    between atoms: C_7  and  N_8
REMARK    4  A    between atoms: C_10  and  C_11
REMARK    5  A    between atoms: C_11  and  O_12
REMARK    6  A    between atoms: O_12  and  C_13
REMARK    7  A    between atoms: C_29  and  N_30
REMARK                            x       y       z     vdW  Elec       q    Type
REMARK                         _______ _______ _______ _____ _____    ______ ____
ROOT
ATOM      1  N   UNL     1       6.868   5.841  17.721  0.00  0.00    +0.000 N 
ATOM      2  C   UNL     1       6.857   7.070  17.139  0.00  0.00    +0.000 A 
ATOM      3  C   UNL     1       7.770   7.797  17.864  0.00  0.00    +0.000 A 
ATOM      4  N   UNL     1       8.278   7.006  18.860  0.00  0.00    +0.000 NA
ATOM      5  N   UNL     1       7.711   5.810  18.769  0.00  0.00    +0.000 NA
ENDROOT
BRANCH   1   6
ATOM      6  C   UNL     1       6.054   4.696  17.379  0.00  0.00    +0.000 C 
BRANCH   6   7
ATOM      7  C   UNL     1       4.592   5.045  17.061  0.00  0.00    +0.000 C 
BRANCH   7  12
ATOM      8  O   UNL     1       2.234   4.706  21.335  0.00  0.00    +0.000 OA
ATOM      9  C   UNL     1       2.635   5.109  20.271  0.00  0.00    +0.000 C 
ATOM     10  C   UNL     1       3.533   4.368  19.245  0.00  0.00    +0.000 C 
ATOM     11  O   UNL     1       3.890   3.221  19.344  0.00  0.00    +0.000 OA
ATOM     12  N   UNL     1       3.788   5.299  18.240  0.00  0.00    +0.000 N 
ATOM     13  C   UNL     1       3.117   6.506  18.503  0.00  0.00    +0.000 A 
ATOM     14  C   UNL     1       3.088   7.665  17.747  0.00  0.00    +0.000 A 
ATOM     15  C   UNL     1       2.312   8.737  18.212  0.00  0.00    +0.000 A 
ATOM     16  C   UNL     1       1.581   8.631  19.421  0.00  0.00    +0.000 A 
ATOM     17  C   UNL     1       1.622   7.463  20.189  0.00  0.00    +0.000 A 
ATOM     18  C   UNL     1       2.398   6.432  19.698  0.00  0.00    +0.000 A 
BRANCH  16  19
ATOM     19  N   UNL     1       0.755   9.758  19.875  0.00  0.00    +0.000 N 
ATOM     20  O   UNL     1       1.250  10.524  20.719  0.00  0.00    +0.000 OA
ATOM     21  O   UNL     1      -0.372   9.878  19.388  0.00  0.00    +0.000 OA
ENDBRANCH  16  19
ENDBRANCH   7  12
ENDBRANCH   6   7
ENDBRANCH   1   6
BRANCH   3  22
ATOM     22  C   UNL     1       8.177   9.207  17.684  0.00  0.00    +0.000 C 
BRANCH  22  23
ATOM     23  O   UNL     1       8.883   9.661  18.838  0.00  0.00    +0.000 OA
BRANCH  23  24
ATOM     24  C   UNL     1       9.510  10.882  18.774  0.00  0.00    +0.000 A 
ATOM     25  C   UNL     1      10.143  11.392  17.711  0.00  0.00    +0.000 A 
ATOM     26  C   UNL     1      10.766  12.721  17.724  0.00  0.00    +0.000 A 
ATOM     27  O   UNL     1      11.249  13.185  16.697  0.00  0.00    +0.000 OA
ATOM     28  O   UNL     1      10.780  13.404  18.927  0.00  0.00    +0.000 OA
ATOM     29  C   UNL     1      10.107  12.895  20.054  0.00  0.00    +0.000 A 
ATOM     30  C   UNL     1      10.124  13.682  21.205  0.00  0.00    +0.000 A 
ATOM     31  C   UNL     1       9.441  13.246  22.339  0.00  0.00    +0.000 A 
ATOM     32  C   UNL     1       8.742  12.039  22.308  0.00  0.00    +0.000 A 
ATOM     33  C   UNL     1       8.746  11.255  21.149  0.00  0.00    +0.000 A 
ATOM     34  C   UNL     1       9.443  11.672  20.007  0.00  0.00    +0.000 A 
ENDBRANCH  23  24
ENDBRANCH  22  23
ENDBRANCH   3  22
TORSDOF 7
ENDMDL
MODEL 3
REMARK VINA RESULT:      -8.9      2.208      3.841
REMARK  Name = 
REMARK  7 active torsions:
REMARK  status: ('A' for Active; 'I' for Inactive)
REMARK    1  A    between atoms: N_5  and  C_6
REMARK    2  A    between atoms: C_6  and  C_7
REMARK    3  A    between atoms: C_7  and  N_8
REMARK    4  A    between atoms: C_10  and  C_11
REMARK    5  A    between atoms: C_11  and  O_12
REMARK    6  A    between atoms: O_12  and  C_13
REMARK    7  A    between atoms: C_29  and  N_30
REMARK                            x       y       z     vdW  Elec       q    Type
REMARK                         _______ _______ _______ _____ _____    ______ ____
ROOT
ATOM      1  N   UNL     1       2.528   5.187  18.794  0.00  0.00    +0.000 N 
ATOM      2  C   UNL     1       2.338   6.063  17.772  0.00  0.00    +0.000 A 
ATOM      3  C   UNL     1       2.406   7.299  18.369  0.00  0.00    +0.000 A 
ATOM      4  N   UNL     1       2.608   7.133  19.714  0.00  0.00    +0.000 NA
ATOM      5  N   UNL     1       2.672   5.832  19.965  0.00  0.00    +0.000 NA
ENDROOT
BRANCH   1   6
ATOM      6  C   UNL     1       2.507   3.741  18.731  0.00  0.00    +0.000 C 
BRANCH   6   7
ATOM      7  C   UNL     1       3.332   3.157  17.575  0.00  0.00    +0.000 C 
BRANCH   7  12
ATOM      8  O   UNL     1       7.799   4.886  18.573  0.00  0.00    +0.000 OA
ATOM      9  C   UNL     1       6.797   4.557  17.987  0.00  0.00    +0.000 C 
ATOM     10  C   UNL     1       5.470   4.024  18.589  0.00  0.00    +0.000 C 
ATOM     11  O   UNL     1       5.229   3.947  19.767  0.00  0.00    +0.000 OA
ATOM     12  N   UNL     1       4.675   3.697  17.492  0.00  0.00    +0.000 N 
ATOM     13  C   UNL     1       5.336   4.009  16.292  0.00  0.00    +0.000 A 
ATOM     14  C   UNL     1       4.887   3.863  14.991  0.00  0.00    +0.000 A 
ATOM     15  C   UNL     1       5.732   4.279  13.951  0.00  0.00    +0.000 A 
ATOM     16  C   UNL     1       7.006   4.832  14.230  0.00  0.00    +0.000 A 
ATOM     17  C   UNL     1       7.462   4.967  15.545  0.00  0.00    +0.000 A 
ATOM     18  C   UNL     1       6.602   4.544  16.540  0.00  0.00    +0.000 A 
BRANCH  16  19
ATOM     19  N   UNL     1       7.863   5.283  13.125  0.00  0.00    +0.000 N 
ATOM     20  O   UNL     1       7.562   4.911  11.980  0.00  0.00    +0.000 OA
ATOM     21  O   UNL     1       8.824   6.007  13.403  0.00  0.00    +0.000 OA
ENDBRANCH  16  19
ENDBRANCH   7  12
ENDBRANCH   6   7
ENDBRANCH   1   6
BRANCH   3  22
ATOM     22  C   UNL     1       2.270   8.633  17.745  0.00  0.00    +0.000 C 
BRANCH  22  23
ATOM     23  O   UNL     1       0.890   8.977  17.629  0.00  0.00    +0.000 OA
BRANCH  23  24
ATOM     24  C   UNL     1       0.398   9.962  18.452  0.00  0.00    +0.000 A 
ATOM     25  C   UNL     1       1.054  10.555  19.456  0.00  0.00    +0.000 A 
ATOM     26  C   UNL     1       0.456  11.620  20.270  0.00  0.00    +0.000 A 
ATOM     27  O   UNL     1       1.128  12.200  21.116  0.00  0.00    +0.000 OA
ATOM     28  O   UNL     1      -0.874  11.925  20.040  0.00  0.00    +0.000 OA
ATOM     29  C   UNL     1      -1.579  11.326  18.980  0.00  0.00    +0.000 A 
ATOM     30  C   UNL     1      -2.896  11.741  18.786  0.00  0.00    +0.000 A 
ATOM     31  C   UNL     1      -3.629  11.210  17.726  0.00  0.00    +0.000 A 
ATOM     32  C   UNL     1      -3.038  10.283  16.868  0.00  0.00    +0.000 A 
ATOM     33  C   UNL     1      -1.719   9.867  17.083  0.00  0.00    +0.000 A 
ATOM     34  C   UNL     1      -0.976  10.379  18.156  0.00  0.00    +0.000 A 
ENDBRANCH  23  24
ENDBRANCH  22  23
ENDBRANCH   3  22
TORSDOF 7
ENDMDL
MODEL 4
REMARK VINA RESULT:      -8.8      3.173     10.288
REMARK  Name = 
REMARK  7 active torsions:
REMARK  status: ('A' for Active; 'I' for Inactive)
REMARK    1  A    between atoms: N_5  and  C_6
REMARK    2  A    between atoms: C_6  and  C_7
REMARK    3  A    between atoms: C_7  and  N_8
REMARK    4  A    between atoms: C_10  and  C_11
REMARK    5  A    between atoms: C_11  and  O_12
REMARK    6  A    between atoms: O_12  and  C_13
REMARK    7  A    between atoms: C_29  and  N_30
REMARK                            x       y       z     vdW  Elec       q    Type
REMARK                         _______ _______ _______ _____ _____    ______ ____
ROOT
ATOM      1  N   UNL     1       1.782   4.380  19.662  0.00  0.00    +0.000 N 
ATOM      2  C   UNL     1       2.702   4.561  18.677  0.00  0.00    +0.000 A 
ATOM      3  C   UNL     1       3.086   3.287  18.334  0.00  0.00    +0.000 A 
ATOM      4  N   UNL     1       2.415   2.392  19.125  0.00  0.00    +0.000 NA
ATOM      5  N   UNL     1       1.624   3.074  19.943  0.00  0.00    +0.000 NA
ENDROOT
BRANCH   1   6
ATOM      6  C   UNL     1       1.086   5.400  20.417  0.00  0.00    +0.000 C 
BRANCH   6   7
ATOM      7  C   UNL     1       1.992   6.541  20.901  0.00  0.00    +0.000 C 
BRANCH   7  12
ATOM      8  O   UNL     1       1.140  10.589  18.287  0.00  0.00    +0.000 OA
ATOM      9  C   UNL     1       1.198   9.797  19.195  0.00  0.00    +0.000 C 
ATOM     10  C   UNL     1       1.867   8.396  19.199  0.00  0.00    +0.000 C 
ATOM     11  O   UNL     1       2.512   7.937  18.291  0.00  0.00    +0.000 OA
ATOM     12  N   UNL     1       1.567   7.851  20.447  0.00  0.00    +0.000 N 
ATOM     13  C   UNL     1       0.836   8.766  21.224  0.00  0.00    +0.000 A 
ATOM     14  C   UNL     1       0.367   8.624  22.518  0.00  0.00    +0.000 A 
ATOM     15  C   UNL     1      -0.320   9.704  23.093  0.00  0.00    +0.000 A 
ATOM     16  C   UNL     1      -0.525  10.902  22.364  0.00  0.00    +0.000 A 
ATOM     17  C   UNL     1      -0.062  11.037  21.052  0.00  0.00    +0.000 A 
ATOM     18  C   UNL     1       0.608   9.952  20.522  0.00  0.00    +0.000 A 
BRANCH  16  19
ATOM     19  N   UNL     1      -1.226  12.029  22.996  0.00  0.00    +0.000 N 
ATOM     20  O   UNL     1      -2.435  11.885  23.239  0.00  0.00    +0.000 OA
ATOM     21  O   UNL     1      -0.570  13.044  23.249  0.00  0.00    +0.000 OA
ENDBRANCH  16  19
ENDBRANCH   7  12
ENDBRANCH   6   7
ENDBRANCH   1   6
BRANCH   3  22
ATOM     22  C   UNL     1       4.068   2.864  17.312  0.00  0.00    +0.000 C 
BRANCH  22  23
ATOM     23  O   UNL     1       4.118   3.825  16.259  0.00  0.00    +0.000 OA
BRANCH  23  24
ATOM     24  C   UNL     1       5.284   4.532  16.082  0.00  0.00    +0.000 A 
ATOM     25  C   UNL     1       5.889   5.300  16.995  0.00  0.00    +0.000 A 
ATOM     26  C   UNL     1       7.151   6.001  16.726  0.00  0.00    +0.000 A 
ATOM     27  O   UNL     1       7.717   6.616  17.624  0.00  0.00    +0.000 OA
ATOM     28  O   UNL     1       7.652   5.935  15.439  0.00  0.00    +0.000 OA
ATOM     29  C   UNL     1       7.042   5.120  14.467  0.00  0.00    +0.000 A 
ATOM     30  C   UNL     1       7.654   5.069  13.215  0.00  0.00    +0.000 A 
ATOM     31  C   UNL     1       7.115   4.247  12.227  0.00  0.00    +0.000 A 
ATOM     32  C   UNL     1       5.982   3.481  12.501  0.00  0.00    +0.000 A 
ATOM     33  C   UNL     1       5.373   3.553  13.759  0.00  0.00    +0.000 A 
ATOM     34  C   UNL     1       5.893   4.389  14.756  0.00  0.00    +0.000 A 
ENDBRANCH  23  24
ENDBRANCH  22  23
ENDBRANCH   3  22
TORSDOF 7
ENDMDL
MODEL 5
REMARK VINA RESULT:      -8.8      1.427      1.677
REMARK  Name = 
REMARK  7 active torsions:
REMARK  status: ('A' for Active; 'I' for Inactive)
REMARK    1  A    between atoms: N_5  and  C_6
REMARK    2  A    between atoms: C_6  and  C_7
REMARK    3  A    between atoms: C_7  and  N_8
REMARK    4  A    between atoms: C_10  and  C_11
REMARK    5  A    between atoms: C_11  and  O_12
REMARK    6  A    between atoms: O_12  and  C_13
REMARK    7  A    between atoms: C_29  and  N_30
REMARK                            x       y       z     vdW  Elec       q    Type
REMARK                         _______ _______ _______ _____ _____    ______ ____
ROOT
ATOM      1  N   UNL     1       1.263   8.040  20.587  0.00  0.00    +0.000 N 
ATOM      2  C   UNL     1       0.628   8.974  21.343  0.00  0.00    +0.000 A 
ATOM      3  C   UNL     1       0.508  10.060  20.509  0.00  0.00    +0.000 A 
ATOM      4  N   UNL     1       1.087   9.762  19.304  0.00  0.00    +0.000 NA
ATOM      5  N   UNL     1       1.555   8.523  19.365  0.00  0.00    +0.000 NA
ENDROOT
BRANCH   1   6
ATOM      6  C   UNL     1       1.683   6.716  20.990  0.00  0.00    +0.000 C 
BRANCH   6   7
ATOM      7  C   UNL     1       1.501   5.648  19.901  0.00  0.00    +0.000 C 
BRANCH   7  12
ATOM      8  O   UNL     1       4.986   2.213  19.940  0.00  0.00    +0.000 OA
ATOM      9  C   UNL     1       4.371   3.226  19.713  0.00  0.00    +0.000 C 
ATOM     10  C   UNL     1       3.016   3.678  20.319  0.00  0.00    +0.000 C 
ATOM     11  O   UNL     1       2.422   3.095  21.191  0.00  0.00    +0.000 OA
ATOM     12  N   UNL     1       2.693   4.861  19.656  0.00  0.00    +0.000 N 
ATOM     13  C   UNL     1       3.710   5.213  18.751  0.00  0.00    +0.000 A 
ATOM     14  C   UNL     1       3.788   6.319  17.922  0.00  0.00    +0.000 A 
ATOM     15  C   UNL     1       4.931   6.464  17.122  0.00  0.00    +0.000 A 
ATOM     16  C   UNL     1       5.972   5.503  17.166  0.00  0.00    +0.000 A 
ATOM     17  C   UNL     1       5.884   4.380  17.995  0.00  0.00    +0.000 A 
ATOM     18  C   UNL     1       4.743   4.274  18.765  0.00  0.00    +0.000 A 
BRANCH  16  19
ATOM     19  N   UNL     1       7.171   5.689  16.337  0.00  0.00    +0.000 N 
ATOM     20  O   UNL     1       7.537   4.729  15.640  0.00  0.00    +0.000 OA
ATOM     21  O   UNL     1       7.735   6.786  16.380  0.00  0.00    +0.000 OA
ENDBRANCH  16  19
ENDBRANCH   7  12
ENDBRANCH   6   7
ENDBRANCH   1   6
BRANCH   3  22
ATOM     22  C   UNL     1      -0.104  11.376  20.793  0.00  0.00    +0.000 C 
BRANCH  22  23
ATOM     23  O   UNL     1      -0.673  11.915  19.600  0.00  0.00    +0.000 OA
BRANCH  23  24
ATOM     24  C   UNL     1      -2.037  12.077  19.551  0.00  0.00    +0.000 A 
ATOM     25  C   UNL     1      -2.808  12.601  20.511  0.00  0.00    +0.000 A 
ATOM     26  C   UNL     1      -4.259  12.759  20.361  0.00  0.00    +0.000 A 
ATOM     27  O   UNL     1      -4.909  13.332  21.229  0.00  0.00    +0.000 OA
ATOM     28  O   UNL     1      -4.840  12.237  19.219  0.00  0.00    +0.000 OA
ATOM     29  C   UNL     1      -4.049  11.697  18.189  0.00  0.00    +0.000 A 
ATOM     30  C   UNL     1      -4.718  11.251  17.049  0.00  0.00    +0.000 A 
ATOM     31  C   UNL     1      -3.981  10.743  15.981  0.00  0.00    +0.000 A 
ATOM     32  C   UNL     1      -2.589  10.695  16.058  0.00  0.00    +0.000 A 
ATOM     33  C   UNL     1      -1.933  11.134  17.213  0.00  0.00    +0.000 A 
ATOM     34  C   UNL     1      -2.662  11.630  18.302  0.00  0.00    +0.000 A 
ENDBRANCH  23  24
ENDBRANCH  22  23
ENDBRANCH   3  22
TORSDOF 7
ENDMDL
MODEL 6
REMARK VINA RESULT:      -8.7      3.051      4.319
REMARK  Name = 
REMARK  7 active torsions:
REMARK  status: ('A' for Active; 'I' for Inactive)
REMARK    1  A    between atoms: N_5  and  C_6
REMARK    2  A    between atoms: C_6  and  C_7
REMARK    3  A    between atoms: C_7  and  N_8
REMARK    4  A    between atoms: C_10  and  C_11
REMARK    5  A    between atoms: C_11  and  O_12
REMARK    6  A    between atoms: O_12  and  C_13
REMARK    7  A    between atoms: C_29  and  N_30
REMARK                            x       y       z     vdW  Elec       q    Type
REMARK                         _______ _______ _______ _____ _____    ______ ____
ROOT
ATOM      1  N   UNL     1       2.591   5.230  18.477  0.00  0.00    +0.000 N 
ATOM      2  C   UNL     1       2.593   6.438  17.853  0.00  0.00    +0.000 A 
ATOM      3  C   UNL     1       2.282   7.333  18.848  0.00  0.00    +0.000 A 
ATOM      4  N   UNL     1       2.083   6.648  20.017  0.00  0.00    +0.000 NA
ATOM      5  N   UNL     1       2.266   5.356  19.776  0.00  0.00    +0.000 NA
ENDROOT
BRANCH   1   6
ATOM      6  C   UNL     1       2.812   3.929  17.882  0.00  0.00    +0.000 C 
BRANCH   6   7
ATOM      7  C   UNL     1       4.184   3.323  18.208  0.00  0.00    +0.000 C 
BRANCH   7  12
ATOM      8  O   UNL     1       7.895   6.512  18.255  0.00  0.00    +0.000 OA
ATOM      9  C   UNL     1       7.047   5.739  17.882  0.00  0.00    +0.000 C 
ATOM     10  C   UNL     1       5.945   5.049  18.729  0.00  0.00    +0.000 C 
ATOM     11  O   UNL     1       5.732   5.270  19.895  0.00  0.00    +0.000 OA
ATOM     12  N   UNL     1       5.296   4.182  17.851  0.00  0.00    +0.000 N 
ATOM     13  C   UNL     1       5.837   4.292  16.559  0.00  0.00    +0.000 A 
ATOM     14  C   UNL     1       5.464   3.628  15.403  0.00  0.00    +0.000 A 
ATOM     15  C   UNL     1       6.146   3.935  14.216  0.00  0.00    +0.000 A 
ATOM     16  C   UNL     1       7.186   4.898  14.207  0.00  0.00    +0.000 A 
ATOM     17  C   UNL     1       7.570   5.557  15.379  0.00  0.00    +0.000 A 
ATOM     18  C   UNL     1       6.875   5.226  16.526  0.00  0.00    +0.000 A 
BRANCH  16  19
ATOM     19  N   UNL     1       7.870   5.220  12.947  0.00  0.00    +0.000 N 
ATOM     20  O   UNL     1       8.841   5.992  13.006  0.00  0.00    +0.000 OA
ATOM     21  O   UNL     1       7.441   4.702  11.912  0.00  0.00    +0.000 OA
ENDBRANCH  16  19
ENDBRANCH   7  12
ENDBRANCH   6   7
ENDBRANCH   1   6
BRANCH   3  22
ATOM     22  C   UNL     1       2.142   8.802  18.755  0.00  0.00    +0.000 C 
BRANCH  22  23
ATOM     23  O   UNL     1       0.787   9.178  18.997  0.00  0.00    +0.000 OA
BRANCH  23  24
ATOM     24  C   UNL     1       0.504   9.870  20.150  0.00  0.00    +0.000 A 
ATOM     25  C   UNL     1       0.481   9.367  21.390  0.00  0.00    +0.000 A 
ATOM     26  C   UNL     1       0.192  10.189  22.571  0.00  0.00    +0.000 A 
ATOM     27  O   UNL     1       0.277   9.705  23.694  0.00  0.00    +0.000 OA
ATOM     28  O   UNL     1      -0.175  11.505  22.355  0.00  0.00    +0.000 OA
ATOM     29  C   UNL     1      -0.142  12.061  21.062  0.00  0.00    +0.000 A 
ATOM     30  C   UNL     1      -0.469  13.412  20.949  0.00  0.00    +0.000 A 
ATOM     31  C   UNL     1      -0.414  14.024  19.698  0.00  0.00    +0.000 A 
ATOM     32  C   UNL     1      -0.026  13.286  18.580  0.00  0.00    +0.000 A 
ATOM     33  C   UNL     1       0.286  11.928  18.707  0.00  0.00    +0.000 A 
ATOM     34  C   UNL     1       0.219  11.295  19.956  0.00  0.00    +0.000 A 
ENDBRANCH  23  24
ENDBRANCH  22  23
ENDBRANCH   3  22
TORSDOF 7
ENDMDL
MODEL 7
REMARK VINA RESULT:      -8.6      2.410      3.752
REMARK  Name = 
REMARK  7 active torsions:
REMARK  status: ('A' for Active; 'I' for Inactive)
REMARK    1  A    between atoms: N_5  and  C_6
REMARK    2  A    between atoms: C_6  and  C_7
REMARK    3  A    between atoms: C_7  and  N_8
REMARK    4  A    between atoms: C_10  and  C_11
REMARK    5  A    between atoms: C_11  and  O_12
REMARK    6  A    between atoms: O_12  and  C_13
REMARK    7  A    between atoms: C_29  and  N_30
REMARK                            x       y       z     vdW  Elec       q    Type
REMARK                         _______ _______ _______ _____ _____    ______ ____
ROOT
ATOM      1  N   UNL     1       2.517   5.531  18.535  0.00  0.00    +0.000 N 
ATOM      2  C   UNL     1       2.098   5.908  19.772  0.00  0.00    +0.000 A 
ATOM      3  C   UNL     1       2.143   7.282  19.740  0.00  0.00    +0.000 A 
ATOM      4  N   UNL     1       2.602   7.684  18.515  0.00  0.00    +0.000 NA
ATOM      5  N   UNL     1       2.837   6.601  17.785  0.00  0.00    +0.000 NA
ENDROOT
BRANCH   1   6
ATOM      6  C   UNL     1       2.705   4.185  18.039  0.00  0.00    +0.000 C 
BRANCH   6   7
ATOM      7  C   UNL     1       4.059   3.567  18.417  0.00  0.00    +0.000 C 
BRANCH   7  12
ATOM      8  O   UNL     1       7.931   6.548  18.150  0.00  0.00    +0.000 OA
ATOM      9  C   UNL     1       7.026   5.808  17.852  0.00  0.00    +0.000 C 
ATOM     10  C   UNL     1       5.932   5.215  18.779  0.00  0.00    +0.000 C 
ATOM     11  O   UNL     1       5.788   5.494  19.942  0.00  0.00    +0.000 OA
ATOM     12  N   UNL     1       5.196   4.349  17.971  0.00  0.00    +0.000 N 
ATOM     13  C   UNL     1       5.677   4.376  16.651  0.00  0.00    +0.000 A 
ATOM     14  C   UNL     1       5.213   3.686  15.544  0.00  0.00    +0.000 A 
ATOM     15  C   UNL     1       5.851   3.907  14.314  0.00  0.00    +0.000 A 
ATOM     16  C   UNL     1       6.939   4.809  14.214  0.00  0.00    +0.000 A 
ATOM     17  C   UNL     1       7.415   5.494  15.337  0.00  0.00    +0.000 A 
ATOM     18  C   UNL     1       6.760   5.249  16.529  0.00  0.00    +0.000 A 
BRANCH  16  19
ATOM     19  N   UNL     1       7.576   5.042  12.911  0.00  0.00    +0.000 N 
ATOM     20  O   UNL     1       8.394   5.973  12.833  0.00  0.00    +0.000 OA
ATOM     21  O   UNL     1       7.263   4.297  11.978  0.00  0.00    +0.000 OA
ENDBRANCH  16  19
ENDBRANCH   7  12
ENDBRANCH   6   7
ENDBRANCH   1   6
BRANCH   3  22
ATOM     22  C   UNL     1       1.796   8.239  20.813  0.00  0.00    +0.000 C 
BRANCH  22  23
ATOM     23  O   UNL     1       0.378   8.378  20.900  0.00  0.00    +0.000 OA
BRANCH  23  24
ATOM     24  C   UNL     1      -0.140   9.643  21.041  0.00  0.00    +0.000 A 
ATOM     25  C   UNL     1      -0.139  10.379  22.158  0.00  0.00    +0.000 A 
ATOM     26  C   UNL     1      -0.695  11.737  22.210  0.00  0.00    +0.000 A 
ATOM     27  O   UNL     1      -0.585  12.409  23.231  0.00  0.00    +0.000 OA
ATOM     28  O   UNL     1      -1.336  12.205  21.077  0.00  0.00    +0.000 OA
ATOM     29  C   UNL     1      -1.335  11.456  19.886  0.00  0.00    +0.000 A 
ATOM     30  C   UNL     1      -1.953  12.036  18.778  0.00  0.00    +0.000 A 
ATOM     31  C   UNL     1      -1.948  11.355  17.562  0.00  0.00    +0.000 A 
ATOM     32  C   UNL     1      -1.320  10.114  17.463  0.00  0.00    +0.000 A 
ATOM     33  C   UNL     1      -0.715   9.540  18.587  0.00  0.00    +0.000 A 
ATOM     34  C   UNL     1      -0.729  10.204  19.821  0.00  0.00    +0.000 A 
ENDBRANCH  23  24
ENDBRANCH  22  23
ENDBRANCH   3  22
TORSDOF 7
ENDMDL
MODEL 8
REMARK VINA RESULT:      -8.5      1.450      1.901
REMARK  Name = 
REMARK  7 active torsions:
REMARK  status: ('A' for Active; 'I' for Inactive)
REMARK    1  A    between atoms: N_5  and  C_6
REMARK    2  A    between atoms: C_6  and  C_7
REMARK    3  A    between atoms: C_7  and  N_8
REMARK    4  A    between atoms: C_10  and  C_11
REMARK    5  A    between atoms: C_11  and  O_12
REMARK    6  A    between atoms: O_12  and  C_13
REMARK    7  A    between atoms: C_29  and  N_30
REMARK                            x       y       z     vdW  Elec       q    Type
REMARK                         _______ _______ _______ _____ _____    ______ ____
ROOT
ATOM      1  N   UNL     1       0.670   9.543  18.614  0.00  0.00    +0.000 N 
ATOM      2  C   UNL     1       0.548  10.219  19.787  0.00  0.00    +0.000 A 
ATOM      3  C   UNL     1      -0.581  10.985  19.621  0.00  0.00    +0.000 A 
ATOM      4  N   UNL     1      -1.084  10.769  18.366  0.00  0.00    +0.000 NA
ATOM      5  N   UNL     1      -0.304   9.889  17.753  0.00  0.00    +0.000 NA
ENDROOT
BRANCH   1   6
ATOM      6  C   UNL     1       1.721   8.625  18.230  0.00  0.00    +0.000 C 
BRANCH   6   7
ATOM      7  C   UNL     1       2.201   7.718  19.372  0.00  0.00    +0.000 C 
BRANCH   7  12
ATOM      8  O   UNL     1       2.740   2.895  18.743  0.00  0.00    +0.000 OA
ATOM      9  C   UNL     1       2.891   4.090  18.665  0.00  0.00    +0.000 C 
ATOM     10  C   UNL     1       2.154   5.199  19.461  0.00  0.00    +0.000 C 
ATOM     11  O   UNL     1       1.367   5.002  20.352  0.00  0.00    +0.000 OA
ATOM     12  N   UNL     1       2.618   6.402  18.929  0.00  0.00    +0.000 N 
ATOM     13  C   UNL     1       3.585   6.163  17.937  0.00  0.00    +0.000 A 
ATOM     14  C   UNL     1       4.302   7.079  17.188  0.00  0.00    +0.000 A 
ATOM     15  C   UNL     1       5.242   6.587  16.269  0.00  0.00    +0.000 A 
ATOM     16  C   UNL     1       5.446   5.193  16.118  0.00  0.00    +0.000 A 
ATOM     17  C   UNL     1       4.710   4.270  16.867  0.00  0.00    +0.000 A 
ATOM     18  C   UNL     1       3.794   4.794  17.759  0.00  0.00    +0.000 A 
BRANCH  16  19
ATOM     19  N   UNL     1       6.454   4.703  15.167  0.00  0.00    +0.000 N 
ATOM     20  O   UNL     1       7.508   5.350  15.067  0.00  0.00    +0.000 OA
ATOM     21  O   UNL     1       6.192   3.677  14.532  0.00  0.00    +0.000 OA
ENDBRANCH  16  19
ENDBRANCH   7  12
ENDBRANCH   6   7
ENDBRANCH   1   6
BRANCH   3  22
ATOM     22  C   UNL     1      -1.203  11.928  20.576  0.00  0.00    +0.000 C 
BRANCH  22  23
ATOM     23  O   UNL     1      -2.310  12.584  19.959  0.00  0.00    +0.000 OA
BRANCH  23  24
ATOM     24  C   UNL     1      -3.523  12.552  20.606  0.00  0.00    +0.000 A 
ATOM     25  C   UNL     1      -3.745  12.867  21.887  0.00  0.00    +0.000 A 
ATOM     26  C   UNL     1      -5.083  12.829  22.489  0.00  0.00    +0.000 A 
ATOM     27  O   UNL     1      -5.251  13.218  23.640  0.00  0.00    +0.000 OA
ATOM     28  O   UNL     1      -6.116  12.340  21.711  0.00  0.00    +0.000 OA
ATOM     29  C   UNL     1      -5.910  12.018  20.356  0.00  0.00    +0.000 A 
ATOM     30  C   UNL     1      -7.024  11.591  19.634  0.00  0.00    +0.000 A 
ATOM     31  C   UNL     1      -6.886  11.298  18.279  0.00  0.00    +0.000 A 
ATOM     32  C   UNL     1      -5.645  11.442  17.660  0.00  0.00    +0.000 A 
ATOM     33  C   UNL     1      -4.534  11.859  18.401  0.00  0.00    +0.000 A 
ATOM     34  C   UNL     1      -4.653  12.141  19.768  0.00  0.00    +0.000 A 
ENDBRANCH  23  24
ENDBRANCH  22  23
ENDBRANCH   3  22
TORSDOF 7
ENDMDL
MODEL 9
REMARK VINA RESULT:      -8.5      2.242     10.116
REMARK  Name = 
REMARK  7 active torsions:
REMARK  status: ('A' for Active; 'I' for Inactive)
REMARK    1  A    between atoms: N_5  and  C_6
REMARK    2  A    between atoms: C_6  and  C_7
REMARK    3  A    between atoms: C_7  and  N_8
REMARK    4  A    between atoms: C_10  and  C_11
REMARK    5  A    between atoms: C_11  and  O_12
REMARK    6  A    between atoms: O_12  and  C_13
REMARK    7  A    between atoms: C_29  and  N_30
REMARK                            x       y       z     vdW  Elec       q    Type
REMARK                         _______ _______ _______ _____ _____    ______ ____
ROOT
ATOM      1  N   UNL     1       1.886   6.489  19.954  0.00  0.00    +0.000 N 
ATOM      2  C   UNL     1       2.537   6.281  18.779  0.00  0.00    +0.000 A 
ATOM      3  C   UNL     1       2.667   4.915  18.702  0.00  0.00    +0.000 A 
ATOM      4  N   UNL     1       2.122   4.352  19.825  0.00  0.00    +0.000 NA
ATOM      5  N   UNL     1       1.653   5.328  20.592  0.00  0.00    +0.000 NA
ENDROOT
BRANCH   1   6
ATOM      6  C   UNL     1       1.532   7.758  20.554  0.00  0.00    +0.000 C 
BRANCH   6   7
ATOM      7  C   UNL     1       1.547   8.936  19.569  0.00  0.00    +0.000 C 
BRANCH   7  12
ATOM      8  O   UNL     1      -1.317  12.404  21.496  0.00  0.00    +0.000 OA
ATOM      9  C   UNL     1      -0.879  11.547  20.770  0.00  0.00    +0.000 C 
ATOM     10  C   UNL     1       0.379  10.663  20.985  0.00  0.00    +0.000 C 
ATOM     11  O   UNL     1       1.056  10.659  21.981  0.00  0.00    +0.000 OA
ATOM     12  N   UNL     1       0.503   9.911  19.817  0.00  0.00    +0.000 N 
ATOM     13  C   UNL     1      -0.552  10.194  18.932  0.00  0.00    +0.000 A 
ATOM     14  C   UNL     1      -0.808   9.649  17.686  0.00  0.00    +0.000 A 
ATOM     15  C   UNL     1      -1.955  10.080  17.002  0.00  0.00    +0.000 A 
ATOM     16  C   UNL     1      -2.821  11.043  17.574  0.00  0.00    +0.000 A 
ATOM     17  C   UNL     1      -2.552  11.602  18.828  0.00  0.00    +0.000 A 
ATOM     18  C   UNL     1      -1.414  11.153  19.469  0.00  0.00    +0.000 A 
BRANCH  16  19
ATOM     19  N   UNL     1      -4.029  11.461  16.849  0.00  0.00    +0.000 N 
ATOM     20  O   UNL     1      -4.911  12.046  17.498  0.00  0.00    +0.000 OA
ATOM     21  O   UNL     1      -4.090  11.209  15.642  0.00  0.00    +0.000 OA
ENDBRANCH  16  19
ENDBRANCH   7  12
ENDBRANCH   6   7
ENDBRANCH   1   6
BRANCH   3  22
ATOM     22  C   UNL     1       3.298   4.109  17.635  0.00  0.00    +0.000 C 
BRANCH  22  23
ATOM     23  O   UNL     1       4.634   3.770  18.006  0.00  0.00    +0.000 OA
BRANCH  23  24
ATOM     24  C   UNL     1       5.649   4.603  17.599  0.00  0.00    +0.000 A 
ATOM     25  C   UNL     1       6.324   5.464  18.369  0.00  0.00    +0.000 A 
ATOM     26  C   UNL     1       7.415   6.298  17.851  0.00  0.00    +0.000 A 
ATOM     27  O   UNL     1       8.067   7.002  18.615  0.00  0.00    +0.000 OA
ATOM     28  O   UNL     1       7.659   6.253  16.490  0.00  0.00    +0.000 OA
ATOM     29  C   UNL     1       6.974   5.344  15.664  0.00  0.00    +0.000 A 
ATOM     30  C   UNL     1       7.330   5.326  14.316  0.00  0.00    +0.000 A 
ATOM     31  C   UNL     1       6.711   4.418  13.459  0.00  0.00    +0.000 A 
ATOM     32  C   UNL     1       5.755   3.534  13.957  0.00  0.00    +0.000 A 
ATOM     33  C   UNL     1       5.399   3.572  15.310  0.00  0.00    +0.000 A 
ATOM     34  C   UNL     1       5.999   4.492  16.179  0.00  0.00    +0.000 A 
ENDBRANCH  23  24
ENDBRANCH  22  23
ENDBRANCH   3  22
TORSDOF 7
ENDMDL
