MODEL 1
REMARK VINA RESULT:      -7.7      0.000      0.000
REMARK  Name = 
REMARK  10 active torsions:
REMARK  status: ('A' for Active; 'I' for Inactive)
REMARK    1  A    between atoms: C_1  and  O_2
REMARK    2  A    between atoms: O_2  and  C_3
REMARK    3  A    between atoms: C_6  and  C_7
REMARK    4  A    between atoms: C_7  and  C_8
REMARK    5  A    between atoms: C_8  and  N_9
REMARK    6  A    between atoms: N_12  and  CA_13
REMARK    7  A    between atoms: CA_13  and  CB_14
REMARK    8  A    between atoms: CA_13  and  C_21
REMARK    9  A    between atoms: CB_14  and  CG_15
REMARK   10  A    between atoms: C_21  and  OXT_23
REMARK                            x       y       z     vdW  Elec       q    Type
REMARK                         _______ _______ _______ _____ _____    ______ ____
ROOT
ATOM      1  N   UNK A   0       8.109   9.313  17.717  0.00  0.00    +0.000 N 
ATOM      2  C   UNK A   0       7.814   7.983  17.863  0.00  0.00    +0.000 C 
ATOM      3  O   UNK A   0       8.305   7.251  18.707  0.00  0.00    +0.000 OA
ATOM      4  N   PHE A   1       6.852   7.573  16.985  0.00  0.00    +0.000 N 
ATOM      5  H   UNK A   0       7.346   9.845  17.326  0.00  0.00    +0.000 HD
ATOM      6  H   PHE A   1       6.789   8.063  16.099  0.00  0.00    +0.000 HD
ENDROOT
BRANCH   1   7
ATOM      7  C   UNK A   0       8.911  10.010  18.722  0.00  0.00    +0.000 C 
BRANCH   7   8
ATOM      8  C   UNK A   0      10.169  10.694  18.168  0.00  0.00    +0.000 C 
BRANCH   8  12
ATOM      9  C   UNK A   0       9.675  14.977  17.768  0.00  0.00    +0.000 A 
ATOM     10  C   UNK A   0       8.676  14.201  18.356  0.00  0.00    +0.000 A 
ATOM     11  C   UNK A   0       8.843  12.818  18.499  0.00  0.00    +0.000 A 
ATOM     12  C   UNK A   0      10.008  12.191  18.038  0.00  0.00    +0.000 A 
ATOM     13  C   UNK A   0      11.006  12.974  17.449  0.00  0.00    +0.000 A 
ATOM     14  C   UNK A   0      10.841  14.360  17.315  0.00  0.00    +0.000 A 
BRANCH   9  16
ATOM     15  C   UNK A   0      10.484  17.201  17.821  0.00  0.00    +0.000 C 
ATOM     16  O   UNK A   0       9.387  16.310  17.648  0.00  0.00    +0.000 OA
ENDBRANCH   9  16
ENDBRANCH   8  12
ENDBRANCH   7   8
ENDBRANCH   1   7
BRANCH   4  17
ATOM     17  CA  PHE A   1       6.316   6.207  17.006  0.00  0.00    +0.000 C 
BRANCH  17  18
ATOM     18  C   PHE A   1       7.313   5.279  16.298  0.00  0.00    +0.000 C 
ATOM     19  O   PHE A   1       7.534   5.321  15.090  0.00  0.00    +0.000 OA
BRANCH  18  20
ATOM     20  OXT PHE A   1       8.004   4.446  17.110  0.00  0.00    +0.000 OA
ATOM     21  HXT PHE A   1       7.473   3.953  17.763  0.00  0.00    +0.000 HD
ENDBRANCH  18  20
ENDBRANCH  17  18
BRANCH  17  22
ATOM     22  CB  PHE A   1       4.903   6.092  16.404  0.00  0.00    +0.000 C 
BRANCH  22  23
ATOM     23  CG  PHE A   1       3.952   5.176  17.140  0.00  0.00    +0.000 A 
ATOM     24  CD1 PHE A   1       4.024   3.785  16.988  0.00  0.00    +0.000 A 
ATOM     25  CE1 PHE A   1       3.199   2.950  17.742  0.00  0.00    +0.000 A 
ATOM     26  CZ  PHE A   1       2.299   3.496  18.654  0.00  0.00    +0.000 A 
ATOM     27  CE2 PHE A   1       2.191   4.879  18.783  0.00  0.00    +0.000 A 
ATOM     28  CD2 PHE A   1       3.006   5.716  18.022  0.00  0.00    +0.000 A 
ENDBRANCH  22  23
ENDBRANCH  17  22
ENDBRANCH   4  17
TORSDOF 9
ENDMDL
MODEL 2
REMARK VINA RESULT:      -7.7      1.058      1.499
REMARK  Name = 
REMARK  10 active torsions:
REMARK  status: ('A' for Active; 'I' for Inactive)
REMARK    1  A    between atoms: C_1  and  O_2
REMARK    2  A    between atoms: O_2  and  C_3
REMARK    3  A    between atoms: C_6  and  C_7
REMARK    4  A    between atoms: C_7  and  C_8
REMARK    5  A    between atoms: C_8  and  N_9
REMARK    6  A    between atoms: N_12  and  CA_13
REMARK    7  A    between atoms: CA_13  and  CB_14
REMARK    8  A    between atoms: CA_13  and  C_21
REMARK    9  A    between atoms: CB_14  and  CG_15
REMARK   10  A    between atoms: C_21  and  OXT_23
REMARK                            x       y       z     vdW  Elec       q    Type
REMARK                         _______ _______ _______ _____ _____    ______ ____
ROOT
ATOM      1  N   UNK A   0       8.044   9.026  17.642  0.00  0.00    +0.000 N 
ATOM      2  C   UNK A   0       7.752   7.705  17.858  0.00  0.00    +0.000 C 
ATOM      3  O   UNK A   0       8.218   7.029  18.761  0.00  0.00    +0.000 OA
ATOM      4  N   PHE A   1       6.824   7.234  16.975  0.00  0.00    +0.000 N 
ATOM      5  H   UNK A   0       7.291   9.527  17.194  0.00  0.00    +0.000 HD
ATOM      6  H   PHE A   1       6.789   7.670  16.058  0.00  0.00    +0.000 HD
ENDROOT
BRANCH   1   7
ATOM      7  C   UNK A   0       8.805   9.789  18.630  0.00  0.00    +0.000 C 
BRANCH   7   8
ATOM      8  C   UNK A   0       9.737  10.852  18.031  0.00  0.00    +0.000 C 
BRANCH   8  12
ATOM      9  C   UNK A   0       7.971  14.806  18.083  0.00  0.00    +0.000 A 
ATOM     10  C   UNK A   0       9.194  14.568  18.710  0.00  0.00    +0.000 A 
ATOM     11  C   UNK A   0       9.772  13.293  18.680  0.00  0.00    +0.000 A 
ATOM     12  C   UNK A   0       9.122  12.233  18.034  0.00  0.00    +0.000 A 
ATOM     13  C   UNK A   0       7.897  12.477  17.407  0.00  0.00    +0.000 A 
ATOM     14  C   UNK A   0       7.324  13.756  17.430  0.00  0.00    +0.000 A 
BRANCH   9  16
ATOM     15  C   UNK A   0       6.453  16.259  19.173  0.00  0.00    +0.000 C 
ATOM     16  O   UNK A   0       7.486  16.079  18.208  0.00  0.00    +0.000 OA
ENDBRANCH   9  16
ENDBRANCH   8  12
ENDBRANCH   7   8
ENDBRANCH   1   7
BRANCH   4  17
ATOM     17  CA  PHE A   1       6.297   5.867  17.059  0.00  0.00    +0.000 C 
BRANCH  17  18
ATOM     18  C   PHE A   1       7.325   4.907  16.445  0.00  0.00    +0.000 C 
ATOM     19  O   PHE A   1       7.537   4.826  15.237  0.00  0.00    +0.000 OA
BRANCH  18  20
ATOM     20  OXT PHE A   1       8.053   4.193  17.334  0.00  0.00    +0.000 OA
ATOM     21  HXT PHE A   1       8.961   3.970  17.056  0.00  0.00    +0.000 HD
ENDBRANCH  18  20
ENDBRANCH  17  18
BRANCH  17  22
ATOM     22  CB  PHE A   1       4.908   5.703  16.416  0.00  0.00    +0.000 C 
BRANCH  22  23
ATOM     23  CG  PHE A   1       3.815   5.214  17.337  0.00  0.00    +0.000 A 
ATOM     24  CD1 PHE A   1       3.387   3.879  17.309  0.00  0.00    +0.000 A 
ATOM     25  CE1 PHE A   1       2.441   3.422  18.227  0.00  0.00    +0.000 A 
ATOM     26  CZ  PHE A   1       1.917   4.292  19.181  0.00  0.00    +0.000 A 
ATOM     27  CE2 PHE A   1       2.304   5.629  19.192  0.00  0.00    +0.000 A 
ATOM     28  CD2 PHE A   1       3.242   6.091  18.268  0.00  0.00    +0.000 A 
ENDBRANCH  22  23
ENDBRANCH  17  22
ENDBRANCH   4  17
TORSDOF 9
ENDMDL
MODEL 3
REMARK VINA RESULT:      -7.6      1.873      2.477
REMARK  Name = 
REMARK  10 active torsions:
REMARK  status: ('A' for Active; 'I' for Inactive)
REMARK    1  A    between atoms: C_1  and  O_2
REMARK    2  A    between atoms: O_2  and  C_3
REMARK    3  A    between atoms: C_6  and  C_7
REMARK    4  A    between atoms: C_7  and  C_8
REMARK    5  A    between atoms: C_8  and  N_9
REMARK    6  A    between atoms: N_12  and  CA_13
REMARK    7  A    between atoms: CA_13  and  CB_14
REMARK    8  A    between atoms: CA_13  and  C_21
REMARK    9  A    between atoms: CB_14  and  CG_15
REMARK   10  A    between atoms: C_21  and  OXT_23
REMARK                            x       y       z     vdW  Elec       q    Type
REMARK                         _______ _______ _______ _____ _____    ______ ____
ROOT
ATOM      1  N   UNK A   0       8.187   8.993  17.723  0.00  0.00    +0.000 N 
ATOM      2  C   UNK A   0       7.834   7.685  17.929  0.00  0.00    +0.000 C 
ATOM      3  O   UNK A   0       8.219   7.001  18.863  0.00  0.00    +0.000 OA
ATOM      4  N   PHE A   1       6.944   7.241  16.994  0.00  0.00    +0.000 N 
ATOM      5  H   UNK A   0       7.481   9.517  17.226  0.00  0.00    +0.000 HD
ATOM      6  H   PHE A   1       6.981   7.669  16.074  0.00  0.00    +0.000 HD
ENDROOT
BRANCH   1   7
ATOM      7  C   UNK A   0       8.914   9.737  18.750  0.00  0.00    +0.000 C 
BRANCH   7   8
ATOM      8  C   UNK A   0       9.607  11.009  18.242  0.00  0.00    +0.000 C 
BRANCH   8  12
ATOM      9  C   UNK A   0      10.094  14.010  21.327  0.00  0.00    +0.000 A 
ATOM     10  C   UNK A   0      10.389  14.307  19.997  0.00  0.00    +0.000 A 
ATOM     11  C   UNK A   0      10.217  13.342  18.998  0.00  0.00    +0.000 A 
ATOM     12  C   UNK A   0       9.763  12.057  19.322  0.00  0.00    +0.000 A 
ATOM     13  C   UNK A   0       9.469  11.764  20.657  0.00  0.00    +0.000 A 
ATOM     14  C   UNK A   0       9.633  12.734  21.655  0.00  0.00    +0.000 A 
BRANCH   9  16
ATOM     15  C   UNK A   0       9.307  15.263  23.174  0.00  0.00    +0.000 C 
ATOM     16  O   UNK A   0      10.336  15.017  22.221  0.00  0.00    +0.000 OA
ENDBRANCH   9  16
ENDBRANCH   8  12
ENDBRANCH   7   8
ENDBRANCH   1   7
BRANCH   4  17
ATOM     17  CA  PHE A   1       6.363   5.894  17.055  0.00  0.00    +0.000 C 
BRANCH  17  18
ATOM     18  C   PHE A   1       7.371   4.899  16.466  0.00  0.00    +0.000 C 
ATOM     19  O   PHE A   1       8.074   4.162  17.154  0.00  0.00    +0.000 OA
BRANCH  18  20
ATOM     20  OXT PHE A   1       7.388   4.824  15.115  0.00  0.00    +0.000 OA
ATOM     21  HXT PHE A   1       7.287   5.671  14.642  0.00  0.00    +0.000 HD
ENDBRANCH  18  20
ENDBRANCH  17  18
BRANCH  17  22
ATOM     22  CB  PHE A   1       4.989   5.787  16.371  0.00  0.00    +0.000 C 
BRANCH  22  23
ATOM     23  CG  PHE A   1       3.943   5.000  17.125  0.00  0.00    +0.000 A 
ATOM     24  CD1 PHE A   1       3.027   5.639  17.972  0.00  0.00    +0.000 A 
ATOM     25  CE1 PHE A   1       2.011   4.910  18.591  0.00  0.00    +0.000 A 
ATOM     26  CZ  PHE A   1       1.900   3.538  18.368  0.00  0.00    +0.000 A 
ATOM     27  CE2 PHE A   1       2.830   2.887  17.561  0.00  0.00    +0.000 A 
ATOM     28  CD2 PHE A   1       3.853   3.612  16.951  0.00  0.00    +0.000 A 
ENDBRANCH  22  23
ENDBRANCH  17  22
ENDBRANCH   4  17
TORSDOF 9
ENDMDL
MODEL 4
REMARK VINA RESULT:      -7.5      1.448      2.092
REMARK  Name = 
REMARK  10 active torsions:
REMARK  status: ('A' for Active; 'I' for Inactive)
REMARK    1  A    between atoms: C_1  and  O_2
REMARK    2  A    between atoms: O_2  and  C_3
REMARK    3  A    between atoms: C_6  and  C_7
REMARK    4  A    between atoms: C_7  and  C_8
REMARK    5  A    between atoms: C_8  and  N_9
REMARK    6  A    between atoms: N_12  and  CA_13
REMARK    7  A    between atoms: CA_13  and  CB_14
REMARK    8  A    between atoms: CA_13  and  C_21
REMARK    9  A    between atoms: CB_14  and  CG_15
REMARK   10  A    between atoms: C_21  and  OXT_23
REMARK                            x       y       z     vdW  Elec       q    Type
REMARK                         _______ _______ _______ _____ _____    ______ ____
ROOT
ATOM      1  N   UNK A   0       7.904   7.531  18.050  0.00  0.00    +0.000 N 
ATOM      2  C   UNK A   0       6.942   6.852  17.350  0.00  0.00    +0.000 C 
ATOM      3  O   UNK A   0       6.101   7.377  16.638  0.00  0.00    +0.000 OA
ATOM      4  N   PHE A   1       7.063   5.500  17.491  0.00  0.00    +0.000 N 
ATOM      5  H   UNK A   0       8.741   6.986  18.198  0.00  0.00    +0.000 HD
ATOM      6  H   PHE A   1       7.471   5.155  18.355  0.00  0.00    +0.000 HD
ENDROOT
BRANCH   1   7
ATOM      7  C   UNK A   0       8.117   8.960  17.827  0.00  0.00    +0.000 C 
BRANCH   7   8
ATOM      8  C   UNK A   0       9.022   9.638  18.864  0.00  0.00    +0.000 C 
BRANCH   8  12
ATOM      9  C   UNK A   0      10.604  13.439  17.521  0.00  0.00    +0.000 A 
ATOM     10  C   UNK A   0      11.461  12.432  17.965  0.00  0.00    +0.000 A 
ATOM     11  C   UNK A   0      10.950  11.198  18.385  0.00  0.00    +0.000 A 
ATOM     12  C   UNK A   0       9.570  10.962  18.382  0.00  0.00    +0.000 A 
ATOM     13  C   UNK A   0       8.715  11.975  17.936  0.00  0.00    +0.000 A 
ATOM     14  C   UNK A   0       9.228  13.207  17.507  0.00  0.00    +0.000 A 
BRANCH   9  16
ATOM     15  C   UNK A   0      10.431  15.793  17.342  0.00  0.00    +0.000 C 
ATOM     16  O   UNK A   0      11.211  14.614  17.171  0.00  0.00    +0.000 OA
ENDBRANCH   9  16
ENDBRANCH   8  12
ENDBRANCH   7   8
ENDBRANCH   1   7
BRANCH   4  17
ATOM     17  CA  PHE A   1       6.191   4.564  16.771  0.00  0.00    +0.000 C 
BRANCH  17  18
ATOM     18  C   PHE A   1       6.687   4.448  15.323  0.00  0.00    +0.000 C 
ATOM     19  O   PHE A   1       6.185   3.691  14.496  0.00  0.00    +0.000 OA
BRANCH  18  20
ATOM     20  OXT PHE A   1       7.682   5.299  14.982  0.00  0.00    +0.000 OA
ATOM     21  HXT PHE A   1       8.505   4.884  14.664  0.00  0.00    +0.000 HD
ENDBRANCH  18  20
ENDBRANCH  17  18
BRANCH  17  22
ATOM     22  CB  PHE A   1       4.700   4.942  16.834  0.00  0.00    +0.000 C 
BRANCH  22  23
ATOM     23  CG  PHE A   1       3.837   4.054  17.700  0.00  0.00    +0.000 A 
ATOM     24  CD1 PHE A   1       2.461   3.932  17.467  0.00  0.00    +0.000 A 
ATOM     25  CE1 PHE A   1       1.694   3.040  18.217  0.00  0.00    +0.000 A 
ATOM     26  CZ  PHE A   1       2.296   2.260  19.204  0.00  0.00    +0.000 A 
ATOM     27  CE2 PHE A   1       3.655   2.403  19.471  0.00  0.00    +0.000 A 
ATOM     28  CD2 PHE A   1       4.421   3.303  18.730  0.00  0.00    +0.000 A 
ENDBRANCH  22  23
ENDBRANCH  17  22
ENDBRANCH   4  17
TORSDOF 9
ENDMDL
MODEL 5
REMARK VINA RESULT:      -7.5      1.512      2.046
REMARK  Name = 
REMARK  10 active torsions:
REMARK  status: ('A' for Active; 'I' for Inactive)
REMARK    1  A    between atoms: C_1  and  O_2
REMARK    2  A    between atoms: O_2  and  C_3
REMARK    3  A    between atoms: C_6  and  C_7
REMARK    4  A    between atoms: C_7  and  C_8
REMARK    5  A    between atoms: C_8  and  N_9
REMARK    6  A    between atoms: N_12  and  CA_13
REMARK    7  A    between atoms: CA_13  and  CB_14
REMARK    8  A    between atoms: CA_13  and  C_21
REMARK    9  A    between atoms: CB_14  and  CG_15
REMARK   10  A    between atoms: C_21  and  OXT_23
REMARK                            x       y       z     vdW  Elec       q    Type
REMARK                         _______ _______ _______ _____ _____    ______ ____
ROOT
ATOM      1  N   UNK A   0       8.281   7.970  18.418  0.00  0.00    +0.000 N 
ATOM      2  C   UNK A   0       7.221   7.420  17.747  0.00  0.00    +0.000 C 
ATOM      3  O   UNK A   0       6.441   8.046  17.048  0.00  0.00    +0.000 OA
ATOM      4  N   PHE A   1       7.165   6.064  17.901  0.00  0.00    +0.000 N 
ATOM      5  H   UNK A   0       9.041   7.320  18.554  0.00  0.00    +0.000 HD
ATOM      6  H   PHE A   1       7.542   5.676  18.760  0.00  0.00    +0.000 HD
ENDROOT
BRANCH   1   7
ATOM      7  C   UNK A   0       8.676   9.356  18.174  0.00  0.00    +0.000 C 
BRANCH   7   8
ATOM      8  C   UNK A   0       9.305  10.061  19.384  0.00  0.00    +0.000 C 
BRANCH   8  12
ATOM      9  C   UNK A   0      11.554  13.582  18.245  0.00  0.00    +0.000 A 
ATOM     10  C   UNK A   0      10.623  13.023  17.370  0.00  0.00    +0.000 A 
ATOM     11  C   UNK A   0       9.885  11.893  17.744  0.00  0.00    +0.000 A 
ATOM     12  C   UNK A   0      10.083  11.298  18.997  0.00  0.00    +0.000 A 
ATOM     13  C   UNK A   0      11.018  11.863  19.870  0.00  0.00    +0.000 A 
ATOM     14  C   UNK A   0      11.750  12.999  19.497  0.00  0.00    +0.000 A 
BRANCH   9  16
ATOM     15  C   UNK A   0      11.543  15.901  17.769  0.00  0.00    +0.000 C 
ATOM     16  O   UNK A   0      12.242  14.660  17.758  0.00  0.00    +0.000 OA
ENDBRANCH   9  16
ENDBRANCH   8  12
ENDBRANCH   7   8
ENDBRANCH   1   7
BRANCH   4  17
ATOM     17  CA  PHE A   1       6.159   5.248  17.211  0.00  0.00    +0.000 C 
BRANCH  17  18
ATOM     18  C   PHE A   1       6.475   5.247  15.709  0.00  0.00    +0.000 C 
ATOM     19  O   PHE A   1       7.416   4.628  15.217  0.00  0.00    +0.000 OA
BRANCH  18  20
ATOM     20  OXT PHE A   1       5.595   5.919  14.933  0.00  0.00    +0.000 OA
ATOM     21  HXT PHE A   1       4.885   5.383  14.534  0.00  0.00    +0.000 HD
ENDBRANCH  18  20
ENDBRANCH  17  18
BRANCH  17  22
ATOM     22  CB  PHE A   1       4.711   5.691  17.489  0.00  0.00    +0.000 C 
BRANCH  22  23
ATOM     23  CG  PHE A   1       3.729   4.578  17.769  0.00  0.00    +0.000 A 
ATOM     24  CD1 PHE A   1       2.358   4.837  17.895  0.00  0.00    +0.000 A 
ATOM     25  CE1 PHE A   1       1.454   3.787  18.064  0.00  0.00    +0.000 A 
ATOM     26  CZ  PHE A   1       1.912   2.472  18.108  0.00  0.00    +0.000 A 
ATOM     27  CE2 PHE A   1       3.277   2.207  18.025  0.00  0.00    +0.000 A 
ATOM     28  CD2 PHE A   1       4.182   3.256  17.867  0.00  0.00    +0.000 A 
ENDBRANCH  22  23
ENDBRANCH  17  22
ENDBRANCH   4  17
TORSDOF 9
ENDMDL
MODEL 6
REMARK VINA RESULT:      -7.4      1.326      1.598
REMARK  Name = 
REMARK  10 active torsions:
REMARK  status: ('A' for Active; 'I' for Inactive)
REMARK    1  A    between atoms: C_1  and  O_2
REMARK    2  A    between atoms: O_2  and  C_3
REMARK    3  A    between atoms: C_6  and  C_7
REMARK    4  A    between atoms: C_7  and  C_8
REMARK    5  A    between atoms: C_8  and  N_9
REMARK    6  A    between atoms: N_12  and  CA_13
REMARK    7  A    between atoms: CA_13  and  CB_14
REMARK    8  A    between atoms: CA_13  and  C_21
REMARK    9  A    between atoms: CB_14  and  CG_15
REMARK   10  A    between atoms: C_21  and  OXT_23
REMARK                            x       y       z     vdW  Elec       q    Type
REMARK                         _______ _______ _______ _____ _____    ______ ____
ROOT
ATOM      1  N   UNK A   0       8.209   9.123  17.788  0.00  0.00    +0.000 N 
ATOM      2  C   UNK A   0       7.873   7.802  17.928  0.00  0.00    +0.000 C 
ATOM      3  O   UNK A   0       8.301   7.065  18.801  0.00  0.00    +0.000 OA
ATOM      4  N   PHE A   1       6.948   7.408  17.004  0.00  0.00    +0.000 N 
ATOM      5  H   UNK A   0       7.480   9.671  17.354  0.00  0.00    +0.000 HD
ATOM      6  H   PHE A   1       6.943   7.893  16.112  0.00  0.00    +0.000 HD
ENDROOT
BRANCH   1   7
ATOM      7  C   UNK A   0       8.974   9.808  18.828  0.00  0.00    +0.000 C 
BRANCH   7   8
ATOM      8  C   UNK A   0       9.786  11.012  18.331  0.00  0.00    +0.000 C 
BRANCH   8  12
ATOM      9  C   UNK A   0       7.888  14.777  19.322  0.00  0.00    +0.000 A 
ATOM     10  C   UNK A   0       8.586  14.059  20.293  0.00  0.00    +0.000 A 
ATOM     11  C   UNK A   0       9.212  12.849  19.968  0.00  0.00    +0.000 A 
ATOM     12  C   UNK A   0       9.133  12.334  18.668  0.00  0.00    +0.000 A 
ATOM     13  C   UNK A   0       8.431  13.058  17.699  0.00  0.00    +0.000 A 
ATOM     14  C   UNK A   0       7.812  14.273  18.023  0.00  0.00    +0.000 A 
BRANCH   9  16
ATOM     15  C   UNK A   0       8.020  16.687  20.713  0.00  0.00    +0.000 C 
ATOM     16  O   UNK A   0       7.286  15.924  19.762  0.00  0.00    +0.000 OA
ENDBRANCH   9  16
ENDBRANCH   8  12
ENDBRANCH   7   8
ENDBRANCH   1   7
BRANCH   4  17
ATOM     17  CA  PHE A   1       6.378   6.056  17.006  0.00  0.00    +0.000 C 
BRANCH  17  18
ATOM     18  C   PHE A   1       7.369   5.106  16.321  0.00  0.00    +0.000 C 
ATOM     19  O   PHE A   1       7.975   4.218  16.915  0.00  0.00    +0.000 OA
BRANCH  18  20
ATOM     20  OXT PHE A   1       7.483   5.257  14.981  0.00  0.00    +0.000 OA
ATOM     21  HXT PHE A   1       6.645   5.249  14.481  0.00  0.00    +0.000 HD
ENDBRANCH  18  20
ENDBRANCH  17  18
BRANCH  17  22
ATOM     22  CB  PHE A   1       4.979   5.978  16.368  0.00  0.00    +0.000 C 
BRANCH  22  23
ATOM     23  CG  PHE A   1       3.968   5.136  17.110  0.00  0.00    +0.000 A 
ATOM     24  CD1 PHE A   1       3.950   3.741  16.977  0.00  0.00    +0.000 A 
ATOM     25  CE1 PHE A   1       3.070   2.971  17.738  0.00  0.00    +0.000 A 
ATOM     26  CZ  PHE A   1       2.203   3.587  18.639  0.00  0.00    +0.000 A 
ATOM     27  CE2 PHE A   1       2.184   4.975  18.749  0.00  0.00    +0.000 A 
ATOM     28  CD2 PHE A   1       3.055   5.747  17.981  0.00  0.00    +0.000 A 
ENDBRANCH  22  23
ENDBRANCH  17  22
ENDBRANCH   4  17
TORSDOF 9
ENDMDL
MODEL 7
REMARK VINA RESULT:      -7.4      1.261      1.856
REMARK  Name = 
REMARK  10 active torsions:
REMARK  status: ('A' for Active; 'I' for Inactive)
REMARK    1  A    between atoms: C_1  and  O_2
REMARK    2  A    between atoms: O_2  and  C_3
REMARK    3  A    between atoms: C_6  and  C_7
REMARK    4  A    between atoms: C_7  and  C_8
REMARK    5  A    between atoms: C_8  and  N_9
REMARK    6  A    between atoms: N_12  and  CA_13
REMARK    7  A    between atoms: CA_13  and  CB_14
REMARK    8  A    between atoms: CA_13  and  C_21
REMARK    9  A    between atoms: CB_14  and  CG_15
REMARK   10  A    between atoms: C_21  and  OXT_23
REMARK                            x       y       z     vdW  Elec       q    Type
REMARK                         _______ _______ _______ _____ _____    ______ ____
ROOT
ATOM      1  N   UNK A   0       8.019   8.711  17.601  0.00  0.00    +0.000 N 
ATOM      2  C   UNK A   0       7.631   7.405  17.741  0.00  0.00    +0.000 C 
ATOM      3  O   UNK A   0       8.049   6.644  18.600  0.00  0.00    +0.000 OA
ATOM      4  N   PHE A   1       6.667   7.056  16.839  0.00  0.00    +0.000 N 
ATOM      5  H   UNK A   0       7.304   9.292  17.188  0.00  0.00    +0.000 HD
ATOM      6  H   PHE A   1       6.661   7.546  15.950  0.00  0.00    +0.000 HD
ENDROOT
BRANCH   1   7
ATOM      7  C   UNK A   0       8.838   9.357  18.625  0.00  0.00    +0.000 C 
BRANCH   7   8
ATOM      8  C   UNK A   0       8.446  10.810  18.930  0.00  0.00    +0.000 C 
BRANCH   8  12
ATOM      9  C   UNK A   0      11.327  13.665  17.415  0.00  0.00    +0.000 A 
ATOM     10  C   UNK A   0      11.705  12.348  17.673  0.00  0.00    +0.000 A 
ATOM     11  C   UNK A   0      10.769  11.421  18.148  0.00  0.00    +0.000 A 
ATOM     12  C   UNK A   0       9.444  11.808  18.388  0.00  0.00    +0.000 A 
ATOM     13  C   UNK A   0       9.072  13.130  18.129  0.00  0.00    +0.000 A 
ATOM     14  C   UNK A   0      10.007  14.055  17.644  0.00  0.00    +0.000 A 
BRANCH   9  16
ATOM     15  C   UNK A   0      12.256  15.843  17.428  0.00  0.00    +0.000 C 
ATOM     16  O   UNK A   0      12.333  14.491  16.989  0.00  0.00    +0.000 OA
ENDBRANCH   9  16
ENDBRANCH   8  12
ENDBRANCH   7   8
ENDBRANCH   1   7
BRANCH   4  17
ATOM     17  CA  PHE A   1       6.041   5.729  16.848  0.00  0.00    +0.000 C 
BRANCH  17  18
ATOM     18  C   PHE A   1       6.676   4.880  15.738  0.00  0.00    +0.000 C 
ATOM     19  O   PHE A   1       6.389   3.702  15.541  0.00  0.00    +0.000 OA
BRANCH  18  20
ATOM     20  OXT PHE A   1       7.531   5.540  14.923  0.00  0.00    +0.000 OA
ATOM     21  HXT PHE A   1       7.328   6.481  14.768  0.00  0.00    +0.000 HD
ENDBRANCH  18  20
ENDBRANCH  17  18
BRANCH  17  22
ATOM     22  CB  PHE A   1       4.507   5.773  16.726  0.00  0.00    +0.000 C 
BRANCH  22  23
ATOM     23  CG  PHE A   1       3.748   4.916  17.712  0.00  0.00    +0.000 A 
ATOM     24  CD1 PHE A   1       2.357   5.018  17.840  0.00  0.00    +0.000 A 
ATOM     25  CE1 PHE A   1       1.661   4.158  18.690  0.00  0.00    +0.000 A 
ATOM     26  CZ  PHE A   1       2.348   3.187  19.416  0.00  0.00    +0.000 A 
ATOM     27  CE2 PHE A   1       3.735   3.104  19.328  0.00  0.00    +0.000 A 
ATOM     28  CD2 PHE A   1       4.434   3.970  18.487  0.00  0.00    +0.000 A 
ENDBRANCH  22  23
ENDBRANCH  17  22
ENDBRANCH   4  17
TORSDOF 9
ENDMDL
MODEL 8
REMARK VINA RESULT:      -7.3      1.095      1.354
REMARK  Name = 
REMARK  10 active torsions:
REMARK  status: ('A' for Active; 'I' for Inactive)
REMARK    1  A    between atoms: C_1  and  O_2
REMARK    2  A    between atoms: O_2  and  C_3
REMARK    3  A    between atoms: C_6  and  C_7
REMARK    4  A    between atoms: C_7  and  C_8
REMARK    5  A    between atoms: C_8  and  N_9
REMARK    6  A    between atoms: N_12  and  CA_13
REMARK    7  A    between atoms: CA_13  and  CB_14
REMARK    8  A    between atoms: CA_13  and  C_21
REMARK    9  A    between atoms: CB_14  and  CG_15
REMARK   10  A    between atoms: C_21  and  OXT_23
REMARK                            x       y       z     vdW  Elec       q    Type
REMARK                         _______ _______ _______ _____ _____    ______ ____
ROOT
ATOM      1  N   UNK A   0       8.032   9.251  17.722  0.00  0.00    +0.000 N 
ATOM      2  C   UNK A   0       7.803   7.912  17.897  0.00  0.00    +0.000 C 
ATOM      3  O   UNK A   0       8.379   7.210  18.712  0.00  0.00    +0.000 OA
ATOM      4  N   PHE A   1       6.803   7.453  17.088  0.00  0.00    +0.000 N 
ATOM      5  H   UNK A   0       7.223   9.747  17.377  0.00  0.00    +0.000 HD
ATOM      6  H   PHE A   1       6.662   7.931  16.204  0.00  0.00    +0.000 HD
ENDROOT
BRANCH   1   7
ATOM      7  C   UNK A   0       8.867   9.992  18.665  0.00  0.00    +0.000 C 
BRANCH   7   8
ATOM      8  C   UNK A   0       9.973  10.833  18.011  0.00  0.00    +0.000 C 
BRANCH   8  12
ATOM      9  C   UNK A   0       9.478  15.067  18.777  0.00  0.00    +0.000 A 
ATOM     10  C   UNK A   0       8.888  14.121  19.617  0.00  0.00    +0.000 A 
ATOM     11  C   UNK A   0       9.061  12.753  19.377  0.00  0.00    +0.000 A 
ATOM     12  C   UNK A   0       9.814  12.312  18.281  0.00  0.00    +0.000 A 
ATOM     13  C   UNK A   0      10.402  13.265  17.443  0.00  0.00    +0.000 A 
ATOM     14  C   UNK A   0      10.236  14.634  17.689  0.00  0.00    +0.000 A 
BRANCH   9  16
ATOM     15  C   UNK A   0       8.050  16.931  18.477  0.00  0.00    +0.000 C 
ATOM     16  O   UNK A   0       9.210  16.373  19.086  0.00  0.00    +0.000 OA
ENDBRANCH   9  16
ENDBRANCH   8  12
ENDBRANCH   7   8
ENDBRANCH   1   7
BRANCH   4  17
ATOM     17  CA  PHE A   1       6.329   6.066  17.155  0.00  0.00    +0.000 C 
BRANCH  17  18
ATOM     18  C   PHE A   1       6.909   5.291  15.964  0.00  0.00    +0.000 C 
ATOM     19  O   PHE A   1       7.816   4.469  16.070  0.00  0.00    +0.000 OA
BRANCH  18  20
ATOM     20  OXT PHE A   1       6.301   5.515  14.777  0.00  0.00    +0.000 OA
ATOM     21  HXT PHE A   1       5.483   5.008  14.617  0.00  0.00    +0.000 HD
ENDBRANCH  18  20
ENDBRANCH  17  18
BRANCH  17  22
ATOM     22  CB  PHE A   1       4.795   5.943  17.221  0.00  0.00    +0.000 C 
BRANCH  22  23
ATOM     23  CG  PHE A   1       4.267   4.658  17.815  0.00  0.00    +0.000 A 
ATOM     24  CD1 PHE A   1       3.291   3.903  17.152  0.00  0.00    +0.000 A 
ATOM     25  CE1 PHE A   1       2.879   2.674  17.668  0.00  0.00    +0.000 A 
ATOM     26  CZ  PHE A   1       3.440   2.188  18.848  0.00  0.00    +0.000 A 
ATOM     27  CE2 PHE A   1       4.382   2.950  19.536  0.00  0.00    +0.000 A 
ATOM     28  CD2 PHE A   1       4.786   4.184  19.027  0.00  0.00    +0.000 A 
ENDBRANCH  22  23
ENDBRANCH  17  22
ENDBRANCH   4  17
TORSDOF 9
ENDMDL
MODEL 9
REMARK VINA RESULT:      -7.3      1.244      1.328
REMARK  Name = 
REMARK  10 active torsions:
REMARK  status: ('A' for Active; 'I' for Inactive)
REMARK    1  A    between atoms: C_1  and  O_2
REMARK    2  A    between atoms: O_2  and  C_3
REMARK    3  A    between atoms: C_6  and  C_7
REMARK    4  A    between atoms: C_7  and  C_8
REMARK    5  A    between atoms: C_8  and  N_9
REMARK    6  A    between atoms: N_12  and  CA_13
REMARK    7  A    between atoms: CA_13  and  CB_14
REMARK    8  A    between atoms: CA_13  and  C_21
REMARK    9  A    between atoms: CB_14  and  CG_15
REMARK   10  A    between atoms: C_21  and  OXT_23
REMARK                            x       y       z     vdW  Elec       q    Type
REMARK                         _______ _______ _______ _____ _____    ______ ____
ROOT
ATOM      1  N   UNK A   0       7.822   8.957  17.605  0.00  0.00    +0.000 N 
ATOM      2  C   UNK A   0       7.655   7.622  17.864  0.00  0.00    +0.000 C 
ATOM      3  O   UNK A   0       8.246   7.004  18.734  0.00  0.00    +0.000 OA
ATOM      4  N   PHE A   1       6.697   7.062  17.068  0.00  0.00    +0.000 N 
ATOM      5  H   UNK A   0       6.998   9.389  17.214  0.00  0.00    +0.000 HD
ATOM      6  H   PHE A   1       6.552   7.474  16.151  0.00  0.00    +0.000 HD
ENDROOT
BRANCH   1   7
ATOM      7  C   UNK A   0       8.599   9.798  18.514  0.00  0.00    +0.000 C 
BRANCH   7   8
ATOM      8  C   UNK A   0       9.796  10.503  17.861  0.00  0.00    +0.000 C 
BRANCH   8  12
ATOM      9  C   UNK A   0      10.292  14.589  19.208  0.00  0.00    +0.000 A 
ATOM     10  C   UNK A   0       9.145  14.207  18.512  0.00  0.00    +0.000 A 
ATOM     11  C   UNK A   0       8.979  12.883  18.090  0.00  0.00    +0.000 A 
ATOM     12  C   UNK A   0       9.969  11.925  18.345  0.00  0.00    +0.000 A 
ATOM     13  C   UNK A   0      11.117  12.314  19.043  0.00  0.00    +0.000 A 
ATOM     14  C   UNK A   0      11.278  13.638  19.473  0.00  0.00    +0.000 A 
BRANCH   9  16
ATOM     15  C   UNK A   0      10.991  16.215  20.781  0.00  0.00    +0.000 C 
ATOM     16  O   UNK A   0      10.364  15.915  19.538  0.00  0.00    +0.000 OA
ENDBRANCH   9  16
ENDBRANCH   8  12
ENDBRANCH   7   8
ENDBRANCH   1   7
BRANCH   4  17
ATOM     17  CA  PHE A   1       6.289   5.660  17.216  0.00  0.00    +0.000 C 
BRANCH  17  18
ATOM     18  C   PHE A   1       7.300   4.775  16.475  0.00  0.00    +0.000 C 
ATOM     19  O   PHE A   1       7.380   4.721  15.250  0.00  0.00    +0.000 OA
BRANCH  18  20
ATOM     20  OXT PHE A   1       8.166   4.100  17.265  0.00  0.00    +0.000 OA
ATOM     21  HXT PHE A   1       7.797   3.749  18.097  0.00  0.00    +0.000 HD
ENDBRANCH  18  20
ENDBRANCH  17  18
BRANCH  17  22
ATOM     22  CB  PHE A   1       4.846   5.388  16.754  0.00  0.00    +0.000 C 
BRANCH  22  23
ATOM     23  CG  PHE A   1       4.066   4.402  17.592  0.00  0.00    +0.000 A 
ATOM     24  CD1 PHE A   1       4.651   3.770  18.698  0.00  0.00    +0.000 A 
ATOM     25  CE1 PHE A   1       3.892   2.931  19.514  0.00  0.00    +0.000 A 
ATOM     26  CZ  PHE A   1       2.543   2.719  19.235  0.00  0.00    +0.000 A 
ATOM     27  CE2 PHE A   1       1.963   3.310  18.116  0.00  0.00    +0.000 A 
ATOM     28  CD2 PHE A   1       2.723   4.139  17.292  0.00  0.00    +0.000 A 
ENDBRANCH  22  23
ENDBRANCH  17  22
ENDBRANCH   4  17
TORSDOF 9
ENDMDL
