MODEL 1
REMARK VINA RESULT:      -7.6      0.000      0.000
REMARK  Name = 
REMARK  3 active torsions:
REMARK  status: ('A' for Active; 'I' for Inactive)
REMARK    1  A    between atoms: N_1  and  N_2
REMARK    2  A    between atoms: C_3  and  C_5
REMARK    3  A    between atoms: C_10  and  C_11
REMARK                            x       y       z     vdW  Elec       q    Type
REMARK                         _______ _______ _______ _____ _____    ______ ____
ROOT
ATOM      1  C   UNL     1       5.384   4.825  15.802  0.00  0.00    +0.000 A 
ATOM      2  C   UNL     1       4.907   3.736  16.657  0.00  0.00    +0.000 A 
ATOM      3  C   UNL     1       4.042   3.954  17.666  0.00  0.00    +0.000 A 
ATOM      4  C   UNL     1       3.586   5.276  17.928  0.00  0.00    +0.000 A 
ATOM      5  N   UNL     1       2.770   5.746  18.846  0.00  0.00    +0.000 NA
ATOM      6  C   UNL     1       2.722   7.106  18.643  0.00  0.00    +0.000 A 
ATOM      7  C   UNL     1       3.519   7.461  17.571  0.00  0.00    +0.000 A 
ATOM      8  N   UNL     1       4.073   6.293  17.115  0.00  0.00    +0.000 N 
ATOM      9  C   UNL     1       4.965   6.080  16.066  0.00  0.00    +0.000 A 
ENDROOT
BRANCH   6  10
ATOM     10  C   UNL     1       1.932   8.008  19.474  0.00  0.00    +0.000 A 
ATOM     11  C   UNL     1       1.614   7.635  20.790  0.00  0.00    +0.000 A 
ATOM     12  C   UNL     1       0.862   8.477  21.616  0.00  0.00    +0.000 A 
ATOM     13  C   UNL     1       0.421   9.704  21.128  0.00  0.00    +0.000 A 
ATOM     14 BR   UNL     1      -0.595  10.850  22.237  0.00  0.00    +0.000 Br
ATOM     15  C   UNL     1       0.724  10.094  19.826  0.00  0.00    +0.000 A 
ATOM     16  C   UNL     1       1.477   9.249  19.004  0.00  0.00    +0.000 A 
ENDBRANCH   6  10
BRANCH   1  18
ATOM     17  N   UNL     1       7.389   5.592  14.668  0.00  0.00    +0.000 N 
ATOM     18  C   UNL     1       6.394   4.621  14.710  0.00  0.00    +0.000 C 
ATOM     19  O   UNL     1       6.321   3.668  13.940  0.00  0.00    +0.000 OA
ATOM     20  H   UNL     1       7.497   6.230  15.453  0.00  0.00    +0.000 HD
BRANCH  17  21
ATOM     21  N   UNL     1       8.420   5.504  13.718  0.00  0.00    +0.000 NA
ATOM     22  H   UNL     1       8.641   6.434  13.363  0.00  0.00    +0.000 HD
ATOM     23  H   UNL     1       8.060   4.973  12.914  0.00  0.00    +0.000 HD
ENDBRANCH  17  21
ENDBRANCH   1  18
TORSDOF 3
ENDMDL
MODEL 2
REMARK VINA RESULT:      -7.6      0.120      1.086
REMARK  Name = 
REMARK  3 active torsions:
REMARK  status: ('A' for Active; 'I' for Inactive)
REMARK    1  A    between atoms: N_1  and  N_2
REMARK    2  A    between atoms: C_3  and  C_5
REMARK    3  A    between atoms: C_10  and  C_11
REMARK                            x       y       z     vdW  Elec       q    Type
REMARK                         _______ _______ _______ _____ _____    ______ ____
ROOT
ATOM      1  C   UNL     1       5.285   4.819  15.867  0.00  0.00    +0.000 A 
ATOM      2  C   UNL     1       4.767   3.726  16.692  0.00  0.00    +0.000 A 
ATOM      3  C   UNL     1       3.895   3.947  17.694  0.00  0.00    +0.000 A 
ATOM      4  C   UNL     1       3.473   5.276  17.979  0.00  0.00    +0.000 A 
ATOM      5  N   UNL     1       2.659   5.749  18.897  0.00  0.00    +0.000 NA
ATOM      6  C   UNL     1       2.651   7.113  18.723  0.00  0.00    +0.000 A 
ATOM      7  C   UNL     1       3.471   7.468  17.669  0.00  0.00    +0.000 A 
ATOM      8  N   UNL     1       3.999   6.295  17.194  0.00  0.00    +0.000 N 
ATOM      9  C   UNL     1       4.898   6.079  16.152  0.00  0.00    +0.000 A 
ENDROOT
BRANCH   6  10
ATOM     10  C   UNL     1       1.876   8.020  19.563  0.00  0.00    +0.000 A 
ATOM     11  C   UNL     1       1.463   9.258  19.045  0.00  0.00    +0.000 A 
ATOM     12  C   UNL     1       0.716  10.150  19.822  0.00  0.00    +0.000 A 
ATOM     13  C   UNL     1       0.376   9.808  21.128  0.00  0.00    +0.000 A 
ATOM     14 BR   UNL     1      -0.635  11.007  22.184  0.00  0.00    +0.000 Br
ATOM     15  C   UNL     1       0.776   8.586  21.662  0.00  0.00    +0.000 A 
ATOM     16  C   UNL     1       1.523   7.696  20.882  0.00  0.00    +0.000 A 
ENDBRANCH   6  10
BRANCH   1  18
ATOM     17  N   UNL     1       7.301   5.578  14.746  0.00  0.00    +0.000 N 
ATOM     18  C   UNL     1       6.302   4.610  14.782  0.00  0.00    +0.000 C 
ATOM     19  O   UNL     1       6.233   3.655  14.014  0.00  0.00    +0.000 OA
ATOM     20  H   UNL     1       7.404   6.218  15.530  0.00  0.00    +0.000 HD
BRANCH  17  21
ATOM     21  N   UNL     1       8.339   5.484  13.804  0.00  0.00    +0.000 NA
ATOM     22  H   UNL     1       8.538   4.503  13.608  0.00  0.00    +0.000 HD
ATOM     23  H   UNL     1       9.190   5.863  14.239  0.00  0.00    +0.000 HD
ENDBRANCH  17  21
ENDBRANCH   1  18
TORSDOF 3
ENDMDL
MODEL 3
REMARK VINA RESULT:      -7.4      3.035      3.922
REMARK  Name = 
REMARK  3 active torsions:
REMARK  status: ('A' for Active; 'I' for Inactive)
REMARK    1  A    between atoms: N_1  and  N_2
REMARK    2  A    between atoms: C_3  and  C_5
REMARK    3  A    between atoms: C_10  and  C_11
REMARK                            x       y       z     vdW  Elec       q    Type
REMARK                         _______ _______ _______ _____ _____    ______ ____
ROOT
ATOM      1  C   UNL     1       3.591   4.541  18.803  0.00  0.00    +0.000 A 
ATOM      2  C   UNL     1       3.844   5.510  17.733  0.00  0.00    +0.000 A 
ATOM      3  C   UNL     1       3.372   6.770  17.794  0.00  0.00    +0.000 A 
ATOM      4  C   UNL     1       2.594   7.177  18.912  0.00  0.00    +0.000 A 
ATOM      5  N   UNL     1       2.015   8.324  19.195  0.00  0.00    +0.000 NA
ATOM      6  C   UNL     1       1.368   8.132  20.393  0.00  0.00    +0.000 A 
ATOM      7  C   UNL     1       1.570   6.842  20.847  0.00  0.00    +0.000 A 
ATOM      8  N   UNL     1       2.351   6.231  19.900  0.00  0.00    +0.000 N 
ATOM      9  C   UNL     1       2.836   4.925  19.852  0.00  0.00    +0.000 A 
ENDROOT
BRANCH   6  10
ATOM     10  C   UNL     1       0.583   9.170  21.051  0.00  0.00    +0.000 A 
ATOM     11  C   UNL     1       0.122  10.266  20.303  0.00  0.00    +0.000 A 
ATOM     12  C   UNL     1      -0.636  11.278  20.900  0.00  0.00    +0.000 A 
ATOM     13  C   UNL     1      -0.940  11.201  22.256  0.00  0.00    +0.000 A 
ATOM     14 BR   UNL     1      -1.967  12.563  23.073  0.00  0.00    +0.000 Br
ATOM     15  C   UNL     1      -0.494  10.123  23.017  0.00  0.00    +0.000 A 
ATOM     16  C   UNL     1       0.264   9.113  22.416  0.00  0.00    +0.000 A 
ENDBRANCH   6  10
BRANCH   1  18
ATOM     17  N   UNL     1       4.724   2.679  19.872  0.00  0.00    +0.000 N 
ATOM     18  C   UNL     1       4.052   3.114  18.735  0.00  0.00    +0.000 C 
ATOM     19  O   UNL     1       3.834   2.416  17.748  0.00  0.00    +0.000 OA
ATOM     20  H   UNL     1       4.691   3.244  20.718  0.00  0.00    +0.000 HD
BRANCH  17  21
ATOM     21  N   UNL     1       5.179   1.353  19.958  0.00  0.00    +0.000 NA
ATOM     22  H   UNL     1       4.567   0.820  20.577  0.00  0.00    +0.000 HD
ATOM     23  H   UNL     1       6.099   1.368  20.416  0.00  0.00    +0.000 HD
ENDBRANCH  17  21
ENDBRANCH   1  18
TORSDOF 3
ENDMDL
MODEL 4
REMARK VINA RESULT:      -7.4      3.127      3.825
REMARK  Name = 
REMARK  3 active torsions:
REMARK  status: ('A' for Active; 'I' for Inactive)
REMARK    1  A    between atoms: N_1  and  N_2
REMARK    2  A    between atoms: C_3  and  C_5
REMARK    3  A    between atoms: C_10  and  C_11
REMARK                            x       y       z     vdW  Elec       q    Type
REMARK                         _______ _______ _______ _____ _____    ______ ____
ROOT
ATOM      1  C   UNL     1       3.542   4.111  18.989  0.00  0.00    +0.000 A 
ATOM      2  C   UNL     1       3.849   4.999  17.866  0.00  0.00    +0.000 A 
ATOM      3  C   UNL     1       3.447   6.284  17.849  0.00  0.00    +0.000 A 
ATOM      4  C   UNL     1       2.689   6.798  18.938  0.00  0.00    +0.000 A 
ATOM      5  N   UNL     1       2.173   7.989  19.149  0.00  0.00    +0.000 NA
ATOM      6  C   UNL     1       1.513   7.903  20.353  0.00  0.00    +0.000 A 
ATOM      7  C   UNL     1       1.644   6.633  20.883  0.00  0.00    +0.000 A 
ATOM      8  N   UNL     1       2.393   5.926  19.978  0.00  0.00    +0.000 N 
ATOM      9  C   UNL     1       2.806   4.596  20.010  0.00  0.00    +0.000 A 
ENDROOT
BRANCH   6  10
ATOM     10  C   UNL     1       0.783   9.020  20.944  0.00  0.00    +0.000 A 
ATOM     11  C   UNL     1       0.381   8.948  22.287  0.00  0.00    +0.000 A 
ATOM     12  C   UNL     1      -0.317  10.001  22.887  0.00  0.00    +0.000 A 
ATOM     13  C   UNL     1      -0.619  11.139  22.144  0.00  0.00    +0.000 A 
ATOM     14 BR   UNL     1      -1.560  12.569  22.947  0.00  0.00    +0.000 Br
ATOM     15  C   UNL     1      -0.229  11.231  20.810  0.00  0.00    +0.000 A 
ATOM     16  C   UNL     1       0.469  10.175  20.214  0.00  0.00    +0.000 A 
ENDBRANCH   6  10
BRANCH   1  18
ATOM     17  N   UNL     1       4.869   2.333  19.976  0.00  0.00    +0.000 N 
ATOM     18  C   UNL     1       3.924   2.659  19.008  0.00  0.00    +0.000 C 
ATOM     19  O   UNL     1       3.426   1.854  18.227  0.00  0.00    +0.000 OA
ATOM     20  H   UNL     1       5.085   3.005  20.709  0.00  0.00    +0.000 HD
BRANCH  17  21
ATOM     21  N   UNL     1       5.291   1.002  20.129  0.00  0.00    +0.000 NA
ATOM     22  H   UNL     1       5.375   0.560  19.213  0.00  0.00    +0.000 HD
ATOM     23  H   UNL     1       4.546   0.493  20.621  0.00  0.00    +0.000 HD
ENDBRANCH  17  21
ENDBRANCH   1  18
TORSDOF 3
ENDMDL
MODEL 5
REMARK VINA RESULT:      -7.3      1.074      1.279
REMARK  Name = 
REMARK  3 active torsions:
REMARK  status: ('A' for Active; 'I' for Inactive)
REMARK    1  A    between atoms: N_1  and  N_2
REMARK    2  A    between atoms: C_3  and  C_5
REMARK    3  A    between atoms: C_10  and  C_11
REMARK                            x       y       z     vdW  Elec       q    Type
REMARK                         _______ _______ _______ _____ _____    ______ ____
ROOT
ATOM      1  C   UNL     1       4.860   4.942  17.079  0.00  0.00    +0.000 A 
ATOM      2  C   UNL     1       4.517   4.017  18.161  0.00  0.00    +0.000 A 
ATOM      3  C   UNL     1       3.685   4.373  19.159  0.00  0.00    +0.000 A 
ATOM      4  C   UNL     1       3.134   5.684  19.182  0.00  0.00    +0.000 A 
ATOM      5  N   UNL     1       2.326   6.270  20.038  0.00  0.00    +0.000 NA
ATOM      6  C   UNL     1       2.155   7.553  19.573  0.00  0.00    +0.000 A 
ATOM      7  C   UNL     1       2.867   7.740  18.403  0.00  0.00    +0.000 A 
ATOM      8  N   UNL     1       3.496   6.547  18.154  0.00  0.00    +0.000 N 
ATOM      9  C   UNL     1       4.351   6.190  17.114  0.00  0.00    +0.000 A 
ENDROOT
BRANCH   6  10
ATOM     10  C   UNL     1       1.333   8.546  20.256  0.00  0.00    +0.000 A 
ATOM     11  C   UNL     1       1.085   8.408  21.632  0.00  0.00    +0.000 A 
ATOM     12  C   UNL     1       0.305   9.343  22.320  0.00  0.00    +0.000 A 
ATOM     13  C   UNL     1      -0.236  10.427  21.633  0.00  0.00    +0.000 A 
ATOM     14 BR   UNL     1      -1.291  11.697  22.555  0.00  0.00    +0.000 Br
ATOM     15  C   UNL     1      -0.003  10.583  20.269  0.00  0.00    +0.000 A 
ATOM     16  C   UNL     1       0.779   9.645  19.585  0.00  0.00    +0.000 A 
ENDBRANCH   6  10
BRANCH   1  18
ATOM     17  N   UNL     1       6.620   5.660  15.567  0.00  0.00    +0.000 N 
ATOM     18  C   UNL     1       5.831   4.594  15.987  0.00  0.00    +0.000 C 
ATOM     19  O   UNL     1       5.899   3.457  15.528  0.00  0.00    +0.000 OA
ATOM     20  H   UNL     1       6.646   6.511  16.125  0.00  0.00    +0.000 HD
BRANCH  17  21
ATOM     21  N   UNL     1       7.597   5.467  14.576  0.00  0.00    +0.000 NA
ATOM     22  H   UNL     1       7.206   4.914  13.812  0.00  0.00    +0.000 HD
ATOM     23  H   UNL     1       8.346   4.894  14.984  0.00  0.00    +0.000 HD
ENDBRANCH  17  21
ENDBRANCH   1  18
TORSDOF 3
ENDMDL
MODEL 6
REMARK VINA RESULT:      -7.2      1.138      1.613
REMARK  Name = 
REMARK  3 active torsions:
REMARK  status: ('A' for Active; 'I' for Inactive)
REMARK    1  A    between atoms: N_1  and  N_2
REMARK    2  A    between atoms: C_3  and  C_5
REMARK    3  A    between atoms: C_10  and  C_11
REMARK                            x       y       z     vdW  Elec       q    Type
REMARK                         _______ _______ _______ _____ _____    ______ ____
ROOT
ATOM      1  C   UNL     1       5.627   5.326  16.434  0.00  0.00    +0.000 A 
ATOM      2  C   UNL     1       4.841   4.277  17.087  0.00  0.00    +0.000 A 
ATOM      3  C   UNL     1       3.735   4.562  17.801  0.00  0.00    +0.000 A 
ATOM      4  C   UNL     1       3.319   5.915  17.945  0.00  0.00    +0.000 A 
ATOM      5  N   UNL     1       2.306   6.447  18.592  0.00  0.00    +0.000 NA
ATOM      6  C   UNL     1       2.418   7.806  18.412  0.00  0.00    +0.000 A 
ATOM      7  C   UNL     1       3.519   8.098  17.629  0.00  0.00    +0.000 A 
ATOM      8  N   UNL     1       4.097   6.890  17.333  0.00  0.00    +0.000 N 
ATOM      9  C   UNL     1       5.241   6.608  16.588  0.00  0.00    +0.000 A 
ENDROOT
BRANCH   6  10
ATOM     10  C   UNL     1       1.486   8.767  18.992  0.00  0.00    +0.000 A 
ATOM     11  C   UNL     1       0.854   9.705  18.159  0.00  0.00    +0.000 A 
ATOM     12  C   UNL     1      -0.048  10.638  18.681  0.00  0.00    +0.000 A 
ATOM     13  C   UNL     1      -0.323  10.640  20.046  0.00  0.00    +0.000 A 
ATOM     14 BR   UNL     1      -1.542  11.897  20.760  0.00  0.00    +0.000 Br
ATOM     15  C   UNL     1       0.292   9.720  20.889  0.00  0.00    +0.000 A 
ATOM     16  C   UNL     1       1.193   8.787  20.364  0.00  0.00    +0.000 A 
ENDBRANCH   6  10
BRANCH   1  18
ATOM     17  N   UNL     1       6.914   5.549  14.387  0.00  0.00    +0.000 N 
ATOM     18  C   UNL     1       6.896   5.044  15.683  0.00  0.00    +0.000 C 
ATOM     19  O   UNL     1       7.821   4.422  16.197  0.00  0.00    +0.000 OA
ATOM     20  H   UNL     1       6.201   6.218  14.103  0.00  0.00    +0.000 HD
BRANCH  17  21
ATOM     21  N   UNL     1       8.055   5.390  13.584  0.00  0.00    +0.000 NA
ATOM     22  H   UNL     1       8.214   6.238  13.040  0.00  0.00    +0.000 HD
ATOM     23  H   UNL     1       7.854   4.649  12.900  0.00  0.00    +0.000 HD
ENDBRANCH  17  21
ENDBRANCH   1  18
TORSDOF 3
ENDMDL
MODEL 7
REMARK VINA RESULT:      -7.2      1.507      1.701
REMARK  Name = 
REMARK  3 active torsions:
REMARK  status: ('A' for Active; 'I' for Inactive)
REMARK    1  A    between atoms: N_1  and  N_2
REMARK    2  A    between atoms: C_3  and  C_5
REMARK    3  A    between atoms: C_10  and  C_11
REMARK                            x       y       z     vdW  Elec       q    Type
REMARK                         _______ _______ _______ _____ _____    ______ ____
ROOT
ATOM      1  C   UNL     1       5.656   5.485  17.141  0.00  0.00    +0.000 A 
ATOM      2  C   UNL     1       5.250   4.716  18.320  0.00  0.00    +0.000 A 
ATOM      3  C   UNL     1       4.226   5.108  19.103  0.00  0.00    +0.000 A 
ATOM      4  C   UNL     1       3.525   6.307  18.796  0.00  0.00    +0.000 A 
ATOM      5  N   UNL     1       2.520   6.903  19.400  0.00  0.00    +0.000 NA
ATOM      6  C   UNL     1       2.276   8.048  18.679  0.00  0.00    +0.000 A 
ATOM      7  C   UNL     1       3.147   8.138  17.609  0.00  0.00    +0.000 A 
ATOM      8  N   UNL     1       3.947   7.027  17.685  0.00  0.00    +0.000 N 
ATOM      9  C   UNL     1       5.001   6.631  16.865  0.00  0.00    +0.000 A 
ENDROOT
BRANCH   6  10
ATOM     10  C   UNL     1       1.238   9.009  19.036  0.00  0.00    +0.000 A 
ATOM     11  C   UNL     1       0.932   9.224  20.390  0.00  0.00    +0.000 A 
ATOM     12  C   UNL     1      -0.054  10.141  20.768  0.00  0.00    +0.000 A 
ATOM     13  C   UNL     1      -0.747  10.850  19.791  0.00  0.00    +0.000 A 
ATOM     14 BR   UNL     1      -2.081  12.092  20.293  0.00  0.00    +0.000 Br
ATOM     15  C   UNL     1      -0.460  10.652  18.443  0.00  0.00    +0.000 A 
ATOM     16  C   UNL     1       0.528   9.735  18.068  0.00  0.00    +0.000 A 
ENDBRANCH   6  10
BRANCH   1  18
ATOM     17  N   UNL     1       6.748   5.561  14.974  0.00  0.00    +0.000 N 
ATOM     18  C   UNL     1       6.830   5.106  16.285  0.00  0.00    +0.000 C 
ATOM     19  O   UNL     1       7.767   4.453  16.736  0.00  0.00    +0.000 OA
ATOM     20  H   UNL     1       6.046   6.257  14.730  0.00  0.00    +0.000 HD
BRANCH  17  21
ATOM     21  N   UNL     1       7.796   5.308  14.073  0.00  0.00    +0.000 NA
ATOM     22  H   UNL     1       8.688   5.534  14.512  0.00  0.00    +0.000 HD
ATOM     23  H   UNL     1       7.695   5.962  13.286  0.00  0.00    +0.000 HD
ENDBRANCH  17  21
ENDBRANCH   1  18
TORSDOF 3
ENDMDL
MODEL 8
REMARK VINA RESULT:      -7.1      1.657      2.247
REMARK  Name = 
REMARK  3 active torsions:
REMARK  status: ('A' for Active; 'I' for Inactive)
REMARK    1  A    between atoms: N_1  and  N_2
REMARK    2  A    between atoms: C_3  and  C_5
REMARK    3  A    between atoms: C_10  and  C_11
REMARK                            x       y       z     vdW  Elec       q    Type
REMARK                         _______ _______ _______ _____ _____    ______ ____
ROOT
ATOM      1  C   UNL     1       5.307   5.578  17.446  0.00  0.00    +0.000 A 
ATOM      2  C   UNL     1       4.940   4.908  18.696  0.00  0.00    +0.000 A 
ATOM      3  C   UNL     1       3.940   5.363  19.476  0.00  0.00    +0.000 A 
ATOM      4  C   UNL     1       3.227   6.533  19.094  0.00  0.00    +0.000 A 
ATOM      5  N   UNL     1       2.241   7.177  19.680  0.00  0.00    +0.000 NA
ATOM      6  C   UNL     1       1.972   8.260  18.876  0.00  0.00    +0.000 A 
ATOM      7  C   UNL     1       2.808   8.262  17.775  0.00  0.00    +0.000 A 
ATOM      8  N   UNL     1       3.613   7.160  17.916  0.00  0.00    +0.000 N 
ATOM      9  C   UNL     1       4.642   6.698  17.098  0.00  0.00    +0.000 A 
ENDROOT
BRANCH   6  10
ATOM     10  C   UNL     1       0.943   9.247  19.186  0.00  0.00    +0.000 A 
ATOM     11  C   UNL     1       0.240   9.864  18.138  0.00  0.00    +0.000 A 
ATOM     12  C   UNL     1      -0.755  10.812  18.399  0.00  0.00    +0.000 A 
ATOM     13  C   UNL     1      -1.054  11.151  19.715  0.00  0.00    +0.000 A 
ATOM     14 BR   UNL     1      -2.399  12.431  20.078  0.00  0.00    +0.000 Br
ATOM     15  C   UNL     1      -0.370  10.552  20.769  0.00  0.00    +0.000 A 
ATOM     16  C   UNL     1       0.625   9.604  20.504  0.00  0.00    +0.000 A 
ENDBRANCH   6  10
BRANCH   1  18
ATOM     17  N   UNL     1       6.431   5.641  15.295  0.00  0.00    +0.000 N 
ATOM     18  C   UNL     1       6.454   5.129  16.588  0.00  0.00    +0.000 C 
ATOM     19  O   UNL     1       7.324   4.379  17.021  0.00  0.00    +0.000 OA
ATOM     20  H   UNL     1       5.797   6.406  15.073  0.00  0.00    +0.000 HD
BRANCH  17  21
ATOM     21  N   UNL     1       7.465   5.332  14.396  0.00  0.00    +0.000 NA
ATOM     22  H   UNL     1       7.170   4.572  13.782  0.00  0.00    +0.000 HD
ATOM     23  H   UNL     1       8.254   4.964  14.942  0.00  0.00    +0.000 HD
ENDBRANCH  17  21
ENDBRANCH   1  18
TORSDOF 3
ENDMDL
MODEL 9
REMARK VINA RESULT:      -7.0      1.708      2.373
REMARK  Name = 
REMARK  3 active torsions:
REMARK  status: ('A' for Active; 'I' for Inactive)
REMARK    1  A    between atoms: N_1  and  N_2
REMARK    2  A    between atoms: C_3  and  C_5
REMARK    3  A    between atoms: C_10  and  C_11
REMARK                            x       y       z     vdW  Elec       q    Type
REMARK                         _______ _______ _______ _____ _____    ______ ____
ROOT
ATOM      1  C   UNL     1       4.280   4.920  18.070  0.00  0.00    +0.000 A 
ATOM      2  C   UNL     1       3.815   4.050  19.153  0.00  0.00    +0.000 A 
ATOM      3  C   UNL     1       2.940   4.483  20.081  0.00  0.00    +0.000 A 
ATOM      4  C   UNL     1       2.461   5.822  20.028  0.00  0.00    +0.000 A 
ATOM      5  N   UNL     1       1.633   6.478  20.810  0.00  0.00    +0.000 NA
ATOM      6  C   UNL     1       1.564   7.752  20.296  0.00  0.00    +0.000 A 
ATOM      7  C   UNL     1       2.362   7.862  19.173  0.00  0.00    +0.000 A 
ATOM      8  N   UNL     1       2.938   6.629  19.002  0.00  0.00    +0.000 N 
ATOM      9  C   UNL     1       3.840   6.193  18.034  0.00  0.00    +0.000 A 
ENDROOT
BRANCH   6  10
ATOM     10  C   UNL     1       0.755   8.810  20.892  0.00  0.00    +0.000 A 
ATOM     11  C   UNL     1       0.480   8.776  22.269  0.00  0.00    +0.000 A 
ATOM     12  C   UNL     1      -0.288   9.775  22.875  0.00  0.00    +0.000 A 
ATOM     13  C   UNL     1      -0.791  10.820  22.104  0.00  0.00    +0.000 A 
ATOM     14 BR   UNL     1      -1.830  12.176  22.914  0.00  0.00    +0.000 Br
ATOM     15  C   UNL     1      -0.531  10.873  20.737  0.00  0.00    +0.000 A 
ATOM     16  C   UNL     1       0.239   9.872  20.135  0.00  0.00    +0.000 A 
ENDBRANCH   6  10
BRANCH   1  18
ATOM     17  N   UNL     1       6.610   4.507  17.524  0.00  0.00    +0.000 N 
ATOM     18  C   UNL     1       5.300   4.484  17.057  0.00  0.00    +0.000 C 
ATOM     19  O   UNL     1       4.973   4.140  15.925  0.00  0.00    +0.000 OA
ATOM     20  H   UNL     1       6.782   4.610  18.522  0.00  0.00    +0.000 HD
BRANCH  17  21
ATOM     21  N   UNL     1       7.662   4.090  16.692  0.00  0.00    +0.000 NA
ATOM     22  H   UNL     1       8.517   4.586  16.945  0.00  0.00    +0.000 HD
ATOM     23  H   UNL     1       7.438   4.384  15.733  0.00  0.00    +0.000 HD
ENDBRANCH  17  21
ENDBRANCH   1  18
TORSDOF 3
ENDMDL
