MODEL 1
REMARK VINA RESULT:      -6.9      0.000      0.000
REMARK  Name = 
REMARK  3 active torsions:
REMARK  status: ('A' for Active; 'I' for Inactive)
REMARK    1  A    between atoms: C_1  and  C_2
REMARK    2  A    between atoms: N_7  and  C_8
REMARK    3  A    between atoms: N_25  and  C_26
REMARK                            x       y       z     vdW  Elec       q    Type
REMARK                         _______ _______ _______ _____ _____    ______ ____
ROOT
ATOM      1  C   UNL     1       3.398  15.009  17.728  0.00  0.00    +0.000 C 
ATOM      2  C   UNL     1       2.204  14.353  18.359  0.00  0.00    +0.000 A 
ATOM      3  C   UNL     1       0.904  15.391  19.369  0.00  0.00    +0.000 A 
ATOM      4  C   UNL     1      -0.479  14.460  20.396  0.00  0.00    +0.000 A 
ATOM      5  C   UNL     1      -0.315  12.533  20.546  0.00  0.00    +0.000 A 
ATOM      6  C   UNL     1      -1.003  11.906  21.549  0.00  0.00    +0.000 A 
ATOM      7  N   UNL     1      -0.664  10.557  21.760  0.00  0.00    +0.000 N 
ATOM      8  C   UNL     1      -1.111   9.830  22.962  0.00  0.00    +0.000 C 
ATOM      9  C   UNL     1       0.209   9.773  20.946  0.00  0.00    +0.000 A 
ATOM     10  C   UNL     1       0.573   8.450  21.353  0.00  0.00    +0.000 A 
ATOM     11  C   UNL     1       1.545   7.666  20.717  0.00  0.00    +0.000 A 
ATOM     12  C   UNL     1       2.066   8.088  19.519  0.00  0.00    +0.000 A 
ATOM     13  F   UNL     1       2.932   7.310  18.862  0.00  0.00    +0.000 F 
ATOM     14  C   UNL     1       1.718   9.328  19.023  0.00  0.00    +0.000 A 
ATOM     15  C   UNL     1       0.877  10.184  19.762  0.00  0.00    +0.000 A 
ATOM     16  C   UNL     1       0.863  11.498  19.411  0.00  0.00    +0.000 A 
ATOM     17  C   UNL     1       2.071  12.412  18.159  0.00  0.00    +0.000 A 
ATOM     18  C   UNL     1      -1.956  12.808  22.426  0.00  0.00    +0.000 A 
ATOM     19  C   UNL     1      -2.806  12.288  23.441  0.00  0.00    +0.000 A 
ATOM     20  C   UNL     1      -3.543  13.070  24.341  0.00  0.00    +0.000 A 
ATOM     21  F   UNL     1      -4.196  12.471  25.346  0.00  0.00    +0.000 F 
ATOM     22  C   UNL     1      -3.633  14.424  24.195  0.00  0.00    +0.000 A 
ATOM     23  C   UNL     1      -2.942  15.002  23.143  0.00  0.00    +0.000 A 
ATOM     24  C   UNL     1      -2.083  14.272  22.259  0.00  0.00    +0.000 A 
ATOM     25  N   UNL     1      -1.406  15.029  21.270  0.00  0.00    +0.000 N 
ATOM     26  C   UNL     1      -1.529  16.460  21.030  0.00  0.00    +0.000 C 
ENDROOT
TORSDOF 0
ENDMDL
MODEL 2
REMARK VINA RESULT:      -6.9      4.237      5.329
REMARK  Name = 
REMARK  3 active torsions:
REMARK  status: ('A' for Active; 'I' for Inactive)
REMARK    1  A    between atoms: C_1  and  C_2
REMARK    2  A    between atoms: N_7  and  C_8
REMARK    3  A    between atoms: N_25  and  C_26
REMARK                            x       y       z     vdW  Elec       q    Type
REMARK                         _______ _______ _______ _____ _____    ______ ____
ROOT
ATOM      1  C   UNL     1      -7.863  14.901  16.091  0.00  0.00    +0.000 C 
ATOM      2  C   UNL     1      -7.128  14.357  17.282  0.00  0.00    +0.000 A 
ATOM      3  C   UNL     1      -7.092  15.326  18.969  0.00  0.00    +0.000 A 
ATOM      4  C   UNL     1      -5.904  14.716  20.402  0.00  0.00    +0.000 A 
ATOM      5  C   UNL     1      -4.640  13.313  19.957  0.00  0.00    +0.000 A 
ATOM      6  C   UNL     1      -3.559  13.140  20.778  0.00  0.00    +0.000 A 
ATOM      7  N   UNL     1      -2.560  12.281  20.285  0.00  0.00    +0.000 N 
ATOM      8  C   UNL     1      -1.230  12.205  20.916  0.00  0.00    +0.000 C 
ATOM      9  C   UNL     1      -2.643  11.489  19.100  0.00  0.00    +0.000 A 
ATOM     10  C   UNL     1      -1.498  10.761  18.641  0.00  0.00    +0.000 A 
ATOM     11  C   UNL     1      -1.426  10.093  17.412  0.00  0.00    +0.000 A 
ATOM     12  C   UNL     1      -2.566   9.951  16.660  0.00  0.00    +0.000 A 
ATOM     13  F   UNL     1      -2.528   9.244  15.526  0.00  0.00    +0.000 F 
ATOM     14  C   UNL     1      -3.731  10.570  17.064  0.00  0.00    +0.000 A 
ATOM     15  C   UNL     1      -3.746  11.389  18.211  0.00  0.00    +0.000 A 
ATOM     16  C   UNL     1      -4.795  12.243  18.352  0.00  0.00    +0.000 A 
ATOM     17  C   UNL     1      -6.176  12.669  17.020  0.00  0.00    +0.000 A 
ATOM     18  C   UNL     1      -3.504  14.034  22.077  0.00  0.00    +0.000 A 
ATOM     19  C   UNL     1      -2.497  13.904  23.072  0.00  0.00    +0.000 A 
ATOM     20  C   UNL     1      -2.326  14.780  24.153  0.00  0.00    +0.000 A 
ATOM     21  F   UNL     1      -1.255  14.641  24.946  0.00  0.00    +0.000 F 
ATOM     22  C   UNL     1      -3.243  15.753  24.429  0.00  0.00    +0.000 A 
ATOM     23  C   UNL     1      -4.334  15.862  23.584  0.00  0.00    +0.000 A 
ATOM     24  C   UNL     1      -4.508  15.072  22.402  0.00  0.00    +0.000 A 
ATOM     25  N   UNL     1      -5.654  15.353  21.618  0.00  0.00    +0.000 N 
ATOM     26  C   UNL     1      -6.697  16.326  21.913  0.00  0.00    +0.000 C 
ENDROOT
TORSDOF 0
ENDMDL
MODEL 3
REMARK VINA RESULT:      -6.7      3.082      5.994
REMARK  Name = 
REMARK  3 active torsions:
REMARK  status: ('A' for Active; 'I' for Inactive)
REMARK    1  A    between atoms: C_1  and  C_2
REMARK    2  A    between atoms: N_7  and  C_8
REMARK    3  A    between atoms: N_25  and  C_26
REMARK                            x       y       z     vdW  Elec       q    Type
REMARK                         _______ _______ _______ _____ _____    ______ ____
ROOT
ATOM      1  C   UNL     1      -6.688  12.967  24.076  0.00  0.00    +0.000 C 
ATOM      2  C   UNL     1      -5.417  13.562  23.544  0.00  0.00    +0.000 A 
ATOM      3  C   UNL     1      -5.424  15.254  22.583  0.00  0.00    +0.000 A 
ATOM      4  C   UNL     1      -3.793  15.852  21.678  0.00  0.00    +0.000 A 
ATOM      5  C   UNL     1      -2.326  14.586  21.586  0.00  0.00    +0.000 A 
ATOM      6  C   UNL     1      -1.350  14.801  20.650  0.00  0.00    +0.000 A 
ATOM      7  N   UNL     1      -0.447  13.738  20.465  0.00  0.00    +0.000 N 
ATOM      8  C   UNL     1       0.479  13.706  19.320  0.00  0.00    +0.000 C 
ATOM      9  C   UNL     1      -0.382  12.546  21.249  0.00  0.00    +0.000 A 
ATOM     10  C   UNL     1       0.498  11.483  20.866  0.00  0.00    +0.000 A 
ATOM     11  C   UNL     1       0.517  10.217  21.466  0.00  0.00    +0.000 A 
ATOM     12  C   UNL     1      -0.208  10.010  22.614  0.00  0.00    +0.000 A 
ATOM     13  F   UNL     1      -0.132   8.832  23.242  0.00  0.00    +0.000 F 
ATOM     14  C   UNL     1      -1.035  11.007  23.087  0.00  0.00    +0.000 A 
ATOM     15  C   UNL     1      -1.183  12.214  22.374  0.00  0.00    +0.000 A 
ATOM     16  C   UNL     1      -2.257  12.990  22.679  0.00  0.00    +0.000 A 
ATOM     17  C   UNL     1      -3.786  12.518  23.820  0.00  0.00    +0.000 A 
ATOM     18  C   UNL     1      -1.459  16.129  19.804  0.00  0.00    +0.000 A 
ATOM     19  C   UNL     1      -0.475  16.538  18.863  0.00  0.00    +0.000 A 
ATOM     20  C   UNL     1      -0.613  17.622  17.985  0.00  0.00    +0.000 A 
ATOM     21  F   UNL     1       0.319  17.825  17.044  0.00  0.00    +0.000 F 
ATOM     22  C   UNL     1      -1.662  18.489  18.089  0.00  0.00    +0.000 A 
ATOM     23  C   UNL     1      -2.603  18.242  19.074  0.00  0.00    +0.000 A 
ATOM     24  C   UNL     1      -2.577  17.091  19.928  0.00  0.00    +0.000 A 
ATOM     25  N   UNL     1      -3.649  16.962  20.845  0.00  0.00    +0.000 N 
ATOM     26  C   UNL     1      -4.746  17.898  21.043  0.00  0.00    +0.000 C 
ENDROOT
TORSDOF 0
ENDMDL
MODEL 4
REMARK VINA RESULT:      -6.7      3.862      5.060
REMARK  Name = 
REMARK  3 active torsions:
REMARK  status: ('A' for Active; 'I' for Inactive)
REMARK    1  A    between atoms: C_1  and  C_2
REMARK    2  A    between atoms: N_7  and  C_8
REMARK    3  A    between atoms: N_25  and  C_26
REMARK                            x       y       z     vdW  Elec       q    Type
REMARK                         _______ _______ _______ _____ _____    ______ ____
ROOT
ATOM      1  C   UNL     1       1.014   9.263  21.816  0.00  0.00    +0.000 C 
ATOM      2  C   UNL     1       0.063  10.344  21.390  0.00  0.00    +0.000 A 
ATOM      3  C   UNL     1      -0.730  11.555  22.691  0.00  0.00    +0.000 A 
ATOM      4  C   UNL     1      -2.163  12.765  22.128  0.00  0.00    +0.000 A 
ATOM      5  C   UNL     1      -2.882  12.505  20.345  0.00  0.00    +0.000 A 
ATOM      6  C   UNL     1      -4.110  13.042  20.064  0.00  0.00    +0.000 A 
ATOM      7  N   UNL     1      -4.685  12.625  18.850  0.00  0.00    +0.000 N 
ATOM      8  C   UNL     1      -6.100  12.894  18.536  0.00  0.00    +0.000 C 
ATOM      9  C   UNL     1      -4.052  11.825  17.851  0.00  0.00    +0.000 A 
ATOM     10  C   UNL     1      -4.800  11.361  16.722  0.00  0.00    +0.000 A 
ATOM     11  C   UNL     1      -4.321  10.442  15.780  0.00  0.00    +0.000 A 
ATOM     12  C   UNL     1      -2.996  10.087  15.805  0.00  0.00    +0.000 A 
ATOM     13  F   UNL     1      -2.509   9.275  14.861  0.00  0.00    +0.000 F 
ATOM     14  C   UNL     1      -2.187  10.542  16.826  0.00  0.00    +0.000 A 
ATOM     15  C   UNL     1      -2.723  11.323  17.871  0.00  0.00    +0.000 A 
ATOM     16  C   UNL     1      -1.986  11.432  19.008  0.00  0.00    +0.000 A 
ATOM     17  C   UNL     1      -0.369  10.422  19.484  0.00  0.00    +0.000 A 
ATOM     18  C   UNL     1      -4.776  13.918  21.194  0.00  0.00    +0.000 A 
ATOM     19  C   UNL     1      -6.002  14.618  21.019  0.00  0.00    +0.000 A 
ATOM     20  C   UNL     1      -6.700  15.272  22.043  0.00  0.00    +0.000 A 
ATOM     21  F   UNL     1      -7.917  15.775  21.789  0.00  0.00    +0.000 F 
ATOM     22  C   UNL     1      -6.153  15.434  23.283  0.00  0.00    +0.000 A 
ATOM     23  C   UNL     1      -4.895  14.900  23.502  0.00  0.00    +0.000 A 
ATOM     24  C   UNL     1      -4.180  14.124  22.533  0.00  0.00    +0.000 A 
ATOM     25  N   UNL     1      -2.927  13.603  22.942  0.00  0.00    +0.000 N 
ATOM     26  C   UNL     1      -2.271  13.812  24.225  0.00  0.00    +0.000 C 
ENDROOT
TORSDOF 0
ENDMDL
MODEL 5
REMARK VINA RESULT:      -6.6      3.569      4.821
REMARK  Name = 
REMARK  3 active torsions:
REMARK  status: ('A' for Active; 'I' for Inactive)
REMARK    1  A    between atoms: C_1  and  C_2
REMARK    2  A    between atoms: N_7  and  C_8
REMARK    3  A    between atoms: N_25  and  C_26
REMARK                            x       y       z     vdW  Elec       q    Type
REMARK                         _______ _______ _______ _____ _____    ______ ____
ROOT
ATOM      1  C   UNL     1      -3.808  10.381  14.874  0.00  0.00    +0.000 C 
ATOM      2  C   UNL     1      -3.689  10.706  16.334  0.00  0.00    +0.000 A 
ATOM      3  C   UNL     1      -5.260  11.134  17.400  0.00  0.00    +0.000 A 
ATOM      4  C   UNL     1      -5.028  11.812  19.223  0.00  0.00    +0.000 A 
ATOM      5  C   UNL     1      -3.221  12.256  19.772  0.00  0.00    +0.000 A 
ATOM      6  C   UNL     1      -3.063  13.080  20.853  0.00  0.00    +0.000 A 
ATOM      7  N   UNL     1      -1.756  13.558  21.061  0.00  0.00    +0.000 N 
ATOM      8  C   UNL     1      -1.479  14.655  22.004  0.00  0.00    +0.000 C 
ATOM      9  C   UNL     1      -0.591  13.154  20.342  0.00  0.00    +0.000 A 
ATOM     10  C   UNL     1       0.657  13.821  20.564  0.00  0.00    +0.000 A 
ATOM     11  C   UNL     1       1.811  13.615  19.798  0.00  0.00    +0.000 A 
ATOM     12  C   UNL     1       1.838  12.583  18.893  0.00  0.00    +0.000 A 
ATOM     13  F   UNL     1       2.962  12.324  18.217  0.00  0.00    +0.000 F 
ATOM     14  C   UNL     1       0.694  11.847  18.663  0.00  0.00    +0.000 A 
ATOM     15  C   UNL     1      -0.514  12.181  19.310  0.00  0.00    +0.000 A 
ATOM     16  C   UNL     1      -1.661  11.673  18.787  0.00  0.00    +0.000 A 
ATOM     17  C   UNL     1      -1.879  10.732  17.075  0.00  0.00    +0.000 A 
ATOM     18  C   UNL     1      -4.376  13.505  21.619  0.00  0.00    +0.000 A 
ATOM     19  C   UNL     1      -4.368  14.278  22.813  0.00  0.00    +0.000 A 
ATOM     20  C   UNL     1      -5.511  14.804  23.429  0.00  0.00    +0.000 A 
ATOM     21  F   UNL     1      -5.369  15.638  24.469  0.00  0.00    +0.000 F 
ATOM     22  C   UNL     1      -6.764  14.462  23.010  0.00  0.00    +0.000 A 
ATOM     23  C   UNL     1      -6.865  13.599  21.932  0.00  0.00    +0.000 A 
ATOM     24  C   UNL     1      -5.738  13.117  21.191  0.00  0.00    +0.000 A 
ATOM     25  N   UNL     1      -6.024  12.286  20.079  0.00  0.00    +0.000 N 
ATOM     26  C   UNL     1      -7.336  11.834  19.641  0.00  0.00    +0.000 C 
ENDROOT
TORSDOF 0
ENDMDL
MODEL 6
REMARK VINA RESULT:      -6.5      3.608      5.578
REMARK  Name = 
REMARK  3 active torsions:
REMARK  status: ('A' for Active; 'I' for Inactive)
REMARK    1  A    between atoms: C_1  and  C_2
REMARK    2  A    between atoms: N_7  and  C_8
REMARK    3  A    between atoms: N_25  and  C_26
REMARK                            x       y       z     vdW  Elec       q    Type
REMARK                         _______ _______ _______ _____ _____    ______ ____
ROOT
ATOM      1  C   UNL     1      -1.162  15.688  25.966  0.00  0.00    +0.000 C 
ATOM      2  C   UNL     1      -1.789  15.351  24.644  0.00  0.00    +0.000 A 
ATOM      3  C   UNL     1      -3.648  14.785  24.529  0.00  0.00    +0.000 A 
ATOM      4  C   UNL     1      -4.339  14.099  22.829  0.00  0.00    +0.000 A 
ATOM      5  C   UNL     1      -3.047  13.791  21.415  0.00  0.00    +0.000 A 
ATOM      6  C   UNL     1      -3.408  12.966  20.385  0.00  0.00    +0.000 A 
ATOM      7  N   UNL     1      -2.363  12.589  19.521  0.00  0.00    +0.000 N 
ATOM      8  C   UNL     1      -2.531  11.504  18.539  0.00  0.00    +0.000 C 
ATOM      9  C   UNL     1      -1.028  13.095  19.547  0.00  0.00    +0.000 A 
ATOM     10  C   UNL     1      -0.028  12.525  18.695  0.00  0.00    +0.000 A 
ATOM     11  C   UNL     1       1.337  12.833  18.762  0.00  0.00    +0.000 A 
ATOM     12  C   UNL     1       1.749  13.877  19.552  0.00  0.00    +0.000 A 
ATOM     13  F   UNL     1       3.037  14.235  19.560  0.00  0.00    +0.000 F 
ATOM     14  C   UNL     1       0.835  14.524  20.359  0.00  0.00    +0.000 A 
ATOM     15  C   UNL     1      -0.504  14.087  20.418  0.00  0.00    +0.000 A 
ATOM     16  C   UNL     1      -1.251  14.510  21.472  0.00  0.00    +0.000 A 
ATOM     17  C   UNL     1      -0.625  15.457  23.076  0.00  0.00    +0.000 A 
ATOM     18  C   UNL     1      -4.891  12.428  20.393  0.00  0.00    +0.000 A 
ATOM     19  C   UNL     1      -5.442  11.640  19.345  0.00  0.00    +0.000 A 
ATOM     20  C   UNL     1      -6.695  11.015  19.392  0.00  0.00    +0.000 A 
ATOM     21  F   UNL     1      -7.048  10.180  18.404  0.00  0.00    +0.000 F 
ATOM     22  C   UNL     1      -7.574  11.264  20.406  0.00  0.00    +0.000 A 
ATOM     23  C   UNL     1      -7.170  12.133  21.405  0.00  0.00    +0.000 A 
ATOM     24  C   UNL     1      -5.862  12.713  21.473  0.00  0.00    +0.000 A 
ATOM     25  N   UNL     1      -5.594  13.536  22.596  0.00  0.00    +0.000 N 
ATOM     26  C   UNL     1      -6.523  13.889  23.660  0.00  0.00    +0.000 C 
ENDROOT
TORSDOF 0
ENDMDL
MODEL 7
REMARK VINA RESULT:      -6.4      2.600      5.457
REMARK  Name = 
REMARK  3 active torsions:
REMARK  status: ('A' for Active; 'I' for Inactive)
REMARK    1  A    between atoms: C_1  and  C_2
REMARK    2  A    between atoms: N_7  and  C_8
REMARK    3  A    between atoms: N_25  and  C_26
REMARK                            x       y       z     vdW  Elec       q    Type
REMARK                         _______ _______ _______ _____ _____    ______ ____
ROOT
ATOM      1  C   UNL     1      -4.394  12.660  24.329  0.00  0.00    +0.000 C 
ATOM      2  C   UNL     1      -3.133  13.084  23.634  0.00  0.00    +0.000 A 
ATOM      3  C   UNL     1      -2.879  14.923  23.050  0.00  0.00    +0.000 A 
ATOM      4  C   UNL     1      -1.346  15.367  21.914  0.00  0.00    +0.000 A 
ATOM      5  C   UNL     1      -0.302  13.882  21.229  0.00  0.00    +0.000 A 
ATOM      6  C   UNL     1       0.505  14.110  20.147  0.00  0.00    +0.000 A 
ATOM      7  N   UNL     1       1.050  12.959  19.549  0.00  0.00    +0.000 N 
ATOM      8  C   UNL     1       1.707  13.015  18.231  0.00  0.00    +0.000 C 
ATOM      9  C   UNL     1       0.948  11.626  20.048  0.00  0.00    +0.000 A 
ATOM     10  C   UNL     1       1.435  10.528  19.267  0.00  0.00    +0.000 A 
ATOM     11  C   UNL     1       1.235   9.179  19.588  0.00  0.00    +0.000 A 
ATOM     12  C   UNL     1       0.708   8.854  20.813  0.00  0.00    +0.000 A 
ATOM     13  F   UNL     1       0.590   7.569  21.164  0.00  0.00    +0.000 F 
ATOM     14  C   UNL     1       0.271   9.855  21.655  0.00  0.00    +0.000 A 
ATOM     15  C   UNL     1       0.311  11.204  21.246  0.00  0.00    +0.000 A 
ATOM     16  C   UNL     1      -0.448  12.090  21.944  0.00  0.00    +0.000 A 
ATOM     17  C   UNL     1      -1.808  11.685  23.303  0.00  0.00    +0.000 A 
ATOM     18  C   UNL     1       0.589  15.597  19.626  0.00  0.00    +0.000 A 
ATOM     19  C   UNL     1       1.453  16.008  18.575  0.00  0.00    +0.000 A 
ATOM     20  C   UNL     1       1.441  17.278  17.983  0.00  0.00    +0.000 A 
ATOM     21  F   UNL     1       2.202  17.506  16.904  0.00  0.00    +0.000 F 
ATOM     22  C   UNL     1       0.691  18.295  18.501  0.00  0.00    +0.000 A 
ATOM     23  C   UNL     1      -0.081  18.017  19.616  0.00  0.00    +0.000 A 
ATOM     24  C   UNL     1      -0.197  16.713  20.198  0.00  0.00    +0.000 A 
ATOM     25  N   UNL     1      -1.077  16.592  21.302  0.00  0.00    +0.000 N 
ATOM     26  C   UNL     1      -1.837  17.660  21.935  0.00  0.00    +0.000 C 
ENDROOT
TORSDOF 0
ENDMDL
MODEL 8
REMARK VINA RESULT:      -6.4      1.732      2.513
REMARK  Name = 
REMARK  3 active torsions:
REMARK  status: ('A' for Active; 'I' for Inactive)
REMARK    1  A    between atoms: C_1  and  C_2
REMARK    2  A    between atoms: N_7  and  C_8
REMARK    3  A    between atoms: N_25  and  C_26
REMARK                            x       y       z     vdW  Elec       q    Type
REMARK                         _______ _______ _______ _____ _____    ______ ____
ROOT
ATOM      1  C   UNL     1       3.445  14.827  18.122  0.00  0.00    +0.000 C 
ATOM      2  C   UNL     1       2.063  14.540  18.633  0.00  0.00    +0.000 A 
ATOM      3  C   UNL     1       0.752  15.964  18.838  0.00  0.00    +0.000 A 
ATOM      4  C   UNL     1      -0.936  15.590  19.757  0.00  0.00    +0.000 A 
ATOM      5  C   UNL     1      -1.094  13.868  20.637  0.00  0.00    +0.000 A 
ATOM      6  C   UNL     1      -2.060  13.724  21.596  0.00  0.00    +0.000 A 
ATOM      7  N   UNL     1      -1.977  12.548  22.363  0.00  0.00    +0.000 N 
ATOM      8  C   UNL     1      -2.765  12.375  23.596  0.00  0.00    +0.000 C 
ATOM      9  C   UNL     1      -1.082  11.459  22.135  0.00  0.00    +0.000 A 
ATOM     10  C   UNL     1      -1.010  10.380  23.075  0.00  0.00    +0.000 A 
ATOM     11  C   UNL     1      -0.056   9.356  23.031  0.00  0.00    +0.000 A 
ATOM     12  C   UNL     1       0.757   9.245  21.931  0.00  0.00    +0.000 A 
ATOM     13  F   UNL     1       1.614   8.223  21.840  0.00  0.00    +0.000 F 
ATOM     14  C   UNL     1       0.708  10.211  20.946  0.00  0.00    +0.000 A 
ATOM     15  C   UNL     1      -0.131  11.335  21.088  0.00  0.00    +0.000 A 
ATOM     16  C   UNL     1       0.123  12.406  20.289  0.00  0.00    +0.000 A 
ATOM     17  C   UNL     1       1.686  12.686  19.130  0.00  0.00    +0.000 A 
ATOM     18  C   UNL     1      -3.028  14.951  21.818  0.00  0.00    +0.000 A 
ATOM     19  C   UNL     1      -4.137  14.919  22.708  0.00  0.00    +0.000 A 
ATOM     20  C   UNL     1      -4.918  16.032  23.047  0.00  0.00    +0.000 A 
ATOM     21  F   UNL     1      -5.846  15.912  24.007  0.00  0.00    +0.000 F 
ATOM     22  C   UNL     1      -4.773  17.225  22.399  0.00  0.00    +0.000 A 
ATOM     23  C   UNL     1      -3.803  17.305  21.415  0.00  0.00    +0.000 A 
ATOM     24  C   UNL     1      -2.899  16.239  21.101  0.00  0.00    +0.000 A 
ATOM     25  N   UNL     1      -1.928  16.508  20.104  0.00  0.00    +0.000 N 
ATOM     26  C   UNL     1      -1.784  17.736  19.335  0.00  0.00    +0.000 C 
ENDROOT
TORSDOF 0
ENDMDL
MODEL 9
REMARK VINA RESULT:      -6.4      3.861      5.501
REMARK  Name = 
REMARK  3 active torsions:
REMARK  status: ('A' for Active; 'I' for Inactive)
REMARK    1  A    between atoms: C_1  and  C_2
REMARK    2  A    between atoms: N_7  and  C_8
REMARK    3  A    between atoms: N_25  and  C_26
REMARK                            x       y       z     vdW  Elec       q    Type
REMARK                         _______ _______ _______ _____ _____    ______ ____
ROOT
ATOM      1  C   UNL     1      -3.207  10.431  14.915  0.00  0.00    +0.000 C 
ATOM      2  C   UNL     1      -3.260  10.813  16.366  0.00  0.00    +0.000 A 
ATOM      3  C   UNL     1      -4.923  10.711  17.372  0.00  0.00    +0.000 A 
ATOM      4  C   UNL     1      -5.002  11.472  19.175  0.00  0.00    +0.000 A 
ATOM      5  C   UNL     1      -3.472  12.511  19.758  0.00  0.00    +0.000 A 
ATOM      6  C   UNL     1      -3.642  13.366  20.814  0.00  0.00    +0.000 A 
ATOM      7  N   UNL     1      -2.580  14.262  21.040  0.00  0.00    +0.000 N 
ATOM      8  C   UNL     1      -2.724  15.410  21.952  0.00  0.00    +0.000 C 
ATOM      9  C   UNL     1      -1.320  14.256  20.369  0.00  0.00    +0.000 A 
ATOM     10  C   UNL     1      -0.379  15.310  20.602  0.00  0.00    +0.000 A 
ATOM     11  C   UNL     1       0.807  15.487  19.877  0.00  0.00    +0.000 A 
ATOM     12  C   UNL     1       1.213  14.503  19.010  0.00  0.00    +0.000 A 
ATOM     13  F   UNL     1       2.384  14.621  18.374  0.00  0.00    +0.000 F 
ATOM     14  C   UNL     1       0.392  13.419  18.774  0.00  0.00    +0.000 A 
ATOM     15  C   UNL     1      -0.881  13.342  19.375  0.00  0.00    +0.000 A 
ATOM     16  C   UNL     1      -1.770  12.464  18.838  0.00  0.00    +0.000 A 
ATOM     17  C   UNL     1      -1.594  11.464  17.156  0.00  0.00    +0.000 A 
ATOM     18  C   UNL     1      -5.049  13.342  21.527  0.00  0.00    +0.000 A 
ATOM     19  C   UNL     1      -5.347  14.101  22.692  0.00  0.00    +0.000 A 
ATOM     20  C   UNL     1      -6.623  14.226  23.257  0.00  0.00    +0.000 A 
ATOM     21  F   UNL     1      -6.809  15.083  24.271  0.00  0.00    +0.000 F 
ATOM     22  C   UNL     1      -7.671  13.472  22.816  0.00  0.00    +0.000 A 
ATOM     23  C   UNL     1      -7.435  12.600  21.767  0.00  0.00    +0.000 A 
ATOM     24  C   UNL     1      -6.184  12.508  21.075  0.00  0.00    +0.000 A 
ATOM     25  N   UNL     1      -6.131  11.603  19.985  0.00  0.00    +0.000 N 
ATOM     26  C   UNL     1      -7.198  10.724  19.527  0.00  0.00    +0.000 C 
ENDROOT
TORSDOF 0
ENDMDL
