MODEL 1
REMARK VINA RESULT:      -7.5      0.000      0.000
REMARK  Name = 
REMARK  8 active torsions:
REMARK  status: ('A' for Active; 'I' for Inactive)
REMARK    1  A    between atoms: C_1  and  C_2
REMARK    2  A    between atoms: C_2  and  C_3
REMARK    3  A    between atoms: C_3  and  C_4
REMARK    4  A    between atoms: C_6  and  O_7
REMARK    5  A    between atoms: C_9  and  S_10
REMARK    6  A    between atoms: S_10  and  C_11
REMARK    7  A    between atoms: C_11  and  C_12
REMARK    8  A    between atoms: C_16  and  C_17
REMARK                            x       y       z     vdW  Elec       q    Type
REMARK                         _______ _______ _______ _____ _____    ______ ____
ROOT
ATOM      1  C   UNL     1       6.284   3.758  12.939  0.00  0.00    +0.000 A 
ATOM      2  C   UNL     1       7.306   4.543  12.449  0.00  0.00    +0.000 A 
ATOM      3  C   UNL     1       7.982   5.283  13.385  0.00  0.00    +0.000 A 
ATOM      4  N   UNL     1       7.704   5.283  14.693  0.00  0.00    +0.000 NA
ATOM      5  C   UNL     1       6.698   4.490  15.087  0.00  0.00    +0.000 A 
ATOM      6  N   UNL     1       5.974   3.708  14.260  0.00  0.00    +0.000 NA
ENDROOT
BRANCH   3   7
ATOM      7  O   UNL     1       9.010   6.103  13.015  0.00  0.00    +0.000 OA
ATOM      8  H   UNL     1       8.662   6.985  12.837  0.00  0.00    +0.000 HD
ENDBRANCH   3   7
BRANCH   1   9
ATOM      9  C   UNL     1       5.457   2.914  11.997  0.00  0.00    +0.000 C 
BRANCH   9  11
ATOM     10  C   UNL     1       3.294   2.891  10.698  0.00  0.00    +0.000 C 
ATOM     11  C   UNL     1       4.411   3.753  11.262  0.00  0.00    +0.000 C 
ENDBRANCH   9  11
ENDBRANCH   1   9
BRANCH   5  12
ATOM     12  S   UNL     1       6.249   4.580  16.817  0.00  0.00    +0.000 S 
BRANCH  12  13
ATOM     13  C   UNL     1       4.641   5.414  16.709  0.00  0.00    +0.000 C 
BRANCH  13  14
ATOM     14  C   UNL     1       3.565   4.770  17.567  0.00  0.00    +0.000 A 
ATOM     15  C   UNL     1       2.963   3.565  17.174  0.00  0.00    +0.000 A 
ATOM     16  C   UNL     1       1.927   3.003  17.928  0.00  0.00    +0.000 A 
ATOM     17  C   UNL     1       1.482   3.629  19.091  0.00  0.00    +0.000 A 
ATOM     18  C   UNL     1       2.076   4.822  19.515  0.00  0.00    +0.000 A 
ATOM     19  C   UNL     1       1.602   5.506  20.765  0.00  0.00    +0.000 C 
ATOM     20  C   UNL     1       3.117   5.382  18.751  0.00  0.00    +0.000 A 
ENDBRANCH  13  14
ENDBRANCH  12  13
ENDBRANCH   5  12
TORSDOF 6
ENDMDL
MODEL 2
REMARK VINA RESULT:      -7.4      3.855      5.656
REMARK  Name = 
REMARK  8 active torsions:
REMARK  status: ('A' for Active; 'I' for Inactive)
REMARK    1  A    between atoms: C_1  and  C_2
REMARK    2  A    between atoms: C_2  and  C_3
REMARK    3  A    between atoms: C_3  and  C_4
REMARK    4  A    between atoms: C_6  and  O_7
REMARK    5  A    between atoms: C_9  and  S_10
REMARK    6  A    between atoms: S_10  and  C_11
REMARK    7  A    between atoms: C_11  and  C_12
REMARK    8  A    between atoms: C_16  and  C_17
REMARK                            x       y       z     vdW  Elec       q    Type
REMARK                         _______ _______ _______ _____ _____    ______ ____
ROOT
ATOM      1  C   UNL     1       7.898   7.914  17.821  0.00  0.00    +0.000 A 
ATOM      2  C   UNL     1       8.276   7.234  18.959  0.00  0.00    +0.000 A 
ATOM      3  C   UNL     1       8.031   5.885  18.950  0.00  0.00    +0.000 A 
ATOM      4  N   UNL     1       7.461   5.228  17.934  0.00  0.00    +0.000 NA
ATOM      5  C   UNL     1       7.128   5.962  16.863  0.00  0.00    +0.000 A 
ATOM      6  N   UNL     1       7.334   7.290  16.755  0.00  0.00    +0.000 NA
ENDROOT
BRANCH   3   7
ATOM      7  O   UNL     1       8.356   5.110  20.027  0.00  0.00    +0.000 OA
ATOM      8  H   UNL     1       7.586   4.590  20.287  0.00  0.00    +0.000 HD
ENDBRANCH   3   7
BRANCH   1   9
ATOM      9  C   UNL     1       8.103   9.408  17.726  0.00  0.00    +0.000 C 
BRANCH   9  11
ATOM     10  C   UNL     1       9.791  11.154  18.410  0.00  0.00    +0.000 C 
ATOM     11  C   UNL     1       9.014   9.921  18.842  0.00  0.00    +0.000 C 
ENDBRANCH   9  11
ENDBRANCH   1   9
BRANCH   5  12
ATOM     12  S   UNL     1       6.259   5.105  15.555  0.00  0.00    +0.000 S 
BRANCH  12  13
ATOM     13  C   UNL     1       5.434   3.791  16.496  0.00  0.00    +0.000 C 
BRANCH  13  14
ATOM     14  C   UNL     1       4.111   4.221  17.106  0.00  0.00    +0.000 A 
ATOM     15  C   UNL     1       3.070   3.297  17.284  0.00  0.00    +0.000 A 
ATOM     16  C   UNL     1       1.829   3.703  17.783  0.00  0.00    +0.000 A 
ATOM     17  C   UNL     1       1.608   5.037  18.124  0.00  0.00    +0.000 A 
ATOM     18  C   UNL     1       2.633   5.976  17.973  0.00  0.00    +0.000 A 
ATOM     19  C   UNL     1       2.405   7.416  18.333  0.00  0.00    +0.000 C 
ATOM     20  C   UNL     1       3.879   5.560  17.468  0.00  0.00    +0.000 A 
ENDBRANCH  13  14
ENDBRANCH  12  13
ENDBRANCH   5  12
TORSDOF 6
ENDMDL
MODEL 3
REMARK VINA RESULT:      -7.4      0.981      1.776
REMARK  Name = 
REMARK  8 active torsions:
REMARK  status: ('A' for Active; 'I' for Inactive)
REMARK    1  A    between atoms: C_1  and  C_2
REMARK    2  A    between atoms: C_2  and  C_3
REMARK    3  A    between atoms: C_3  and  C_4
REMARK    4  A    between atoms: C_6  and  O_7
REMARK    5  A    between atoms: C_9  and  S_10
REMARK    6  A    between atoms: S_10  and  C_11
REMARK    7  A    between atoms: C_11  and  C_12
REMARK    8  A    between atoms: C_16  and  C_17
REMARK                            x       y       z     vdW  Elec       q    Type
REMARK                         _______ _______ _______ _____ _____    ______ ____
ROOT
ATOM      1  C   UNL     1       6.341   3.669  12.856  0.00  0.00    +0.000 A 
ATOM      2  C   UNL     1       7.337   4.476  12.351  0.00  0.00    +0.000 A 
ATOM      3  C   UNL     1       7.941   5.308  13.260  0.00  0.00    +0.000 A 
ATOM      4  N   UNL     1       7.617   5.373  14.555  0.00  0.00    +0.000 NA
ATOM      5  C   UNL     1       6.640   4.552  14.966  0.00  0.00    +0.000 A 
ATOM      6  N   UNL     1       5.988   3.683  14.167  0.00  0.00    +0.000 NA
ENDROOT
BRANCH   3   7
ATOM      7  O   UNL     1       8.937   6.158  12.871  0.00  0.00    +0.000 OA
ATOM      8  H   UNL     1       8.682   6.588  12.046  0.00  0.00    +0.000 HD
ENDBRANCH   3   7
BRANCH   1   9
ATOM      9  C   UNL     1       5.593   2.725  11.943  0.00  0.00    +0.000 C 
BRANCH   9  11
ATOM     10  C   UNL     1       6.109   0.390  11.139  0.00  0.00    +0.000 C 
ATOM     11  C   UNL     1       6.551   1.844  11.141  0.00  0.00    +0.000 C 
ENDBRANCH   9  11
ENDBRANCH   1   9
BRANCH   5  12
ATOM     12  S   UNL     1       6.127   4.724  16.671  0.00  0.00    +0.000 S 
BRANCH  12  13
ATOM     13  C   UNL     1       4.428   4.091  16.582  0.00  0.00    +0.000 C 
BRANCH  13  14
ATOM     14  C   UNL     1       3.546   4.557  17.728  0.00  0.00    +0.000 A 
ATOM     15  C   UNL     1       3.684   5.849  18.257  0.00  0.00    +0.000 A 
ATOM     16  C   UNL     1       2.920   6.259  19.355  0.00  0.00    +0.000 A 
ATOM     17  C   UNL     1       1.998   5.389  19.936  0.00  0.00    +0.000 A 
ATOM     18  C   UNL     1       1.828   4.102  19.418  0.00  0.00    +0.000 A 
ATOM     19  C   UNL     1       0.840   3.155  20.037  0.00  0.00    +0.000 C 
ATOM     20  C   UNL     1       2.601   3.696  18.314  0.00  0.00    +0.000 A 
ENDBRANCH  13  14
ENDBRANCH  12  13
ENDBRANCH   5  12
TORSDOF 6
ENDMDL
MODEL 4
REMARK VINA RESULT:      -7.4      3.932      5.700
REMARK  Name = 
REMARK  8 active torsions:
REMARK  status: ('A' for Active; 'I' for Inactive)
REMARK    1  A    between atoms: C_1  and  C_2
REMARK    2  A    between atoms: C_2  and  C_3
REMARK    3  A    between atoms: C_3  and  C_4
REMARK    4  A    between atoms: C_6  and  O_7
REMARK    5  A    between atoms: C_9  and  S_10
REMARK    6  A    between atoms: S_10  and  C_11
REMARK    7  A    between atoms: C_11  and  C_12
REMARK    8  A    between atoms: C_16  and  C_17
REMARK                            x       y       z     vdW  Elec       q    Type
REMARK                         _______ _______ _______ _____ _____    ______ ____
ROOT
ATOM      1  C   UNL     1       7.777   8.031  17.891  0.00  0.00    +0.000 A 
ATOM      2  C   UNL     1       8.361   7.277  18.887  0.00  0.00    +0.000 A 
ATOM      3  C   UNL     1       7.857   6.011  19.042  0.00  0.00    +0.000 A 
ATOM      4  N   UNL     1       6.864   5.499  18.307  0.00  0.00    +0.000 NA
ATOM      5  C   UNL     1       6.354   6.295  17.357  0.00  0.00    +0.000 A 
ATOM      6  N   UNL     1       6.780   7.550  17.105  0.00  0.00    +0.000 NA
ENDROOT
BRANCH   3   7
ATOM      7  O   UNL     1       8.352   5.176  20.003  0.00  0.00    +0.000 OA
ATOM      8  H   UNL     1       8.695   4.378  19.582  0.00  0.00    +0.000 HD
ENDBRANCH   3   7
BRANCH   1   9
ATOM      9  C   UNL     1       8.239   9.448  17.642  0.00  0.00    +0.000 C 
BRANCH   9  11
ATOM     10  C   UNL     1       9.459  11.435  18.607  0.00  0.00    +0.000 C 
ATOM     11  C   UNL     1       9.084   9.974  18.803  0.00  0.00    +0.000 C 
ENDBRANCH   9  11
ENDBRANCH   1   9
BRANCH   5  12
ATOM     12  S   UNL     1       4.949   5.653  16.455  0.00  0.00    +0.000 S 
BRANCH  12  13
ATOM     13  C   UNL     1       3.636   5.834  17.695  0.00  0.00    +0.000 C 
BRANCH  13  14
ATOM     14  C   UNL     1       3.046   4.510  18.151  0.00  0.00    +0.000 A 
ATOM     15  C   UNL     1       3.019   3.403  17.287  0.00  0.00    +0.000 A 
ATOM     16  C   UNL     1       2.418   2.203  17.680  0.00  0.00    +0.000 A 
ATOM     17  C   UNL     1       1.844   2.083  18.945  0.00  0.00    +0.000 A 
ATOM     18  C   UNL     1       1.872   3.163  19.831  0.00  0.00    +0.000 A 
ATOM     19  C   UNL     1       1.254   3.046  21.195  0.00  0.00    +0.000 C 
ATOM     20  C   UNL     1       2.477   4.369  19.429  0.00  0.00    +0.000 A 
ENDBRANCH  13  14
ENDBRANCH  12  13
ENDBRANCH   5  12
TORSDOF 6
ENDMDL
MODEL 5
REMARK VINA RESULT:      -7.3      3.787      5.554
REMARK  Name = 
REMARK  8 active torsions:
REMARK  status: ('A' for Active; 'I' for Inactive)
REMARK    1  A    between atoms: C_1  and  C_2
REMARK    2  A    between atoms: C_2  and  C_3
REMARK    3  A    between atoms: C_3  and  C_4
REMARK    4  A    between atoms: C_6  and  O_7
REMARK    5  A    between atoms: C_9  and  S_10
REMARK    6  A    between atoms: S_10  and  C_11
REMARK    7  A    between atoms: C_11  and  C_12
REMARK    8  A    between atoms: C_16  and  C_17
REMARK                            x       y       z     vdW  Elec       q    Type
REMARK                         _______ _______ _______ _____ _____    ______ ____
ROOT
ATOM      1  C   UNL     1       7.713   7.816  17.804  0.00  0.00    +0.000 A 
ATOM      2  C   UNL     1       8.192   7.163  18.919  0.00  0.00    +0.000 A 
ATOM      3  C   UNL     1       7.677   5.910  19.136  0.00  0.00    +0.000 A 
ATOM      4  N   UNL     1       6.767   5.322  18.352  0.00  0.00    +0.000 NA
ATOM      5  C   UNL     1       6.357   6.023  17.287  0.00  0.00    +0.000 A 
ATOM      6  N   UNL     1       6.803   7.255  16.966  0.00  0.00    +0.000 NA
ENDROOT
BRANCH   3   7
ATOM      7  O   UNL     1       8.073   5.170  20.214  0.00  0.00    +0.000 OA
ATOM      8  H   UNL     1       7.762   5.598  21.022  0.00  0.00    +0.000 HD
ENDBRANCH   3   7
BRANCH   1   9
ATOM      9  C   UNL     1       8.195   9.210  17.476  0.00  0.00    +0.000 C 
BRANCH   9  11
ATOM     10  C   UNL     1       9.438  11.236  18.324  0.00  0.00    +0.000 C 
ATOM     11  C   UNL     1       8.938   9.839  18.656  0.00  0.00    +0.000 C 
ENDBRANCH   9  11
ENDBRANCH   1   9
BRANCH   5  12
ATOM     12  S   UNL     1       5.054   5.286  16.307  0.00  0.00    +0.000 S 
BRANCH  12  13
ATOM     13  C   UNL     1       4.845   3.696  17.157  0.00  0.00    +0.000 C 
BRANCH  13  14
ATOM     14  C   UNL     1       3.563   3.607  17.968  0.00  0.00    +0.000 A 
ATOM     15  C   UNL     1       2.635   2.581  17.730  0.00  0.00    +0.000 A 
ATOM     16  C   UNL     1       1.425   2.533  18.429  0.00  0.00    +0.000 A 
ATOM     17  C   UNL     1       1.125   3.502  19.385  0.00  0.00    +0.000 A 
ATOM     18  C   UNL     1       2.038   4.525  19.655  0.00  0.00    +0.000 A 
ATOM     19  C   UNL     1       1.724   5.576  20.681  0.00  0.00    +0.000 C 
ATOM     20  C   UNL     1       3.254   4.568  18.947  0.00  0.00    +0.000 A 
ENDBRANCH  13  14
ENDBRANCH  12  13
ENDBRANCH   5  12
TORSDOF 6
ENDMDL
MODEL 6
REMARK VINA RESULT:      -7.3      2.692      4.009
REMARK  Name = 
REMARK  8 active torsions:
REMARK  status: ('A' for Active; 'I' for Inactive)
REMARK    1  A    between atoms: C_1  and  C_2
REMARK    2  A    between atoms: C_2  and  C_3
REMARK    3  A    between atoms: C_3  and  C_4
REMARK    4  A    between atoms: C_6  and  O_7
REMARK    5  A    between atoms: C_9  and  S_10
REMARK    6  A    between atoms: S_10  and  C_11
REMARK    7  A    between atoms: C_11  and  C_12
REMARK    8  A    between atoms: C_16  and  C_17
REMARK                            x       y       z     vdW  Elec       q    Type
REMARK                         _______ _______ _______ _____ _____    ______ ____
ROOT
ATOM      1  C   UNL     1       6.064   4.578  16.457  0.00  0.00    +0.000 A 
ATOM      2  C   UNL     1       6.724   5.194  17.499  0.00  0.00    +0.000 A 
ATOM      3  C   UNL     1       6.322   4.818  18.756  0.00  0.00    +0.000 A 
ATOM      4  N   UNL     1       5.358   3.926  19.005  0.00  0.00    +0.000 NA
ATOM      5  C   UNL     1       4.770   3.371  17.936  0.00  0.00    +0.000 A 
ATOM      6  N   UNL     1       5.092   3.652  16.657  0.00  0.00    +0.000 NA
ENDROOT
BRANCH   3   7
ATOM      7  O   UNL     1       6.900   5.367  19.865  0.00  0.00    +0.000 OA
ATOM      8  H   UNL     1       6.209   5.708  20.446  0.00  0.00    +0.000 HD
ENDBRANCH   3   7
BRANCH   1   9
ATOM      9  C   UNL     1       6.410   4.927  15.028  0.00  0.00    +0.000 C 
BRANCH   9  11
ATOM     10  C   UNL     1       6.369   3.683  12.833  0.00  0.00    +0.000 C 
ATOM     11  C   UNL     1       5.557   4.138  14.035  0.00  0.00    +0.000 C 
ENDBRANCH   9  11
ENDBRANCH   1   9
BRANCH   5  12
ATOM     12  S   UNL     1       3.401   2.268  18.269  0.00  0.00    +0.000 S 
BRANCH  12  13
ATOM     13  C   UNL     1       1.992   3.359  17.922  0.00  0.00    +0.000 C 
BRANCH  13  14
ATOM     14  C   UNL     1       2.068   4.695  18.641  0.00  0.00    +0.000 A 
ATOM     15  C   UNL     1       1.794   4.786  20.015  0.00  0.00    +0.000 A 
ATOM     16  C   UNL     1       1.798   6.023  20.666  0.00  0.00    +0.000 A 
ATOM     17  C   UNL     1       2.088   7.190  19.960  0.00  0.00    +0.000 A 
ATOM     18  C   UNL     1       2.382   7.127  18.595  0.00  0.00    +0.000 A 
ATOM     19  C   UNL     1       2.693   8.378  17.823  0.00  0.00    +0.000 C 
ATOM     20  C   UNL     1       2.374   5.878  17.945  0.00  0.00    +0.000 A 
ENDBRANCH  13  14
ENDBRANCH  12  13
ENDBRANCH   5  12
TORSDOF 6
ENDMDL
MODEL 7
REMARK VINA RESULT:      -7.3      0.835      1.164
REMARK  Name = 
REMARK  8 active torsions:
REMARK  status: ('A' for Active; 'I' for Inactive)
REMARK    1  A    between atoms: C_1  and  C_2
REMARK    2  A    between atoms: C_2  and  C_3
REMARK    3  A    between atoms: C_3  and  C_4
REMARK    4  A    between atoms: C_6  and  O_7
REMARK    5  A    between atoms: C_9  and  S_10
REMARK    6  A    between atoms: S_10  and  C_11
REMARK    7  A    between atoms: C_11  and  C_12
REMARK    8  A    between atoms: C_16  and  C_17
REMARK                            x       y       z     vdW  Elec       q    Type
REMARK                         _______ _______ _______ _____ _____    ______ ____
ROOT
ATOM      1  C   UNL     1       6.365   3.591  12.752  0.00  0.00    +0.000 A 
ATOM      2  C   UNL     1       7.258   4.481  12.193  0.00  0.00    +0.000 A 
ATOM      3  C   UNL     1       7.868   5.336  13.075  0.00  0.00    +0.000 A 
ATOM      4  N   UNL     1       7.642   5.350  14.393  0.00  0.00    +0.000 NA
ATOM      5  C   UNL     1       6.763   4.450  14.855  0.00  0.00    +0.000 A 
ATOM      6  N   UNL     1       6.115   3.552  14.086  0.00  0.00    +0.000 NA
ENDROOT
BRANCH   3   7
ATOM      7  O   UNL     1       8.767   6.267  12.635  0.00  0.00    +0.000 OA
ATOM      8  H   UNL     1       9.634   6.070  13.008  0.00  0.00    +0.000 HD
ENDBRANCH   3   7
BRANCH   1   9
ATOM      9  C   UNL     1       5.619   2.613  11.874  0.00  0.00    +0.000 C 
BRANCH   9  11
ATOM     10  C   UNL     1       6.131   0.241  11.182  0.00  0.00    +0.000 C 
ATOM     11  C   UNL     1       6.579   1.693  11.119  0.00  0.00    +0.000 C 
ENDBRANCH   9  11
ENDBRANCH   1   9
BRANCH   5  12
ATOM     12  S   UNL     1       6.373   4.548  16.599  0.00  0.00    +0.000 S 
BRANCH  12  13
ATOM     13  C   UNL     1       4.811   5.472  16.548  0.00  0.00    +0.000 C 
BRANCH  13  14
ATOM     14  C   UNL     1       3.725   4.875  17.427  0.00  0.00    +0.000 A 
ATOM     15  C   UNL     1       3.117   3.657  17.087  0.00  0.00    +0.000 A 
ATOM     16  C   UNL     1       2.072   3.138  17.858  0.00  0.00    +0.000 A 
ATOM     17  C   UNL     1       1.623   3.821  18.988  0.00  0.00    +0.000 A 
ATOM     18  C   UNL     1       2.222   5.028  19.359  0.00  0.00    +0.000 A 
ATOM     19  C   UNL     1       1.745   5.774  20.572  0.00  0.00    +0.000 C 
ATOM     20  C   UNL     1       3.273   5.545  18.578  0.00  0.00    +0.000 A 
ENDBRANCH  13  14
ENDBRANCH  12  13
ENDBRANCH   5  12
TORSDOF 6
ENDMDL
MODEL 8
REMARK VINA RESULT:      -7.2      3.880      5.717
REMARK  Name = 
REMARK  8 active torsions:
REMARK  status: ('A' for Active; 'I' for Inactive)
REMARK    1  A    between atoms: C_1  and  C_2
REMARK    2  A    between atoms: C_2  and  C_3
REMARK    3  A    between atoms: C_3  and  C_4
REMARK    4  A    between atoms: C_6  and  O_7
REMARK    5  A    between atoms: C_9  and  S_10
REMARK    6  A    between atoms: S_10  and  C_11
REMARK    7  A    between atoms: C_11  and  C_12
REMARK    8  A    between atoms: C_16  and  C_17
REMARK                            x       y       z     vdW  Elec       q    Type
REMARK                         _______ _______ _______ _____ _____    ______ ____
ROOT
ATOM      1  C   UNL     1       7.795   7.898  17.831  0.00  0.00    +0.000 A 
ATOM      2  C   UNL     1       8.321   7.196  18.895  0.00  0.00    +0.000 A 
ATOM      3  C   UNL     1       7.876   5.905  19.028  0.00  0.00    +0.000 A 
ATOM      4  N   UNL     1       6.990   5.324  18.212  0.00  0.00    +0.000 NA
ATOM      5  C   UNL     1       6.532   6.074  17.200  0.00  0.00    +0.000 A 
ATOM      6  N   UNL     1       6.908   7.347  16.963  0.00  0.00    +0.000 NA
ENDROOT
BRANCH   3   7
ATOM      7  O   UNL     1       8.323   5.116  20.049  0.00  0.00    +0.000 OA
ATOM      8  H   UNL     1       9.213   5.393  20.298  0.00  0.00    +0.000 HD
ENDBRANCH   3   7
BRANCH   1   9
ATOM      9  C   UNL     1       8.199   9.335  17.597  0.00  0.00    +0.000 C 
BRANCH   9  11
ATOM     10  C   UNL     1       9.759  11.159  18.375  0.00  0.00    +0.000 C 
ATOM     11  C   UNL     1       9.032   9.880  18.758  0.00  0.00    +0.000 C 
ENDBRANCH   9  11
ENDBRANCH   1   9
BRANCH   5  12
ATOM     12  S   UNL     1       5.259   5.337  16.181  0.00  0.00    +0.000 S 
BRANCH  12  13
ATOM     13  C   UNL     1       4.705   3.982  17.254  0.00  0.00    +0.000 C 
BRANCH  13  14
ATOM     14  C   UNL     1       3.712   4.418  18.318  0.00  0.00    +0.000 A 
ATOM     15  C   UNL     1       3.113   5.686  18.261  0.00  0.00    +0.000 A 
ATOM     16  C   UNL     1       2.249   6.116  19.273  0.00  0.00    +0.000 A 
ATOM     17  C   UNL     1       1.961   5.285  20.354  0.00  0.00    +0.000 A 
ATOM     18  C   UNL     1       2.530   4.010  20.428  0.00  0.00    +0.000 A 
ATOM     19  C   UNL     1       2.229   3.107  21.590  0.00  0.00    +0.000 C 
ATOM     20  C   UNL     1       3.400   3.584  19.406  0.00  0.00    +0.000 A 
ENDBRANCH  13  14
ENDBRANCH  12  13
ENDBRANCH   5  12
TORSDOF 6
ENDMDL
MODEL 9
REMARK VINA RESULT:      -7.2      1.056      1.555
REMARK  Name = 
REMARK  8 active torsions:
REMARK  status: ('A' for Active; 'I' for Inactive)
REMARK    1  A    between atoms: C_1  and  C_2
REMARK    2  A    between atoms: C_2  and  C_3
REMARK    3  A    between atoms: C_3  and  C_4
REMARK    4  A    between atoms: C_6  and  O_7
REMARK    5  A    between atoms: C_9  and  S_10
REMARK    6  A    between atoms: S_10  and  C_11
REMARK    7  A    between atoms: C_11  and  C_12
REMARK    8  A    between atoms: C_16  and  C_17
REMARK                            x       y       z     vdW  Elec       q    Type
REMARK                         _______ _______ _______ _____ _____    ______ ____
ROOT
ATOM      1  C   UNL     1       6.316   3.747  12.863  0.00  0.00    +0.000 A 
ATOM      2  C   UNL     1       7.284   4.566  12.323  0.00  0.00    +0.000 A 
ATOM      3  C   UNL     1       7.987   5.323  13.226  0.00  0.00    +0.000 A 
ATOM      4  N   UNL     1       7.780   5.307  14.547  0.00  0.00    +0.000 NA
ATOM      5  C   UNL     1       6.823   4.481  14.990  0.00  0.00    +0.000 A 
ATOM      6  N   UNL     1       6.080   3.680  14.199  0.00  0.00    +0.000 NA
ENDROOT
BRANCH   3   7
ATOM      7  O   UNL     1       8.967   6.177  12.806  0.00  0.00    +0.000 OA
ATOM      8  H   UNL     1       8.559   6.984  12.469  0.00  0.00    +0.000 HD
ENDBRANCH   3   7
BRANCH   1   9
ATOM      9  C   UNL     1       5.466   2.881  11.962  0.00  0.00    +0.000 C 
BRANCH   9  11
ATOM     10  C   UNL     1       3.515   3.227  10.399  0.00  0.00    +0.000 C 
ATOM     11  C   UNL     1       4.056   3.452  11.802  0.00  0.00    +0.000 C 
ENDBRANCH   9  11
ENDBRANCH   1   9
BRANCH   5  12
ATOM     12  S   UNL     1       6.467   4.548  16.742  0.00  0.00    +0.000 S 
BRANCH  12  13
ATOM     13  C   UNL     1       4.710   4.094  16.751  0.00  0.00    +0.000 C 
BRANCH  13  14
ATOM     14  C   UNL     1       3.889   4.869  17.767  0.00  0.00    +0.000 A 
ATOM     15  C   UNL     1       3.440   4.252  18.946  0.00  0.00    +0.000 A 
ATOM     16  C   UNL     1       2.629   4.942  19.852  0.00  0.00    +0.000 A 
ATOM     17  C   UNL     1       2.260   6.263  19.603  0.00  0.00    +0.000 A 
ATOM     18  C   UNL     1       2.706   6.908  18.445  0.00  0.00    +0.000 A 
ATOM     19  C   UNL     1       2.313   8.330  18.165  0.00  0.00    +0.000 C 
ATOM     20  C   UNL     1       3.522   6.206  17.537  0.00  0.00    +0.000 A 
ENDBRANCH  13  14
ENDBRANCH  12  13
ENDBRANCH   5  12
TORSDOF 6
ENDMDL
