MODEL 1
REMARK VINA RESULT:      -7.5      0.000      0.000
REMARK  Name = 
REMARK  3 active torsions:
REMARK  status: ('A' for Active; 'I' for Inactive)
REMARK    1  A    between atoms: N_12  and  C_13
REMARK    2  A    between atoms: C_13  and  C_14
REMARK    3  A    between atoms: C_14  and  N_15
REMARK                            x       y       z     vdW  Elec       q    Type
REMARK                         _______ _______ _______ _____ _____    ______ ____
ROOT
ATOM      1  O   UNL     1       2.201   8.820  17.377  0.00  0.00    +0.000 OA
ATOM      2  C   UNL     1       2.160   8.266  18.474  0.00  0.00    +0.000 A 
ATOM      3  C   UNL     1       1.487   8.999  19.557  0.00  0.00    +0.000 A 
ATOM      4  C   UNL     1       1.002  10.294  19.339  0.00  0.00    +0.000 A 
ATOM      5  C   UNL     1       0.230  10.853  20.330  0.00  0.00    +0.000 A 
ATOM      6  C   UNL     1      -0.033  10.192  21.509  0.00  0.00    +0.000 A 
ATOM      7  C   UNL     1       0.480   8.937  21.769  0.00  0.00    +0.000 A 
ATOM      8  C   UNL     1       1.239   8.331  20.759  0.00  0.00    +0.000 A 
ATOM      9  N   UNL     1       1.706   7.032  20.927  0.00  0.00    +0.000 N 
ATOM     10  C   UNL     1       2.341   6.312  19.945  0.00  0.00    +0.000 A 
ATOM     11  S   UNL     1       2.677   4.716  20.350  0.00  0.00    +0.000 S 
ATOM     12  N   UNL     1       2.603   6.960  18.734  0.00  0.00    +0.000 N 
ATOM     13  O   UNL     1      -0.858  10.902  22.323  0.00  0.00    +0.000 OA
ATOM     14  C   UNL     1      -1.164  12.034  21.480  0.00  0.00    +0.000 C 
ATOM     15  O   UNL     1      -0.392  12.060  20.262  0.00  0.00    +0.000 OA
ATOM     16  H   UNL     1       1.507   6.535  21.791  0.00  0.00    +0.000 HD
ENDROOT
BRANCH  12  17
ATOM     17  C   UNL     1       3.067   6.185  17.561  0.00  0.00    +0.000 C 
BRANCH  17  18
ATOM     18  C   UNL     1       4.589   5.964  17.351  0.00  0.00    +0.000 C 
BRANCH  18  19
ATOM     19  N   UNL     1       5.068   4.573  17.481  0.00  0.00    +0.000 NA
ATOM     20  C   UNL     1       6.171   4.486  18.471  0.00  0.00    +0.000 C 
ATOM     21  C   UNL     1       7.538   5.010  17.976  0.00  0.00    +0.000 C 
ATOM     22  O   UNL     1       7.906   4.490  16.691  0.00  0.00    +0.000 OA
ATOM     23  C   UNL     1       6.860   4.682  15.730  0.00  0.00    +0.000 C 
ATOM     24  C   UNL     1       5.569   4.007  16.212  0.00  0.00    +0.000 C 
ENDBRANCH  18  19
ENDBRANCH  17  18
ENDBRANCH  12  17
TORSDOF 3
ENDMDL
MODEL 2
REMARK VINA RESULT:      -7.4      0.860      1.345
REMARK  Name = 
REMARK  3 active torsions:
REMARK  status: ('A' for Active; 'I' for Inactive)
REMARK    1  A    between atoms: N_12  and  C_13
REMARK    2  A    between atoms: C_13  and  C_14
REMARK    3  A    between atoms: C_14  and  N_15
REMARK                            x       y       z     vdW  Elec       q    Type
REMARK                         _______ _______ _______ _____ _____    ______ ____
ROOT
ATOM      1  O   UNL     1       2.572   8.175  17.164  0.00  0.00    +0.000 OA
ATOM      2  C   UNL     1       2.376   7.836  18.329  0.00  0.00    +0.000 A 
ATOM      3  C   UNL     1       1.725   8.824  19.202  0.00  0.00    +0.000 A 
ATOM      4  C   UNL     1       1.431  10.107  18.721  0.00  0.00    +0.000 A 
ATOM      5  C   UNL     1       0.667  10.921  19.523  0.00  0.00    +0.000 A 
ATOM      6  C   UNL     1       0.230  10.517  20.765  0.00  0.00    +0.000 A 
ATOM      7  C   UNL     1       0.554   9.279  21.283  0.00  0.00    +0.000 A 
ATOM      8  C   UNL     1       1.301   8.417  20.469  0.00  0.00    +0.000 A 
ATOM      9  N   UNL     1       1.580   7.125  20.899  0.00  0.00    +0.000 N 
ATOM     10  C   UNL     1       2.188   6.171  20.120  0.00  0.00    +0.000 A 
ATOM     11  S   UNL     1       2.280   4.646  20.820  0.00  0.00    +0.000 S 
ATOM     12  N   UNL     1       2.623   6.555  18.849  0.00  0.00    +0.000 N 
ATOM     13  O   UNL     1      -0.554  11.453  21.363  0.00  0.00    +0.000 OA
ATOM     14  C   UNL     1      -0.644  12.442  20.315  0.00  0.00    +0.000 C 
ATOM     15  O   UNL     1       0.214  12.159  19.192  0.00  0.00    +0.000 OA
ATOM     16  H   UNL     1       1.253   6.818  21.812  0.00  0.00    +0.000 HD
ENDROOT
BRANCH  12  17
ATOM     17  C   UNL     1       3.069   5.534  17.874  0.00  0.00    +0.000 C 
BRANCH  17  18
ATOM     18  C   UNL     1       4.554   5.080  17.876  0.00  0.00    +0.000 C 
BRANCH  18  19
ATOM     19  N   UNL     1       5.522   6.021  17.278  0.00  0.00    +0.000 NA
ATOM     20  C   UNL     1       5.765   5.691  15.850  0.00  0.00    +0.000 C 
ATOM     21  C   UNL     1       6.667   4.460  15.607  0.00  0.00    +0.000 C 
ATOM     22  O   UNL     1       7.874   4.488  16.382  0.00  0.00    +0.000 OA
ATOM     23  C   UNL     1       7.600   4.705  17.771  0.00  0.00    +0.000 C 
ATOM     24  C   UNL     1       6.832   6.021  17.959  0.00  0.00    +0.000 C 
ENDBRANCH  18  19
ENDBRANCH  17  18
ENDBRANCH  12  17
TORSDOF 3
ENDMDL
MODEL 3
REMARK VINA RESULT:      -7.3      0.976      1.227
REMARK  Name = 
REMARK  3 active torsions:
REMARK  status: ('A' for Active; 'I' for Inactive)
REMARK    1  A    between atoms: N_12  and  C_13
REMARK    2  A    between atoms: C_13  and  C_14
REMARK    3  A    between atoms: C_14  and  N_15
REMARK                            x       y       z     vdW  Elec       q    Type
REMARK                         _______ _______ _______ _____ _____    ______ ____
ROOT
ATOM      1  O   UNL     1       2.300   8.006  17.406  0.00  0.00    +0.000 OA
ATOM      2  C   UNL     1       2.230   7.600  18.565  0.00  0.00    +0.000 A 
ATOM      3  C   UNL     1       1.754   8.560  19.572  0.00  0.00    +0.000 A 
ATOM      4  C   UNL     1       1.481   9.886  19.211  0.00  0.00    +0.000 A 
ATOM      5  C   UNL     1       0.872  10.683  20.151  0.00  0.00    +0.000 A 
ATOM      6  C   UNL     1       0.570  10.220  21.412  0.00  0.00    +0.000 A 
ATOM      7  C   UNL     1       0.880   8.934  21.809  0.00  0.00    +0.000 A 
ATOM      8  C   UNL     1       1.467   8.091  20.856  0.00  0.00    +0.000 A 
ATOM      9  N   UNL     1       1.719   6.760  21.168  0.00  0.00    +0.000 N 
ATOM     10  C   UNL     1       2.166   5.831  20.262  0.00  0.00    +0.000 A 
ATOM     11  S   UNL     1       2.253   4.259  20.852  0.00  0.00    +0.000 S 
ATOM     12  N   UNL     1       2.462   6.276  18.971  0.00  0.00    +0.000 N 
ATOM     13  O   UNL     1      -0.076  11.153  22.161  0.00  0.00    +0.000 OA
ATOM     14  C   UNL     1      -0.236  12.214  21.194  0.00  0.00    +0.000 C 
ATOM     15  O   UNL     1       0.458  11.962  19.955  0.00  0.00    +0.000 OA
ATOM     16  H   UNL     1       1.489   6.410  22.095  0.00  0.00    +0.000 HD
ENDROOT
BRANCH  12  17
ATOM     17  C   UNL     1       2.721   5.301  17.887  0.00  0.00    +0.000 C 
BRANCH  17  18
ATOM     18  C   UNL     1       4.170   4.795  17.652  0.00  0.00    +0.000 C 
BRANCH  18  19
ATOM     19  N   UNL     1       4.740   5.055  16.315  0.00  0.00    +0.000 NA
ATOM     20  C   UNL     1       5.956   4.233  16.091  0.00  0.00    +0.000 C 
ATOM     21  C   UNL     1       7.222   4.721  16.830  0.00  0.00    +0.000 C 
ATOM     22  O   UNL     1       7.465   6.124  16.660  0.00  0.00    +0.000 OA
ATOM     23  C   UNL     1       6.304   6.899  16.983  0.00  0.00    +0.000 C 
ATOM     24  C   UNL     1       5.119   6.468  16.108  0.00  0.00    +0.000 C 
ENDBRANCH  18  19
ENDBRANCH  17  18
ENDBRANCH  12  17
TORSDOF 3
ENDMDL
MODEL 4
REMARK VINA RESULT:      -7.0      0.902      1.073
REMARK  Name = 
REMARK  3 active torsions:
REMARK  status: ('A' for Active; 'I' for Inactive)
REMARK    1  A    between atoms: N_12  and  C_13
REMARK    2  A    between atoms: C_13  and  C_14
REMARK    3  A    between atoms: C_14  and  N_15
REMARK                            x       y       z     vdW  Elec       q    Type
REMARK                         _______ _______ _______ _____ _____    ______ ____
ROOT
ATOM      1  O   UNL     1       2.301   8.763  17.379  0.00  0.00    +0.000 OA
ATOM      2  C   UNL     1       2.216   8.224  18.480  0.00  0.00    +0.000 A 
ATOM      3  C   UNL     1       1.489   8.964  19.522  0.00  0.00    +0.000 A 
ATOM      4  C   UNL     1       1.001  10.251  19.264  0.00  0.00    +0.000 A 
ATOM      5  C   UNL     1       0.180  10.816  20.211  0.00  0.00    +0.000 A 
ATOM      6  C   UNL     1      -0.130  10.167  21.386  0.00  0.00    +0.000 A 
ATOM      7  C   UNL     1       0.384   8.922  21.686  0.00  0.00    +0.000 A 
ATOM      8  C   UNL     1       1.193   8.310  20.720  0.00  0.00    +0.000 A 
ATOM      9  N   UNL     1       1.665   7.018  20.927  0.00  0.00    +0.000 N 
ATOM     10  C   UNL     1       2.350   6.292  19.985  0.00  0.00    +0.000 A 
ATOM     11  S   UNL     1       2.683   4.704  20.427  0.00  0.00    +0.000 S 
ATOM     12  N   UNL     1       2.660   6.925  18.778  0.00  0.00    +0.000 N 
ATOM     13  O   UNL     1      -0.997  10.880  22.152  0.00  0.00    +0.000 OA
ATOM     14  C   UNL     1      -1.276  11.997  21.280  0.00  0.00    +0.000 C 
ATOM     15  O   UNL     1      -0.450  12.015  20.098  0.00  0.00    +0.000 OA
ATOM     16  H   UNL     1       1.432   6.531  21.789  0.00  0.00    +0.000 HD
ENDROOT
BRANCH  12  17
ATOM     17  C   UNL     1       3.184   6.140  17.638  0.00  0.00    +0.000 C 
BRANCH  17  18
ATOM     18  C   UNL     1       4.563   6.512  17.029  0.00  0.00    +0.000 C 
BRANCH  18  19
ATOM     19  N   UNL     1       5.545   5.415  16.926  0.00  0.00    +0.000 NA
ATOM     20  C   UNL     1       5.629   4.661  18.203  0.00  0.00    +0.000 C 
ATOM     21  C   UNL     1       6.403   5.374  19.334  0.00  0.00    +0.000 C 
ATOM     22  O   UNL     1       7.673   5.886  18.910  0.00  0.00    +0.000 OA
ATOM     23  C   UNL     1       7.546   6.695  17.734  0.00  0.00    +0.000 C 
ATOM     24  C   UNL     1       6.908   5.882  16.599  0.00  0.00    +0.000 C 
ENDBRANCH  18  19
ENDBRANCH  17  18
ENDBRANCH  12  17
TORSDOF 3
ENDMDL
MODEL 5
REMARK VINA RESULT:      -7.0      2.780      7.734
REMARK  Name = 
REMARK  3 active torsions:
REMARK  status: ('A' for Active; 'I' for Inactive)
REMARK    1  A    between atoms: N_12  and  C_13
REMARK    2  A    between atoms: C_13  and  C_14
REMARK    3  A    between atoms: C_14  and  N_15
REMARK                            x       y       z     vdW  Elec       q    Type
REMARK                         _______ _______ _______ _____ _____    ______ ____
ROOT
ATOM      1  O   UNL     1       2.062   9.375  17.378  0.00  0.00    +0.000 OA
ATOM      2  C   UNL     1       1.931   8.692  18.391  0.00  0.00    +0.000 A 
ATOM      3  C   UNL     1       2.667   7.420  18.428  0.00  0.00    +0.000 A 
ATOM      4  C   UNL     1       3.405   6.998  17.315  0.00  0.00    +0.000 A 
ATOM      5  C   UNL     1       4.210   5.896  17.473  0.00  0.00    +0.000 A 
ATOM      6  C   UNL     1       4.272   5.203  18.662  0.00  0.00    +0.000 A 
ATOM      7  C   UNL     1       3.512   5.567  19.755  0.00  0.00    +0.000 A 
ATOM      8  C   UNL     1       2.711   6.710  19.630  0.00  0.00    +0.000 A 
ATOM      9  N   UNL     1       1.993   7.178  20.726  0.00  0.00    +0.000 N 
ATOM     10  C   UNL     1       1.291   8.357  20.735  0.00  0.00    +0.000 A 
ATOM     11  S   UNL     1       0.630   8.770  22.225  0.00  0.00    +0.000 S 
ATOM     12  N   UNL     1       1.230   9.085  19.543  0.00  0.00    +0.000 N 
ATOM     13  O   UNL     1       5.169   4.183  18.616  0.00  0.00    +0.000 OA
ATOM     14  C   UNL     1       5.735   4.378  17.303  0.00  0.00    +0.000 C 
ATOM     15  O   UNL     1       5.056   5.392  16.535  0.00  0.00    +0.000 OA
ATOM     16  H   UNL     1       2.042   6.676  21.609  0.00  0.00    +0.000 HD
ENDROOT
BRANCH  12  17
ATOM     17  C   UNL     1       0.695  10.465  19.539  0.00  0.00    +0.000 C 
BRANCH  17  18
ATOM     18  C   UNL     1      -0.832  10.688  19.370  0.00  0.00    +0.000 C 
BRANCH  18  19
ATOM     19  N   UNL     1      -1.272  11.206  18.059  0.00  0.00    +0.000 NA
ATOM     20  C   UNL     1      -2.347  12.217  18.226  0.00  0.00    +0.000 C 
ATOM     21  C   UNL     1      -3.739  11.642  18.571  0.00  0.00    +0.000 C 
ATOM     22  O   UNL     1      -4.126  10.558  17.716  0.00  0.00    +0.000 OA
ATOM     23  C   UNL     1      -3.111   9.549  17.656  0.00  0.00    +0.000 C 
ATOM     24  C   UNL     1      -1.791  10.155  17.161  0.00  0.00    +0.000 C 
ENDBRANCH  18  19
ENDBRANCH  17  18
ENDBRANCH  12  17
TORSDOF 3
ENDMDL
MODEL 6
REMARK VINA RESULT:      -6.9      1.003      1.232
REMARK  Name = 
REMARK  3 active torsions:
REMARK  status: ('A' for Active; 'I' for Inactive)
REMARK    1  A    between atoms: N_12  and  C_13
REMARK    2  A    between atoms: C_13  and  C_14
REMARK    3  A    between atoms: C_14  and  N_15
REMARK                            x       y       z     vdW  Elec       q    Type
REMARK                         _______ _______ _______ _____ _____    ______ ____
ROOT
ATOM      1  O   UNL     1       1.771   9.466  17.961  0.00  0.00    +0.000 OA
ATOM      2  C   UNL     1       1.762   8.800  18.994  0.00  0.00    +0.000 A 
ATOM      3  C   UNL     1       1.086   9.396  20.157  0.00  0.00    +0.000 A 
ATOM      4  C   UNL     1       0.563  10.693  20.081  0.00  0.00    +0.000 A 
ATOM      5  C   UNL     1      -0.208  11.124  21.134  0.00  0.00    +0.000 A 
ATOM      6  C   UNL     1      -0.436  10.336  22.240  0.00  0.00    +0.000 A 
ATOM      7  C   UNL     1       0.115   9.076  22.361  0.00  0.00    +0.000 A 
ATOM      8  C   UNL     1       0.874   8.600  21.285  0.00  0.00    +0.000 A 
ATOM      9  N   UNL     1       1.378   7.304  21.310  0.00  0.00    +0.000 N 
ATOM     10  C   UNL     1       2.017   6.709  20.250  0.00  0.00    +0.000 A 
ATOM     11  S   UNL     1       2.402   5.089  20.482  0.00  0.00    +0.000 S 
ATOM     12  N   UNL     1       2.243   7.486  19.111  0.00  0.00    +0.000 N 
ATOM     13  O   UNL     1      -1.267  10.934  23.135  0.00  0.00    +0.000 OA
ATOM     14  C   UNL     1      -1.616  12.138  22.418  0.00  0.00    +0.000 C 
ATOM     15  O   UNL     1      -0.864  12.313  21.201  0.00  0.00    +0.000 OA
ATOM     16  H   UNL     1       1.205   6.714  22.120  0.00  0.00    +0.000 HD
ENDROOT
BRANCH  12  17
ATOM     17  C   UNL     1       2.710   6.852  17.857  0.00  0.00    +0.000 C 
BRANCH  17  18
ATOM     18  C   UNL     1       4.220   6.896  17.500  0.00  0.00    +0.000 C 
BRANCH  18  19
ATOM     19  N   UNL     1       4.736   5.758  16.715  0.00  0.00    +0.000 NA
ATOM     20  C   UNL     1       4.553   4.482  17.453  0.00  0.00    +0.000 C 
ATOM     21  C   UNL     1       5.543   4.250  18.615  0.00  0.00    +0.000 C 
ATOM     22  O   UNL     1       6.908   4.483  18.245  0.00  0.00    +0.000 OA
ATOM     23  C   UNL     1       7.072   5.765  17.628  0.00  0.00    +0.000 C 
ATOM     24  C   UNL     1       6.172   5.876  16.390  0.00  0.00    +0.000 C 
ENDBRANCH  18  19
ENDBRANCH  17  18
ENDBRANCH  12  17
TORSDOF 3
ENDMDL
MODEL 7
REMARK VINA RESULT:      -6.9      3.000      7.639
REMARK  Name = 
REMARK  3 active torsions:
REMARK  status: ('A' for Active; 'I' for Inactive)
REMARK    1  A    between atoms: N_12  and  C_13
REMARK    2  A    between atoms: C_13  and  C_14
REMARK    3  A    between atoms: C_14  and  N_15
REMARK                            x       y       z     vdW  Elec       q    Type
REMARK                         _______ _______ _______ _____ _____    ______ ____
ROOT
ATOM      1  O   UNL     1       2.034   9.744  17.414  0.00  0.00    +0.000 OA
ATOM      2  C   UNL     1       1.762   9.080  18.413  0.00  0.00    +0.000 A 
ATOM      3  C   UNL     1       2.434   7.779  18.543  0.00  0.00    +0.000 A 
ATOM      4  C   UNL     1       3.272   7.312  17.523  0.00  0.00    +0.000 A 
ATOM      5  C   UNL     1       4.006   6.178  17.780  0.00  0.00    +0.000 A 
ATOM      6  C   UNL     1       3.905   5.501  18.975  0.00  0.00    +0.000 A 
ATOM      7  C   UNL     1       3.045   5.911  19.973  0.00  0.00    +0.000 A 
ATOM      8  C   UNL     1       2.313   7.084  19.749  0.00  0.00    +0.000 A 
ATOM      9  N   UNL     1       1.499   7.597  20.753  0.00  0.00    +0.000 N 
ATOM     10  C   UNL     1       0.851   8.805  20.674  0.00  0.00    +0.000 A 
ATOM     11  S   UNL     1       0.048   9.265  22.077  0.00  0.00    +0.000 S 
ATOM     12  N   UNL     1       0.955   9.518  19.476  0.00  0.00    +0.000 N 
ATOM     13  O   UNL     1       4.757   4.443  19.038  0.00  0.00    +0.000 OA
ATOM     14  C   UNL     1       5.474   4.596  17.794  0.00  0.00    +0.000 C 
ATOM     15  O   UNL     1       4.929   5.628  16.947  0.00  0.00    +0.000 OA
ATOM     16  H   UNL     1       1.428   7.106  21.641  0.00  0.00    +0.000 HD
ENDROOT
BRANCH  12  17
ATOM     17  C   UNL     1       0.484  10.919  19.400  0.00  0.00    +0.000 C 
BRANCH  17  18
ATOM     18  C   UNL     1      -0.698  11.273  18.457  0.00  0.00    +0.000 C 
BRANCH  18  19
ATOM     19  N   UNL     1      -1.757  10.253  18.332  0.00  0.00    +0.000 NA
ATOM     20  C   UNL     1      -1.895   9.807  16.922  0.00  0.00    +0.000 C 
ATOM     21  C   UNL     1      -2.613  10.804  15.986  0.00  0.00    +0.000 C 
ATOM     22  O   UNL     1      -3.844  11.299  16.532  0.00  0.00    +0.000 OA
ATOM     23  C   UNL     1      -3.659  11.818  17.854  0.00  0.00    +0.000 C 
ATOM     24  C   UNL     1      -3.083  10.732  18.774  0.00  0.00    +0.000 C 
ENDBRANCH  18  19
ENDBRANCH  17  18
ENDBRANCH  12  17
TORSDOF 3
ENDMDL
MODEL 8
REMARK VINA RESULT:      -6.7      2.983      7.600
REMARK  Name = 
REMARK  3 active torsions:
REMARK  status: ('A' for Active; 'I' for Inactive)
REMARK    1  A    between atoms: N_12  and  C_13
REMARK    2  A    between atoms: C_13  and  C_14
REMARK    3  A    between atoms: C_14  and  N_15
REMARK                            x       y       z     vdW  Elec       q    Type
REMARK                         _______ _______ _______ _____ _____    ______ ____
ROOT
ATOM      1  O   UNL     1       2.577   8.181  17.254  0.00  0.00    +0.000 OA
ATOM      2  C   UNL     1       2.177   7.885  18.378  0.00  0.00    +0.000 A 
ATOM      3  C   UNL     1       2.384   6.493  18.806  0.00  0.00    +0.000 A 
ATOM      4  C   UNL     1       2.936   5.558  17.922  0.00  0.00    +0.000 A 
ATOM      5  C   UNL     1       3.267   4.326  18.434  0.00  0.00    +0.000 A 
ATOM      6  C   UNL     1       3.038   4.000  19.753  0.00  0.00    +0.000 A 
ATOM      7  C   UNL     1       2.444   4.887  20.628  0.00  0.00    +0.000 A 
ATOM      8  C   UNL     1       2.131   6.162  20.139  0.00  0.00    +0.000 A 
ATOM      9  N   UNL     1       1.616   7.127  20.996  0.00  0.00    +0.000 N 
ATOM     10  C   UNL     1       1.405   8.436  20.640  0.00  0.00    +0.000 A 
ATOM     11  S   UNL     1       0.912   9.437  21.897  0.00  0.00    +0.000 S 
ATOM     12  N   UNL     1       1.648   8.792  19.310  0.00  0.00    +0.000 N 
ATOM     13  O   UNL     1       3.489   2.755  20.060  0.00  0.00    +0.000 OA
ATOM     14  C   UNL     1       4.118   2.379  18.816  0.00  0.00    +0.000 C 
ATOM     15  O   UNL     1       3.885   3.325  17.753  0.00  0.00    +0.000 OA
ATOM     16  H   UNL     1       1.453   6.895  21.973  0.00  0.00    +0.000 HD
ENDROOT
BRANCH  12  17
ATOM     17  C   UNL     1       1.668  10.218  18.912  0.00  0.00    +0.000 C 
BRANCH  17  18
ATOM     18  C   UNL     1       0.372  10.871  18.360  0.00  0.00    +0.000 C 
BRANCH  18  19
ATOM     19  N   UNL     1      -0.886  10.144  18.625  0.00  0.00    +0.000 NA
ATOM     20  C   UNL     1      -1.638   9.917  17.364  0.00  0.00    +0.000 C 
ATOM     21  C   UNL     1      -2.364  11.160  16.802  0.00  0.00    +0.000 C 
ATOM     22  O   UNL     1      -3.138  11.853  17.792  0.00  0.00    +0.000 OA
ATOM     23  C   UNL     1      -2.356  12.150  18.955  0.00  0.00    +0.000 C 
ATOM     24  C   UNL     1      -1.787  10.856  19.554  0.00  0.00    +0.000 C 
ENDBRANCH  18  19
ENDBRANCH  17  18
ENDBRANCH  12  17
TORSDOF 3
ENDMDL
MODEL 9
REMARK VINA RESULT:      -6.7      2.933      7.337
REMARK  Name = 
REMARK  3 active torsions:
REMARK  status: ('A' for Active; 'I' for Inactive)
REMARK    1  A    between atoms: N_12  and  C_13
REMARK    2  A    between atoms: C_13  and  C_14
REMARK    3  A    between atoms: C_14  and  N_15
REMARK                            x       y       z     vdW  Elec       q    Type
REMARK                         _______ _______ _______ _____ _____    ______ ____
ROOT
ATOM      1  O   UNL     1       2.031   9.654  17.498  0.00  0.00    +0.000 OA
ATOM      2  C   UNL     1       1.788   8.969  18.490  0.00  0.00    +0.000 A 
ATOM      3  C   UNL     1       2.475   7.671  18.578  0.00  0.00    +0.000 A 
ATOM      4  C   UNL     1       3.293   7.232  17.530  0.00  0.00    +0.000 A 
ATOM      5  C   UNL     1       4.043   6.101  17.747  0.00  0.00    +0.000 A 
ATOM      6  C   UNL     1       3.977   5.399  18.930  0.00  0.00    +0.000 A 
ATOM      7  C   UNL     1       3.137   5.782  19.956  0.00  0.00    +0.000 A 
ATOM      8  C   UNL     1       2.389   6.952  19.773  0.00  0.00    +0.000 A 
ATOM      9  N   UNL     1       1.595   7.437  20.806  0.00  0.00    +0.000 N 
ATOM     10  C   UNL     1       0.934   8.640  20.765  0.00  0.00    +0.000 A 
ATOM     11  S   UNL     1       0.160   9.065  22.196  0.00  0.00    +0.000 S 
ATOM     12  N   UNL     1       1.003   9.377  19.580  0.00  0.00    +0.000 N 
ATOM     13  O   UNL     1       4.840   4.348  18.953  0.00  0.00    +0.000 OA
ATOM     14  C   UNL     1       5.526   4.533  17.696  0.00  0.00    +0.000 C 
ATOM     15  O   UNL     1       4.951   5.576  16.882  0.00  0.00    +0.000 OA
ATOM     16  H   UNL     1       1.549   6.928  21.685  0.00  0.00    +0.000 HD
ENDROOT
BRANCH  12  17
ATOM     17  C   UNL     1       0.518  10.775  19.543  0.00  0.00    +0.000 C 
BRANCH  17  18
ATOM     18  C   UNL     1       1.284  11.867  20.337  0.00  0.00    +0.000 C 
BRANCH  18  19
ATOM     19  N   UNL     1       1.053  13.262  19.914  0.00  0.00    +0.000 NA
ATOM     20  C   UNL     1       1.505  13.470  18.515  0.00  0.00    +0.000 C 
ATOM     21  C   UNL     1       3.035  13.568  18.328  0.00  0.00    +0.000 C 
ATOM     22  O   UNL     1       3.656  14.474  19.251  0.00  0.00    +0.000 OA
ATOM     23  C   UNL     1       3.282  14.184  20.602  0.00  0.00    +0.000 C 
ATOM     24  C   UNL     1       1.756  14.251  20.756  0.00  0.00    +0.000 C 
ENDBRANCH  18  19
ENDBRANCH  17  18
ENDBRANCH  12  17
TORSDOF 3
ENDMDL
