MODEL 1
REMARK VINA RESULT:      -7.8      0.000      0.000
REMARK  Name = 
REMARK  11 active torsions:
REMARK  status: ('A' for Active; 'I' for Inactive)
REMARK    1  A    between atoms: C_1  and  N_2
REMARK    2  A    between atoms: N_2  and  S_3
REMARK    3  A    between atoms: S_3  and  C_6
REMARK    4  A    between atoms: N_8  and  C_9
REMARK    5  A    between atoms: C_9  and  C_10
REMARK    6  A    between atoms: N_15  and  C_16
REMARK    7  A    between atoms: C_21  and  O_22
REMARK    8  A    between atoms: O_22  and  C_23
REMARK    9  A    between atoms: C_27  and  S_28
REMARK   10  A    between atoms: S_28  and  N_31
REMARK   11  A    between atoms: N_31  and  C_32
REMARK                            x       y       z     vdW  Elec       q    Type
REMARK                         _______ _______ _______ _____ _____    ______ ____
ROOT
ATOM      1  C   UNL     1       3.773   4.945  18.294  0.00  0.00    +0.000 A 
ATOM      2  C   UNL     1       2.739   5.832  18.546  0.00  0.00    +0.000 A 
ATOM      3  N   UNL     1       3.071   7.046  18.007  0.00  0.00    +0.000 N 
ATOM      4  C   UNL     1       4.326   6.976  17.469  0.00  0.00    +0.000 A 
ATOM      5  C   UNL     1       4.775   5.678  17.609  0.00  0.00    +0.000 A 
ENDROOT
BRANCH   1   6
ATOM      6  S   UNL     1       3.767   3.277  18.738  0.00  0.00    +0.000 S 
ATOM      7  O   UNL     1       4.815   3.097  19.708  0.00  0.00    +0.000 OA
ATOM      8  O   UNL     1       3.749   2.567  17.478  0.00  0.00    +0.000 OA
BRANCH   6  10
ATOM      9  C   UNL     1       1.229   2.349  18.798  0.00  0.00    +0.000 C 
ATOM     10  N   UNL     1       2.329   2.940  19.561  0.00  0.00    +0.000 NA
ATOM     11  H   UNL     1       2.572   2.431  20.411  0.00  0.00    +0.000 HD
ENDBRANCH   6  10
ENDBRANCH   1   6
BRANCH   5  12
ATOM     12  S   UNL     1       6.286   5.100  17.050  0.00  0.00    +0.000 S 
ATOM     13  O   UNL     1       6.765   6.129  16.151  0.00  0.00    +0.000 OA
ATOM     14  O   UNL     1       6.995   4.657  18.227  0.00  0.00    +0.000 OA
BRANCH  12  15
ATOM     15  N   UNL     1       6.024   3.754  16.060  0.00  0.00    +0.000 NA
ATOM     16  C   UNL     1       6.290   3.925  14.630  0.00  0.00    +0.000 C 
ATOM     17  H   UNL     1       5.108   3.364  16.279  0.00  0.00    +0.000 HD
ENDBRANCH  12  15
ENDBRANCH   5  12
BRANCH   3  18
ATOM     18  C   UNL     1       2.317   8.286  18.124  0.00  0.00    +0.000 C 
BRANCH  18  19
ATOM     19  C   UNL     1       1.657   8.523  19.470  0.00  0.00    +0.000 C 
ATOM     20  O   UNL     1       1.940   7.879  20.478  0.00  0.00    +0.000 OA
ATOM     21  N   UNL     1       0.701   9.539  19.489  0.00  0.00    +0.000 N 
ATOM     22  C   UNL     1       0.013   9.795  20.764  0.00  0.00    +0.000 C 
ATOM     23  C   UNL     1      -0.597  11.203  20.812  0.00  0.00    +0.000 C 
ATOM     24  N   UNL     1      -1.473  11.373  19.634  0.00  0.00    +0.000 N 
ATOM     25  C   UNL     1      -0.731  11.291  18.370  0.00  0.00    +0.000 C 
ATOM     26  C   UNL     1      -0.081   9.889  18.289  0.00  0.00    +0.000 C 
BRANCH  24  27
ATOM     27  C   UNL     1      -2.625  12.143  19.728  0.00  0.00    +0.000 A 
ATOM     28  C   UNL     1      -2.636  13.279  20.569  0.00  0.00    +0.000 A 
ATOM     29  C   UNL     1      -3.792  14.025  20.819  0.00  0.00    +0.000 A 
ATOM     30  C   UNL     1      -4.986  13.663  20.219  0.00  0.00    +0.000 A 
ATOM     31  C   UNL     1      -5.003  12.589  19.336  0.00  0.00    +0.000 A 
ATOM     32  C   UNL     1      -3.844  11.835  19.077  0.00  0.00    +0.000 A 
BRANCH  32  33
ATOM     33  O   UNL     1      -4.069  10.880  18.118  0.00  0.00    +0.000 OA
ATOM     34  C   UNL     1      -4.134  11.304  16.769  0.00  0.00    +0.000 C 
ENDBRANCH  32  33
ENDBRANCH  24  27
ENDBRANCH  18  19
ENDBRANCH   3  18
TORSDOF 8
ENDMDL
MODEL 2
REMARK VINA RESULT:      -7.8      3.124      4.898
REMARK  Name = 
REMARK  11 active torsions:
REMARK  status: ('A' for Active; 'I' for Inactive)
REMARK    1  A    between atoms: C_1  and  N_2
REMARK    2  A    between atoms: N_2  and  S_3
REMARK    3  A    between atoms: S_3  and  C_6
REMARK    4  A    between atoms: N_8  and  C_9
REMARK    5  A    between atoms: C_9  and  C_10
REMARK    6  A    between atoms: N_15  and  C_16
REMARK    7  A    between atoms: C_21  and  O_22
REMARK    8  A    between atoms: O_22  and  C_23
REMARK    9  A    between atoms: C_27  and  S_28
REMARK   10  A    between atoms: S_28  and  N_31
REMARK   11  A    between atoms: N_31  and  C_32
REMARK                            x       y       z     vdW  Elec       q    Type
REMARK                         _______ _______ _______ _____ _____    ______ ____
ROOT
ATOM      1  C   UNL     1       5.900   4.512  17.690  0.00  0.00    +0.000 A 
ATOM      2  C   UNL     1       5.110   3.862  18.624  0.00  0.00    +0.000 A 
ATOM      3  N   UNL     1       3.969   3.433  18.000  0.00  0.00    +0.000 N 
ATOM      4  C   UNL     1       3.980   3.849  16.698  0.00  0.00    +0.000 A 
ATOM      5  C   UNL     1       5.177   4.497  16.470  0.00  0.00    +0.000 A 
ENDROOT
BRANCH   1   6
ATOM      6  S   UNL     1       7.464   5.168  18.013  0.00  0.00    +0.000 S 
ATOM      7  O   UNL     1       8.426   4.261  17.443  0.00  0.00    +0.000 OA
ATOM      8  O   UNL     1       7.440   5.483  19.425  0.00  0.00    +0.000 OA
BRANCH   6  10
ATOM      9  C   UNL     1       7.924   7.829  17.904  0.00  0.00    +0.000 C 
ATOM     10  N   UNL     1       7.637   6.609  17.147  0.00  0.00    +0.000 NA
ATOM     11  H   UNL     1       8.282   6.431  16.376  0.00  0.00    +0.000 HD
ENDBRANCH   6  10
ENDBRANCH   1   6
BRANCH   5  12
ATOM     12  S   UNL     1       5.660   5.163  14.969  0.00  0.00    +0.000 S 
ATOM     13  O   UNL     1       5.047   4.310  13.973  0.00  0.00    +0.000 OA
ATOM     14  O   UNL     1       5.424   6.583  15.077  0.00  0.00    +0.000 OA
BRANCH  12  15
ATOM     15  N   UNL     1       7.323   4.923  14.774  0.00  0.00    +0.000 NA
ATOM     16  C   UNL     1       7.882   5.221  13.454  0.00  0.00    +0.000 C 
ATOM     17  H   UNL     1       7.563   4.002  15.141  0.00  0.00    +0.000 HD
ENDBRANCH  12  15
ENDBRANCH   5  12
BRANCH   3  18
ATOM     18  C   UNL     1       2.822   2.791  18.627  0.00  0.00    +0.000 C 
BRANCH  18  19
ATOM     19  C   UNL     1       2.237   3.525  19.821  0.00  0.00    +0.000 C 
ATOM     20  O   UNL     1       1.854   2.951  20.838  0.00  0.00    +0.000 OA
ATOM     21  N   UNL     1       2.169   4.911  19.687  0.00  0.00    +0.000 N 
ATOM     22  C   UNL     1       1.587   5.669  20.805  0.00  0.00    +0.000 C 
ATOM     23  C   UNL     1       2.023   7.141  20.785  0.00  0.00    +0.000 C 
ATOM     24  N   UNL     1       1.691   7.710  19.462  0.00  0.00    +0.000 N 
ATOM     25  C   UNL     1       2.422   7.052  18.373  0.00  0.00    +0.000 C 
ATOM     26  C   UNL     1       2.026   5.557  18.368  0.00  0.00    +0.000 C 
BRANCH  24  27
ATOM     27  C   UNL     1       1.306   9.040  19.352  0.00  0.00    +0.000 A 
ATOM     28  C   UNL     1       1.879   9.850  18.346  0.00  0.00    +0.000 A 
ATOM     29  C   UNL     1       1.644  11.225  18.255  0.00  0.00    +0.000 A 
ATOM     30  C   UNL     1       0.808  11.841  19.171  0.00  0.00    +0.000 A 
ATOM     31  C   UNL     1       0.175  11.067  20.138  0.00  0.00    +0.000 A 
ATOM     32  C   UNL     1       0.405   9.683  20.235  0.00  0.00    +0.000 A 
BRANCH  32  33
ATOM     33  O   UNL     1      -0.381   9.109  21.202  0.00  0.00    +0.000 OA
ATOM     34  C   UNL     1      -0.217   9.556  22.535  0.00  0.00    +0.000 C 
ENDBRANCH  32  33
ENDBRANCH  24  27
ENDBRANCH  18  19
ENDBRANCH   3  18
TORSDOF 8
ENDMDL
MODEL 3
REMARK VINA RESULT:      -7.7      3.964     10.356
REMARK  Name = 
REMARK  11 active torsions:
REMARK  status: ('A' for Active; 'I' for Inactive)
REMARK    1  A    between atoms: C_1  and  N_2
REMARK    2  A    between atoms: N_2  and  S_3
REMARK    3  A    between atoms: S_3  and  C_6
REMARK    4  A    between atoms: N_8  and  C_9
REMARK    5  A    between atoms: C_9  and  C_10
REMARK    6  A    between atoms: N_15  and  C_16
REMARK    7  A    between atoms: C_21  and  O_22
REMARK    8  A    between atoms: O_22  and  C_23
REMARK    9  A    between atoms: C_27  and  S_28
REMARK   10  A    between atoms: S_28  and  N_31
REMARK   11  A    between atoms: N_31  and  C_32
REMARK                            x       y       z     vdW  Elec       q    Type
REMARK                         _______ _______ _______ _____ _____    ______ ____
ROOT
ATOM      1  C   UNL     1      -3.399  11.836  18.726  0.00  0.00    +0.000 A 
ATOM      2  C   UNL     1      -2.076  11.544  18.435  0.00  0.00    +0.000 A 
ATOM      3  N   UNL     1      -1.311  11.884  19.517  0.00  0.00    +0.000 N 
ATOM      4  C   UNL     1      -2.105  12.449  20.476  0.00  0.00    +0.000 A 
ATOM      5  C   UNL     1      -3.409  12.408  20.024  0.00  0.00    +0.000 A 
ENDROOT
BRANCH   1   6
ATOM      6  S   UNL     1      -4.730  11.518  17.674  0.00  0.00    +0.000 S 
ATOM      7  O   UNL     1      -5.539  10.512  18.313  0.00  0.00    +0.000 OA
ATOM      8  O   UNL     1      -4.125  11.315  16.376  0.00  0.00    +0.000 OA
BRANCH   6  10
ATOM      9  C   UNL     1      -7.152  12.704  17.503  0.00  0.00    +0.000 C 
ATOM     10  N   UNL     1      -5.705  12.898  17.600  0.00  0.00    +0.000 NA
ATOM     11  H   UNL     1      -5.413  13.523  18.351  0.00  0.00    +0.000 HD
ENDBRANCH   6  10
ENDBRANCH   1   6
BRANCH   5  12
ATOM     12  S   UNL     1      -4.767  12.970  20.901  0.00  0.00    +0.000 S 
ATOM     13  O   UNL     1      -4.334  12.986  22.282  0.00  0.00    +0.000 OA
ATOM     14  O   UNL     1      -5.240  14.131  20.186  0.00  0.00    +0.000 OA
BRANCH  12  15
ATOM     15  N   UNL     1      -5.980  11.792  20.845  0.00  0.00    +0.000 NA
ATOM     16  C   UNL     1      -7.327  12.214  21.233  0.00  0.00    +0.000 C 
ATOM     17  H   UNL     1      -5.641  10.956  21.322  0.00  0.00    +0.000 HD
ENDBRANCH  12  15
ENDBRANCH   5  12
BRANCH   3  18
ATOM     18  C   UNL     1       0.142  11.836  19.606  0.00  0.00    +0.000 C 
BRANCH  18  19
ATOM     19  C   UNL     1       0.704  10.752  20.508  0.00  0.00    +0.000 C 
ATOM     20  O   UNL     1       0.748  10.854  21.732  0.00  0.00    +0.000 OA
ATOM     21  N   UNL     1       1.166   9.613  19.847  0.00  0.00    +0.000 N 
ATOM     22  C   UNL     1       1.743   8.541  20.672  0.00  0.00    +0.000 C 
ATOM     23  C   UNL     1       1.731   7.190  19.943  0.00  0.00    +0.000 C 
ATOM     24  N   UNL     1       2.414   7.354  18.643  0.00  0.00    +0.000 N 
ATOM     25  C   UNL     1       1.717   8.300  17.763  0.00  0.00    +0.000 C 
ATOM     26  C   UNL     1       1.689   9.676  18.469  0.00  0.00    +0.000 C 
BRANCH  24  27
ATOM     27  C   UNL     1       3.158   6.309  18.110  0.00  0.00    +0.000 A 
ATOM     28  C   UNL     1       4.488   6.543  17.694  0.00  0.00    +0.000 A 
ATOM     29  C   UNL     1       5.253   5.580  17.029  0.00  0.00    +0.000 A 
ATOM     30  C   UNL     1       4.711   4.334  16.765  0.00  0.00    +0.000 A 
ATOM     31  C   UNL     1       3.427   4.045  17.213  0.00  0.00    +0.000 A 
ATOM     32  C   UNL     1       2.651   5.007  17.885  0.00  0.00    +0.000 A 
BRANCH  32  33
ATOM     33  O   UNL     1       1.455   4.483  18.306  0.00  0.00    +0.000 OA
ATOM     34  C   UNL     1       1.491   3.309  19.097  0.00  0.00    +0.000 C 
ENDBRANCH  32  33
ENDBRANCH  24  27
ENDBRANCH  18  19
ENDBRANCH   3  18
TORSDOF 8
ENDMDL
MODEL 4
REMARK VINA RESULT:      -7.6      0.938      2.873
REMARK  Name = 
REMARK  11 active torsions:
REMARK  status: ('A' for Active; 'I' for Inactive)
REMARK    1  A    between atoms: C_1  and  N_2
REMARK    2  A    between atoms: N_2  and  S_3
REMARK    3  A    between atoms: S_3  and  C_6
REMARK    4  A    between atoms: N_8  and  C_9
REMARK    5  A    between atoms: C_9  and  C_10
REMARK    6  A    between atoms: N_15  and  C_16
REMARK    7  A    between atoms: C_21  and  O_22
REMARK    8  A    between atoms: O_22  and  C_23
REMARK    9  A    between atoms: C_27  and  S_28
REMARK   10  A    between atoms: S_28  and  N_31
REMARK   11  A    between atoms: N_31  and  C_32
REMARK                            x       y       z     vdW  Elec       q    Type
REMARK                         _______ _______ _______ _____ _____    ______ ____
ROOT
ATOM      1  C   UNL     1       4.563   5.682  17.394  0.00  0.00    +0.000 A 
ATOM      2  C   UNL     1       4.160   7.004  17.288  0.00  0.00    +0.000 A 
ATOM      3  N   UNL     1       3.039   7.175  18.053  0.00  0.00    +0.000 N 
ATOM      4  C   UNL     1       2.673   5.975  18.599  0.00  0.00    +0.000 A 
ATOM      5  C   UNL     1       3.616   5.038  18.229  0.00  0.00    +0.000 A 
ENDROOT
BRANCH   1   6
ATOM      6  S   UNL     1       5.971   5.022  16.644  0.00  0.00    +0.000 S 
ATOM      7  O   UNL     1       6.705   6.126  16.082  0.00  0.00    +0.000 OA
ATOM      8  O   UNL     1       5.472   3.932  15.834  0.00  0.00    +0.000 OA
BRANCH   6  10
ATOM      9  C   UNL     1       7.672   5.320  18.722  0.00  0.00    +0.000 C 
ATOM     10  N   UNL     1       6.975   4.381  17.844  0.00  0.00    +0.000 NA
ATOM     11  H   UNL     1       6.447   3.658  18.334  0.00  0.00    +0.000 HD
ENDBRANCH   6  10
ENDBRANCH   1   6
BRANCH   5  12
ATOM     12  S   UNL     1       3.600   3.394  18.705  0.00  0.00    +0.000 S 
ATOM     13  O   UNL     1       3.219   2.667  17.513  0.00  0.00    +0.000 OA
ATOM     14  O   UNL     1       4.835   3.183  19.424  0.00  0.00    +0.000 OA
BRANCH  12  15
ATOM     15  N   UNL     1       2.320   3.150  19.784  0.00  0.00    +0.000 NA
ATOM     16  C   UNL     1       1.092   2.576  19.231  0.00  0.00    +0.000 C 
ATOM     17  H   UNL     1       2.186   4.004  20.325  0.00  0.00    +0.000 HD
ENDBRANCH  12  15
ENDBRANCH   5  12
BRANCH   3  18
ATOM     18  C   UNL     1       2.229   8.381  18.154  0.00  0.00    +0.000 C 
BRANCH  18  19
ATOM     19  C   UNL     1       1.609   8.638  19.516  0.00  0.00    +0.000 C 
ATOM     20  O   UNL     1       1.918   8.004  20.523  0.00  0.00    +0.000 OA
ATOM     21  N   UNL     1       0.661   9.660  19.550  0.00  0.00    +0.000 N 
ATOM     22  C   UNL     1       0.012   9.935  20.841  0.00  0.00    +0.000 C 
ATOM     23  C   UNL     1      -0.588  11.348  20.890  0.00  0.00    +0.000 C 
ATOM     24  N   UNL     1      -1.497  11.509  19.736  0.00  0.00    +0.000 N 
ATOM     25  C   UNL     1      -0.792  11.408  18.452  0.00  0.00    +0.000 C 
ATOM     26  C   UNL     1      -0.154  10.002  18.369  0.00  0.00    +0.000 C 
BRANCH  24  27
ATOM     27  C   UNL     1      -2.642  12.288  19.854  0.00  0.00    +0.000 A 
ATOM     28  C   UNL     1      -2.649  13.382  20.749  0.00  0.00    +0.000 A 
ATOM     29  C   UNL     1      -3.799  14.130  21.021  0.00  0.00    +0.000 A 
ATOM     30  C   UNL     1      -4.990  13.811  20.391  0.00  0.00    +0.000 A 
ATOM     31  C   UNL     1      -5.009  12.781  19.457  0.00  0.00    +0.000 A 
ATOM     32  C   UNL     1      -3.856  12.026  19.176  0.00  0.00    +0.000 A 
BRANCH  32  33
ATOM     33  O   UNL     1      -4.080  11.121  18.169  0.00  0.00    +0.000 OA
ATOM     34  C   UNL     1      -5.143  11.383  17.271  0.00  0.00    +0.000 C 
ENDBRANCH  32  33
ENDBRANCH  24  27
ENDBRANCH  18  19
ENDBRANCH   3  18
TORSDOF 8
ENDMDL
MODEL 5
REMARK VINA RESULT:      -7.6      3.318      5.062
REMARK  Name = 
REMARK  11 active torsions:
REMARK  status: ('A' for Active; 'I' for Inactive)
REMARK    1  A    between atoms: C_1  and  N_2
REMARK    2  A    between atoms: N_2  and  S_3
REMARK    3  A    between atoms: S_3  and  C_6
REMARK    4  A    between atoms: N_8  and  C_9
REMARK    5  A    between atoms: C_9  and  C_10
REMARK    6  A    between atoms: N_15  and  C_16
REMARK    7  A    between atoms: C_21  and  O_22
REMARK    8  A    between atoms: O_22  and  C_23
REMARK    9  A    between atoms: C_27  and  S_28
REMARK   10  A    between atoms: S_28  and  N_31
REMARK   11  A    between atoms: N_31  and  C_32
REMARK                            x       y       z     vdW  Elec       q    Type
REMARK                         _______ _______ _______ _____ _____    ______ ____
ROOT
ATOM      1  C   UNL     1       5.452   4.413  16.546  0.00  0.00    +0.000 A 
ATOM      2  C   UNL     1       4.209   3.811  16.645  0.00  0.00    +0.000 A 
ATOM      3  N   UNL     1       3.964   3.540  17.964  0.00  0.00    +0.000 N 
ATOM      4  C   UNL     1       5.052   3.897  18.711  0.00  0.00    +0.000 A 
ATOM      5  C   UNL     1       5.980   4.467  17.862  0.00  0.00    +0.000 A 
ENDROOT
BRANCH   1   6
ATOM      6  S   UNL     1       6.153   4.985  15.076  0.00  0.00    +0.000 S 
ATOM      7  O   UNL     1       7.535   4.577  15.083  0.00  0.00    +0.000 OA
ATOM      8  O   UNL     1       5.758   6.374  15.003  0.00  0.00    +0.000 OA
BRANCH   6  10
ATOM      9  C   UNL     1       6.334   3.653  12.732  0.00  0.00    +0.000 C 
ATOM     10  N   UNL     1       5.448   4.159  13.781  0.00  0.00    +0.000 NA
ATOM     11  H   UNL     1       4.813   3.461  14.168  0.00  0.00    +0.000 HD
ENDBRANCH   6  10
ENDBRANCH   1   6
BRANCH   5  12
ATOM     12  S   UNL     1       7.493   5.101  18.349  0.00  0.00    +0.000 S 
ATOM     13  O   UNL     1       7.299   5.499  19.727  0.00  0.00    +0.000 OA
ATOM     14  O   UNL     1       8.478   4.140  17.914  0.00  0.00    +0.000 OA
BRANCH  12  15
ATOM     15  N   UNL     1       7.772   6.549  17.519  0.00  0.00    +0.000 NA
ATOM     16  C   UNL     1       8.136   7.713  18.329  0.00  0.00    +0.000 C 
ATOM     17  H   UNL     1       6.999   6.704  16.872  0.00  0.00    +0.000 HD
ENDBRANCH  12  15
ENDBRANCH   5  12
BRANCH   3  18
ATOM     18  C   UNL     1       2.819   2.823  18.508  0.00  0.00    +0.000 C 
BRANCH  18  19
ATOM     19  C   UNL     1       2.181   3.448  19.735  0.00  0.00    +0.000 C 
ATOM     20  O   UNL     1       1.741   2.786  20.673  0.00  0.00    +0.000 OA
ATOM     21  N   UNL     1       2.135   4.842  19.732  0.00  0.00    +0.000 N 
ATOM     22  C   UNL     1       1.505   5.499  20.887  0.00  0.00    +0.000 C 
ATOM     23  C   UNL     1       1.957   6.960  21.030  0.00  0.00    +0.000 C 
ATOM     24  N   UNL     1       1.698   7.656  19.752  0.00  0.00    +0.000 N 
ATOM     25  C   UNL     1       2.477   7.094  18.643  0.00  0.00    +0.000 C 
ATOM     26  C   UNL     1       2.066   5.612  18.475  0.00  0.00    +0.000 C 
BRANCH  24  27
ATOM     27  C   UNL     1       1.333   8.997  19.751  0.00  0.00    +0.000 A 
ATOM     28  C   UNL     1       1.331   9.717  18.535  0.00  0.00    +0.000 A 
ATOM     29  C   UNL     1       1.106  11.095  18.471  0.00  0.00    +0.000 A 
ATOM     30  C   UNL     1       0.860  11.805  19.634  0.00  0.00    +0.000 A 
ATOM     31  C   UNL     1       0.792  11.122  20.844  0.00  0.00    +0.000 A 
ATOM     32  C   UNL     1       1.015   9.735  20.916  0.00  0.00    +0.000 A 
BRANCH  32  33
ATOM     33  O   UNL     1       0.819   9.260  22.188  0.00  0.00    +0.000 OA
ATOM     34  C   UNL     1      -0.494   9.308  22.715  0.00  0.00    +0.000 C 
ENDBRANCH  32  33
ENDBRANCH  24  27
ENDBRANCH  18  19
ENDBRANCH   3  18
TORSDOF 8
ENDMDL
MODEL 6
REMARK VINA RESULT:      -7.5      3.878     10.453
REMARK  Name = 
REMARK  11 active torsions:
REMARK  status: ('A' for Active; 'I' for Inactive)
REMARK    1  A    between atoms: C_1  and  N_2
REMARK    2  A    between atoms: N_2  and  S_3
REMARK    3  A    between atoms: S_3  and  C_6
REMARK    4  A    between atoms: N_8  and  C_9
REMARK    5  A    between atoms: C_9  and  C_10
REMARK    6  A    between atoms: N_15  and  C_16
REMARK    7  A    between atoms: C_21  and  O_22
REMARK    8  A    between atoms: O_22  and  C_23
REMARK    9  A    between atoms: C_27  and  S_28
REMARK   10  A    between atoms: S_28  and  N_31
REMARK   11  A    between atoms: N_31  and  C_32
REMARK                            x       y       z     vdW  Elec       q    Type
REMARK                         _______ _______ _______ _____ _____    ______ ____
ROOT
ATOM      1  C   UNL     1      -3.317  11.856  18.801  0.00  0.00    +0.000 A 
ATOM      2  C   UNL     1      -2.012  11.527  18.471  0.00  0.00    +0.000 A 
ATOM      3  N   UNL     1      -1.208  11.834  19.534  0.00  0.00    +0.000 N 
ATOM      4  C   UNL     1      -1.958  12.414  20.520  0.00  0.00    +0.000 A 
ATOM      5  C   UNL     1      -3.275  12.415  20.103  0.00  0.00    +0.000 A 
ENDROOT
BRANCH   1   6
ATOM      6  S   UNL     1      -4.686  11.586  17.784  0.00  0.00    +0.000 S 
ATOM      7  O   UNL     1      -5.494  10.582  18.425  0.00  0.00    +0.000 OA
ATOM      8  O   UNL     1      -4.125  11.400  16.464  0.00  0.00    +0.000 OA
BRANCH   6  10
ATOM      9  C   UNL     1      -7.032  12.856  17.353  0.00  0.00    +0.000 C 
ATOM     10  N   UNL     1      -5.635  12.985  17.769  0.00  0.00    +0.000 NA
ATOM     11  H   UNL     1      -5.504  13.457  18.664  0.00  0.00    +0.000 HD
ENDBRANCH   6  10
ENDBRANCH   1   6
BRANCH   5  12
ATOM     12  S   UNL     1      -4.591  13.009  21.022  0.00  0.00    +0.000 S 
ATOM     13  O   UNL     1      -4.131  12.969  22.394  0.00  0.00    +0.000 OA
ATOM     14  O   UNL     1      -5.028  14.209  20.348  0.00  0.00    +0.000 OA
BRANCH  12  15
ATOM     15  N   UNL     1      -5.853  11.885  20.959  0.00  0.00    +0.000 NA
ATOM     16  C   UNL     1      -7.211  12.409  21.121  0.00  0.00    +0.000 C 
ATOM     17  H   UNL     1      -5.622  11.104  21.573  0.00  0.00    +0.000 HD
ENDBRANCH  12  15
ENDBRANCH   5  12
BRANCH   3  18
ATOM     18  C   UNL     1       0.245  11.743  19.582  0.00  0.00    +0.000 C 
BRANCH  18  19
ATOM     19  C   UNL     1       0.799  10.639  20.465  0.00  0.00    +0.000 C 
ATOM     20  O   UNL     1       0.898  10.744  21.686  0.00  0.00    +0.000 OA
ATOM     21  N   UNL     1       1.185   9.481  19.791  0.00  0.00    +0.000 N 
ATOM     22  C   UNL     1       1.752   8.388  20.597  0.00  0.00    +0.000 C 
ATOM     23  C   UNL     1       1.653   7.036  19.876  0.00  0.00    +0.000 C 
ATOM     24  N   UNL     1       2.287   7.168  18.547  0.00  0.00    +0.000 N 
ATOM     25  C   UNL     1       1.594   8.139  17.692  0.00  0.00    +0.000 C 
ATOM     26  C   UNL     1       1.652   9.517  18.392  0.00  0.00    +0.000 C 
BRANCH  24  27
ATOM     27  C   UNL     1       2.964   6.091  17.988  0.00  0.00    +0.000 A 
ATOM     28  C   UNL     1       2.325   4.834  17.907  0.00  0.00    +0.000 A 
ATOM     29  C   UNL     1       2.982   3.675  17.482  0.00  0.00    +0.000 A 
ATOM     30  C   UNL     1       4.314   3.740  17.108  0.00  0.00    +0.000 A 
ATOM     31  C   UNL     1       4.961   4.971  17.114  0.00  0.00    +0.000 A 
ATOM     32  C   UNL     1       4.305   6.141  17.538  0.00  0.00    +0.000 A 
BRANCH  32  33
ATOM     33  O   UNL     1       5.102   7.248  17.386  0.00  0.00    +0.000 OA
ATOM     34  C   UNL     1       6.502   7.049  17.325  0.00  0.00    +0.000 C 
ENDBRANCH  32  33
ENDBRANCH  24  27
ENDBRANCH  18  19
ENDBRANCH   3  18
TORSDOF 8
ENDMDL
MODEL 7
REMARK VINA RESULT:      -7.5      1.041      2.910
REMARK  Name = 
REMARK  11 active torsions:
REMARK  status: ('A' for Active; 'I' for Inactive)
REMARK    1  A    between atoms: C_1  and  N_2
REMARK    2  A    between atoms: N_2  and  S_3
REMARK    3  A    between atoms: S_3  and  C_6
REMARK    4  A    between atoms: N_8  and  C_9
REMARK    5  A    between atoms: C_9  and  C_10
REMARK    6  A    between atoms: N_15  and  C_16
REMARK    7  A    between atoms: C_21  and  O_22
REMARK    8  A    between atoms: O_22  and  C_23
REMARK    9  A    between atoms: C_27  and  S_28
REMARK   10  A    between atoms: S_28  and  N_31
REMARK   11  A    between atoms: N_31  and  C_32
REMARK                            x       y       z     vdW  Elec       q    Type
REMARK                         _______ _______ _______ _____ _____    ______ ____
ROOT
ATOM      1  C   UNL     1       4.703   5.943  17.517  0.00  0.00    +0.000 A 
ATOM      2  C   UNL     1       4.231   7.246  17.492  0.00  0.00    +0.000 A 
ATOM      3  N   UNL     1       2.977   7.260  18.040  0.00  0.00    +0.000 N 
ATOM      4  C   UNL     1       2.605   5.984  18.360  0.00  0.00    +0.000 A 
ATOM      5  C   UNL     1       3.667   5.150  18.072  0.00  0.00    +0.000 A 
ENDROOT
BRANCH   1   6
ATOM      6  S   UNL     1       6.270   5.456  16.982  0.00  0.00    +0.000 S 
ATOM      7  O   UNL     1       6.842   4.654  18.033  0.00  0.00    +0.000 OA
ATOM      8  O   UNL     1       6.890   6.677  16.516  0.00  0.00    +0.000 OA
BRANCH   6  10
ATOM      9  C   UNL     1       6.893   4.679  14.470  0.00  0.00    +0.000 C 
ATOM     10  N   UNL     1       6.093   4.410  15.666  0.00  0.00    +0.000 NA
ATOM     11  H   UNL     1       6.169   3.455  16.017  0.00  0.00    +0.000 HD
ENDBRANCH   6  10
ENDBRANCH   1   6
BRANCH   5  12
ATOM     12  S   UNL     1       3.683   3.459  18.340  0.00  0.00    +0.000 S 
ATOM     13  O   UNL     1       2.432   3.180  19.012  0.00  0.00    +0.000 OA
ATOM     14  O   UNL     1       4.078   2.868  17.083  0.00  0.00    +0.000 OA
BRANCH  12  15
ATOM     15  N   UNL     1       4.875   3.099  19.485  0.00  0.00    +0.000 NA
ATOM     16  C   UNL     1       4.607   1.975  20.384  0.00  0.00    +0.000 C 
ATOM     17  H   UNL     1       5.146   3.963  19.952  0.00  0.00    +0.000 HD
ENDBRANCH  12  15
ENDBRANCH   5  12
BRANCH   3  18
ATOM     18  C   UNL     1       2.076   8.402  18.123  0.00  0.00    +0.000 C 
BRANCH  18  19
ATOM     19  C   UNL     1       1.499   8.678  19.500  0.00  0.00    +0.000 C 
ATOM     20  O   UNL     1       1.828   8.047  20.503  0.00  0.00    +0.000 OA
ATOM     21  N   UNL     1       0.565   9.712  19.553  0.00  0.00    +0.000 N 
ATOM     22  C   UNL     1      -0.043  10.006  20.860  0.00  0.00    +0.000 C 
ATOM     23  C   UNL     1      -0.623  11.426  20.914  0.00  0.00    +0.000 C 
ATOM     24  N   UNL     1      -1.563  11.591  19.784  0.00  0.00    +0.000 N 
ATOM     25  C   UNL     1      -0.895  11.471  18.483  0.00  0.00    +0.000 C 
ATOM     26  C   UNL     1      -0.278  10.055  18.393  0.00  0.00    +0.000 C 
BRANCH  24  27
ATOM     27  C   UNL     1      -2.693  12.386  19.929  0.00  0.00    +0.000 A 
ATOM     28  C   UNL     1      -2.656  13.495  20.804  0.00  0.00    +0.000 A 
ATOM     29  C   UNL     1      -3.787  14.261  21.103  0.00  0.00    +0.000 A 
ATOM     30  C   UNL     1      -5.003  13.947  20.521  0.00  0.00    +0.000 A 
ATOM     31  C   UNL     1      -5.067  12.901  19.606  0.00  0.00    +0.000 A 
ATOM     32  C   UNL     1      -3.933  12.127  19.298  0.00  0.00    +0.000 A 
BRANCH  32  33
ATOM     33  O   UNL     1      -4.203  11.207  18.316  0.00  0.00    +0.000 OA
ATOM     34  C   UNL     1      -5.540  11.101  17.863  0.00  0.00    +0.000 C 
ENDBRANCH  32  33
ENDBRANCH  24  27
ENDBRANCH  18  19
ENDBRANCH   3  18
TORSDOF 8
ENDMDL
MODEL 8
REMARK VINA RESULT:      -7.5      3.966     10.275
REMARK  Name = 
REMARK  11 active torsions:
REMARK  status: ('A' for Active; 'I' for Inactive)
REMARK    1  A    between atoms: C_1  and  N_2
REMARK    2  A    between atoms: N_2  and  S_3
REMARK    3  A    between atoms: S_3  and  C_6
REMARK    4  A    between atoms: N_8  and  C_9
REMARK    5  A    between atoms: C_9  and  C_10
REMARK    6  A    between atoms: N_15  and  C_16
REMARK    7  A    between atoms: C_21  and  O_22
REMARK    8  A    between atoms: O_22  and  C_23
REMARK    9  A    between atoms: C_27  and  S_28
REMARK   10  A    between atoms: S_28  and  N_31
REMARK   11  A    between atoms: N_31  and  C_32
REMARK                            x       y       z     vdW  Elec       q    Type
REMARK                         _______ _______ _______ _____ _____    ______ ____
ROOT
ATOM      1  C   UNL     1      -3.536  12.563  20.164  0.00  0.00    +0.000 A 
ATOM      2  C   UNL     1      -2.230  12.693  20.606  0.00  0.00    +0.000 A 
ATOM      3  N   UNL     1      -1.394  12.244  19.619  0.00  0.00    +0.000 N 
ATOM      4  C   UNL     1      -2.138  11.768  18.575  0.00  0.00    +0.000 A 
ATOM      5  C   UNL     1      -3.469  11.978  18.874  0.00  0.00    +0.000 A 
ENDROOT
BRANCH   1   6
ATOM      6  S   UNL     1      -4.929  13.060  21.055  0.00  0.00    +0.000 S 
ATOM      7  O   UNL     1      -5.546  14.127  20.309  0.00  0.00    +0.000 OA
ATOM      8  O   UNL     1      -4.449  13.239  22.407  0.00  0.00    +0.000 OA
BRANCH   6  10
ATOM      9  C   UNL     1      -7.475  12.154  21.095  0.00  0.00    +0.000 C 
ATOM     10  N   UNL     1      -6.055  11.799  21.050  0.00  0.00    +0.000 NA
ATOM     11  H   UNL     1      -5.804  11.163  20.293  0.00  0.00    +0.000 HD
ENDBRANCH   6  10
ENDBRANCH   1   6
BRANCH   5  12
ATOM     12  S   UNL     1      -4.778  11.577  17.846  0.00  0.00    +0.000 S 
ATOM     13  O   UNL     1      -4.181  11.404  16.539  0.00  0.00    +0.000 OA
ATOM     14  O   UNL     1      -5.520  10.552  18.540  0.00  0.00    +0.000 OA
BRANCH  12  15
ATOM     15  N   UNL     1      -5.780  12.929  17.683  0.00  0.00    +0.000 NA
ATOM     16  C   UNL     1      -7.212  12.672  17.514  0.00  0.00    +0.000 C 
ATOM     17  H   UNL     1      -5.373  13.552  16.986  0.00  0.00    +0.000 HD
ENDBRANCH  12  15
ENDBRANCH   5  12
BRANCH   3  18
ATOM     18  C   UNL     1       0.054  12.109  19.699  0.00  0.00    +0.000 C 
BRANCH  18  19
ATOM     19  C   UNL     1       0.555  10.970  20.568  0.00  0.00    +0.000 C 
ATOM     20  O   UNL     1       0.515  10.996  21.796  0.00  0.00    +0.000 OA
ATOM     21  N   UNL     1       1.064   9.874  19.870  0.00  0.00    +0.000 N 
ATOM     22  C   UNL     1       1.586   8.751  20.664  0.00  0.00    +0.000 C 
ATOM     23  C   UNL     1       1.626   7.448  19.853  0.00  0.00    +0.000 C 
ATOM     24  N   UNL     1       2.396   7.692  18.615  0.00  0.00    +0.000 N 
ATOM     25  C   UNL     1       1.759   8.692  17.750  0.00  0.00    +0.000 C 
ATOM     26  C   UNL     1       1.679  10.022  18.537  0.00  0.00    +0.000 C 
BRANCH  24  27
ATOM     27  C   UNL     1       3.177   6.681  18.069  0.00  0.00    +0.000 A 
ATOM     28  C   UNL     1       4.324   7.017  17.315  0.00  0.00    +0.000 A 
ATOM     29  C   UNL     1       5.082   6.066  16.625  0.00  0.00    +0.000 A 
ATOM     30  C   UNL     1       4.721   4.731  16.678  0.00  0.00    +0.000 A 
ATOM     31  C   UNL     1       3.636   4.352  17.461  0.00  0.00    +0.000 A 
ATOM     32  C   UNL     1       2.869   5.302  18.159  0.00  0.00    +0.000 A 
BRANCH  32  33
ATOM     33  O   UNL     1       1.903   4.703  18.927  0.00  0.00    +0.000 OA
ATOM     34  C   UNL     1       1.245   3.569  18.393  0.00  0.00    +0.000 C 
ENDBRANCH  32  33
ENDBRANCH  24  27
ENDBRANCH  18  19
ENDBRANCH   3  18
TORSDOF 8
ENDMDL
MODEL 9
REMARK VINA RESULT:      -7.4      1.923      3.517
REMARK  Name = 
REMARK  11 active torsions:
REMARK  status: ('A' for Active; 'I' for Inactive)
REMARK    1  A    between atoms: C_1  and  N_2
REMARK    2  A    between atoms: N_2  and  S_3
REMARK    3  A    between atoms: S_3  and  C_6
REMARK    4  A    between atoms: N_8  and  C_9
REMARK    5  A    between atoms: C_9  and  C_10
REMARK    6  A    between atoms: N_15  and  C_16
REMARK    7  A    between atoms: C_21  and  O_22
REMARK    8  A    between atoms: O_22  and  C_23
REMARK    9  A    between atoms: C_27  and  S_28
REMARK   10  A    between atoms: S_28  and  N_31
REMARK   11  A    between atoms: N_31  and  C_32
REMARK                            x       y       z     vdW  Elec       q    Type
REMARK                         _______ _______ _______ _____ _____    ______ ____
ROOT
ATOM      1  C   UNL     1       4.683   5.538  17.563  0.00  0.00    +0.000 A 
ATOM      2  C   UNL     1       4.168   6.818  17.441  0.00  0.00    +0.000 A 
ATOM      3  N   UNL     1       2.984   6.873  18.125  0.00  0.00    +0.000 N 
ATOM      4  C   UNL     1       2.694   5.637  18.632  0.00  0.00    +0.000 A 
ATOM      5  C   UNL     1       3.744   4.796  18.322  0.00  0.00    +0.000 A 
ENDROOT
BRANCH   1   6
ATOM      6  S   UNL     1       6.195   5.021  16.910  0.00  0.00    +0.000 S 
ATOM      7  O   UNL     1       6.844   6.190  16.376  0.00  0.00    +0.000 OA
ATOM      8  O   UNL     1       5.863   3.878  16.088  0.00  0.00    +0.000 OA
BRANCH   6  10
ATOM      9  C   UNL     1       7.765   5.518  19.053  0.00  0.00    +0.000 C 
ATOM     10  N   UNL     1       7.184   4.499  18.177  0.00  0.00    +0.000 NA
ATOM     11  H   UNL     1       6.689   3.754  18.669  0.00  0.00    +0.000 HD
ENDBRANCH   6  10
ENDBRANCH   1   6
BRANCH   5  12
ATOM     12  S   UNL     1       3.847   3.151  18.782  0.00  0.00    +0.000 S 
ATOM     13  O   UNL     1       3.659   2.411  17.553  0.00  0.00    +0.000 OA
ATOM     14  O   UNL     1       5.020   3.051  19.618  0.00  0.00    +0.000 OA
BRANCH  12  15
ATOM     15  N   UNL     1       2.498   2.762  19.727  0.00  0.00    +0.000 NA
ATOM     16  C   UNL     1       2.663   2.853  21.179  0.00  0.00    +0.000 C 
ATOM     17  H   UNL     1       2.116   1.876  19.397  0.00  0.00    +0.000 HD
ENDBRANCH  12  15
ENDBRANCH   5  12
BRANCH   3  18
ATOM     18  C   UNL     1       2.061   7.999  18.178  0.00  0.00    +0.000 C 
BRANCH  18  19
ATOM     19  C   UNL     1       1.659   8.446  19.572  0.00  0.00    +0.000 C 
ATOM     20  O   UNL     1       1.756   7.723  20.562  0.00  0.00    +0.000 OA
ATOM     21  N   UNL     1       1.173   9.750  19.657  0.00  0.00    +0.000 N 
ATOM     22  C   UNL     1       0.746  10.227  20.981  0.00  0.00    +0.000 C 
ATOM     23  C   UNL     1       0.731  11.760  21.059  0.00  0.00    +0.000 C 
ATOM     24  N   UNL     1      -0.108  12.276  19.957  0.00  0.00    +0.000 N 
ATOM     25  C   UNL     1       0.437  11.939  18.637  0.00  0.00    +0.000 C 
ATOM     26  C   UNL     1       0.488  10.398  18.522  0.00  0.00    +0.000 C 
BRANCH  24  27
ATOM     27  C   UNL     1      -0.863  13.429  20.137  0.00  0.00    +0.000 A 
ATOM     28  C   UNL     1      -0.421  14.645  19.569  0.00  0.00    +0.000 A 
ATOM     29  C   UNL     1      -1.052  15.869  19.816  0.00  0.00    +0.000 A 
ATOM     30  C   UNL     1      -2.164  15.915  20.638  0.00  0.00    +0.000 A 
ATOM     31  C   UNL     1      -2.667  14.730  21.166  0.00  0.00    +0.000 A 
ATOM     32  C   UNL     1      -2.039  13.495  20.921  0.00  0.00    +0.000 A 
BRANCH  32  33
ATOM     33  O   UNL     1      -2.746  12.454  21.469  0.00  0.00    +0.000 OA
ATOM     34  C   UNL     1      -2.596  12.213  22.856  0.00  0.00    +0.000 C 
ENDBRANCH  32  33
ENDBRANCH  24  27
ENDBRANCH  18  19
ENDBRANCH   3  18
TORSDOF 8
ENDMDL
