MODEL 1
REMARK VINA RESULT:      -8.6      0.000      0.000
REMARK  Name = 
REMARK  5 active torsions:
REMARK  status: ('A' for Active; 'I' for Inactive)
REMARK    1  A    between atoms: C_2  and  C_3
REMARK    2  A    between atoms: C_8  and  C_9
REMARK    3  A    between atoms: C_9  and  C_11
REMARK    4  A    between atoms: C_17  and  C_18
REMARK    5  A    between atoms: N_21  and  C_22
REMARK                            x       y       z     vdW  Elec       q    Type
REMARK                         _______ _______ _______ _____ _____    ______ ____
ROOT
ATOM      1  C   UNL     1      -1.639  11.844  21.118  0.00  0.00    +0.000 A 
ATOM      2  C   UNL     1      -2.184  11.665  22.382  0.00  0.00    +0.000 A 
ATOM      3  N   UNL     1      -1.114  11.444  23.189  0.00  0.00    +0.000 N 
ATOM      4  C   UNL     1      -0.263  10.660  22.485  0.00  0.00    +0.000 A 
ATOM      5  N   UNL     1       0.619   9.877  23.108  0.00  0.00    +0.000 NA
ATOM      6  C   UNL     1       1.213   9.002  22.281  0.00  0.00    +0.000 A 
ATOM      7  C   UNL     1       1.072   8.917  20.890  0.00  0.00    +0.000 A 
ATOM      8  C   UNL     1       0.256   9.935  20.272  0.00  0.00    +0.000 A 
ATOM      9  C   UNL     1      -0.550  10.809  21.121  0.00  0.00    +0.000 A 
ATOM     10  H   UNL     1      -1.070  11.549  24.190  0.00  0.00    +0.000 HD
ENDROOT
BRANCH   7  11
ATOM     11  C   UNL     1       1.697   7.710  20.278  0.00  0.00    +0.000 A 
ATOM     12  C   UNL     1       2.400   7.643  19.030  0.00  0.00    +0.000 A 
ATOM     13  N   UNL     1       2.861   6.435  18.722  0.00  0.00    +0.000 NA
ATOM     14  N   UNL     1       2.499   5.671  19.769  0.00  0.00    +0.000 N 
ATOM     15  C   UNL     1       1.798   6.401  20.724  0.00  0.00    +0.000 A 
BRANCH  14  16
ATOM     16  C   UNL     1       3.051   4.308  19.800  0.00  0.00    +0.000 C 
ATOM     17  C   UNL     1       3.147   3.621  18.417  0.00  0.00    +0.000 C 
ATOM     18  C   UNL     1       1.784   3.146  17.928  0.00  0.00    +0.000 C 
ATOM     19  N   UNL     1       1.139   2.254  18.893  0.00  0.00    +0.000 NA
ATOM     20  C   UNL     1       1.023   2.861  20.218  0.00  0.00    +0.000 C 
ATOM     21  C   UNL     1       2.366   3.337  20.766  0.00  0.00    +0.000 C 
ATOM     22  H   UNL     1       1.661   1.380  18.956  0.00  0.00    +0.000 HD
ENDBRANCH  14  16
ENDBRANCH   7  11
BRANCH   1  23
ATOM     23  C   UNL     1      -2.295  12.785  20.179  0.00  0.00    +0.000 C 
ATOM     24  O   UNL     1      -2.199  13.998  20.329  0.00  0.00    +0.000 OA
BRANCH  23  30
ATOM     25  C   UNL     1      -3.653  11.191  16.804  0.00  0.00    +0.000 A 
ATOM     26  C   UNL     1      -5.030  11.232  17.022  0.00  0.00    +0.000 A 
ATOM     27  C   UNL     1      -5.521  11.741  18.231  0.00  0.00    +0.000 A 
ATOM     28  C   UNL     1      -4.650  12.242  19.230  0.00  0.00    +0.000 A 
ATOM     29 CL   UNL     1      -5.421  12.866  20.644  0.00  0.00    +0.000 Cl
ATOM     30  C   UNL     1      -3.254  12.233  19.053  0.00  0.00    +0.000 A 
ATOM     31  C   UNL     1      -2.782  11.669  17.823  0.00  0.00    +0.000 A 
BRANCH  25  33
ATOM     32  N   UNL     1      -2.777  10.270  14.527  0.00  0.00    +0.000 NA
ATOM     33  C   UNL     1      -3.161  10.682  15.549  0.00  0.00    +0.000 C 
ENDBRANCH  25  33
ENDBRANCH  23  30
ENDBRANCH   1  23
TORSDOF 5
ENDMDL
MODEL 2
REMARK VINA RESULT:      -8.2      2.319      3.270
REMARK  Name = 
REMARK  5 active torsions:
REMARK  status: ('A' for Active; 'I' for Inactive)
REMARK    1  A    between atoms: C_2  and  C_3
REMARK    2  A    between atoms: C_8  and  C_9
REMARK    3  A    between atoms: C_9  and  C_11
REMARK    4  A    between atoms: C_17  and  C_18
REMARK    5  A    between atoms: N_21  and  C_22
REMARK                            x       y       z     vdW  Elec       q    Type
REMARK                         _______ _______ _______ _____ _____    ______ ____
ROOT
ATOM      1  C   UNL     1      -0.297  10.622  19.661  0.00  0.00    +0.000 A 
ATOM      2  C   UNL     1      -1.008  10.341  20.820  0.00  0.00    +0.000 A 
ATOM      3  N   UNL     1      -0.064   9.940  21.711  0.00  0.00    +0.000 N 
ATOM      4  C   UNL     1       0.816   9.178  21.018  0.00  0.00    +0.000 A 
ATOM      5  N   UNL     1       1.559   8.258  21.635  0.00  0.00    +0.000 NA
ATOM      6  C   UNL     1       2.194   7.442  20.778  0.00  0.00    +0.000 A 
ATOM      7  C   UNL     1       2.223   7.534  19.381  0.00  0.00    +0.000 A 
ATOM      8  C   UNL     1       1.560   8.681  18.806  0.00  0.00    +0.000 A 
ATOM      9  C   UNL     1       0.713   9.510  19.660  0.00  0.00    +0.000 A 
ATOM     10  H   UNL     1      -0.140   9.922  22.716  0.00  0.00    +0.000 HD
ENDROOT
BRANCH   7  11
ATOM     11  C   UNL     1       2.840   6.361  18.697  0.00  0.00    +0.000 A 
ATOM     12  C   UNL     1       2.153   5.280  18.053  0.00  0.00    +0.000 A 
ATOM     13  N   UNL     1       2.950   4.361  17.518  0.00  0.00    +0.000 NA
ATOM     14  N   UNL     1       4.190   4.820  17.771  0.00  0.00    +0.000 N 
ATOM     15  C   UNL     1       4.165   6.018  18.477  0.00  0.00    +0.000 A 
BRANCH  14  16
ATOM     16  C   UNL     1       5.294   4.100  17.118  0.00  0.00    +0.000 C 
ATOM     17  C   UNL     1       6.704   4.487  17.625  0.00  0.00    +0.000 C 
ATOM     18  C   UNL     1       7.149   5.837  17.074  0.00  0.00    +0.000 C 
ATOM     19  N   UNL     1       7.111   5.867  15.611  0.00  0.00    +0.000 NA
ATOM     20  C   UNL     1       5.795   5.510  15.083  0.00  0.00    +0.000 C 
ATOM     21  C   UNL     1       5.308   4.154  15.589  0.00  0.00    +0.000 C 
ATOM     22  H   UNL     1       7.819   5.237  15.234  0.00  0.00    +0.000 HD
ENDBRANCH  14  16
ENDBRANCH   7  11
BRANCH   1  23
ATOM     23  C   UNL     1      -0.766  11.718  18.779  0.00  0.00    +0.000 C 
ATOM     24  O   UNL     1      -0.196  12.803  18.760  0.00  0.00    +0.000 OA
BRANCH  23  30
ATOM     25  C   UNL     1      -3.363  10.843  15.905  0.00  0.00    +0.000 A 
ATOM     26  C   UNL     1      -4.561  11.254  16.490  0.00  0.00    +0.000 A 
ATOM     27  C   UNL     1      -4.548  11.784  17.786  0.00  0.00    +0.000 A 
ATOM     28  C   UNL     1      -3.339  11.939  18.509  0.00  0.00    +0.000 A 
ATOM     29 CL   UNL     1      -3.496  12.642  20.079  0.00  0.00    +0.000 Cl
ATOM     30  C   UNL     1      -2.104  11.550  17.958  0.00  0.00    +0.000 A 
ATOM     31  C   UNL     1      -2.157  10.973  16.647  0.00  0.00    +0.000 A 
BRANCH  25  33
ATOM     32  N   UNL     1      -3.423   9.889  13.478  0.00  0.00    +0.000 NA
ATOM     33  C   UNL     1      -3.388  10.316  14.564  0.00  0.00    +0.000 C 
ENDBRANCH  25  33
ENDBRANCH  23  30
ENDBRANCH   1  23
TORSDOF 5
ENDMDL
MODEL 3
REMARK VINA RESULT:      -8.2      1.409      2.246
REMARK  Name = 
REMARK  5 active torsions:
REMARK  status: ('A' for Active; 'I' for Inactive)
REMARK    1  A    between atoms: C_2  and  C_3
REMARK    2  A    between atoms: C_8  and  C_9
REMARK    3  A    between atoms: C_9  and  C_11
REMARK    4  A    between atoms: C_17  and  C_18
REMARK    5  A    between atoms: N_21  and  C_22
REMARK                            x       y       z     vdW  Elec       q    Type
REMARK                         _______ _______ _______ _____ _____    ______ ____
ROOT
ATOM      1  C   UNL     1      -1.165  11.636  20.705  0.00  0.00    +0.000 A 
ATOM      2  C   UNL     1      -1.769  11.557  21.953  0.00  0.00    +0.000 A 
ATOM      3  N   UNL     1      -0.746  11.317  22.814  0.00  0.00    +0.000 N 
ATOM      4  C   UNL     1       0.084  10.449  22.187  0.00  0.00    +0.000 A 
ATOM      5  N   UNL     1       0.893   9.651  22.886  0.00  0.00    +0.000 NA
ATOM      6  C   UNL     1       1.465   8.700  22.129  0.00  0.00    +0.000 A 
ATOM      7  C   UNL     1       1.373   8.550  20.740  0.00  0.00    +0.000 A 
ATOM      8  C   UNL     1       0.644   9.580  20.037  0.00  0.00    +0.000 A 
ATOM      9  C   UNL     1      -0.141  10.542  20.807  0.00  0.00    +0.000 A 
ATOM     10  H   UNL     1      -0.735  11.472  23.810  0.00  0.00    +0.000 HD
ENDROOT
BRANCH   7  11
ATOM     11  C   UNL     1       1.949   7.278  20.217  0.00  0.00    +0.000 A 
ATOM     12  C   UNL     1       1.669   5.951  20.681  0.00  0.00    +0.000 A 
ATOM     13  N   UNL     1       2.321   4.992  20.032  0.00  0.00    +0.000 NA
ATOM     14  N   UNL     1       3.033   5.654  19.102  0.00  0.00    +0.000 N 
ATOM     15  C   UNL     1       2.836   7.029  19.182  0.00  0.00    +0.000 A 
BRANCH  14  16
ATOM     16  C   UNL     1       3.713   4.826  18.094  0.00  0.00    +0.000 C 
ATOM     17  C   UNL     1       4.823   3.907  18.657  0.00  0.00    +0.000 C 
ATOM     18  C   UNL     1       6.088   4.691  18.986  0.00  0.00    +0.000 C 
ATOM     19  N   UNL     1       6.586   5.434  17.828  0.00  0.00    +0.000 NA
ATOM     20  C   UNL     1       5.571   6.320  17.260  0.00  0.00    +0.000 C 
ATOM     21  C   UNL     1       4.286   5.582  16.893  0.00  0.00    +0.000 C 
ATOM     22  H   UNL     1       6.916   4.782  17.115  0.00  0.00    +0.000 HD
ENDBRANCH  14  16
ENDBRANCH   7  11
BRANCH   1  23
ATOM     23  C   UNL     1      -1.726  12.563  19.693  0.00  0.00    +0.000 C 
ATOM     24  O   UNL     1      -1.461  13.759  19.714  0.00  0.00    +0.000 OA
BRANCH  23  30
ATOM     25  C   UNL     1      -3.430  11.026  16.451  0.00  0.00    +0.000 A 
ATOM     26  C   UNL     1      -4.780  11.098  16.796  0.00  0.00    +0.000 A 
ATOM     27  C   UNL     1      -5.144  11.608  18.048  0.00  0.00    +0.000 A 
ATOM     28  C   UNL     1      -4.172  12.081  18.965  0.00  0.00    +0.000 A 
ATOM     29 CL   UNL     1      -4.793  12.712  20.448  0.00  0.00    +0.000 Cl
ATOM     30  C   UNL     1      -2.799  12.042  18.659  0.00  0.00    +0.000 A 
ATOM     31  C   UNL     1      -2.457  11.476  17.386  0.00  0.00    +0.000 A 
BRANCH  25  33
ATOM     32  N   UNL     1      -2.770  10.092  14.107  0.00  0.00    +0.000 NA
ATOM     33  C   UNL     1      -3.070  10.516  15.153  0.00  0.00    +0.000 C 
ENDBRANCH  25  33
ENDBRANCH  23  30
ENDBRANCH   1  23
TORSDOF 5
ENDMDL
MODEL 4
REMARK VINA RESULT:      -8.1      2.007      2.432
REMARK  Name = 
REMARK  5 active torsions:
REMARK  status: ('A' for Active; 'I' for Inactive)
REMARK    1  A    between atoms: C_2  and  C_3
REMARK    2  A    between atoms: C_8  and  C_9
REMARK    3  A    between atoms: C_9  and  C_11
REMARK    4  A    between atoms: C_17  and  C_18
REMARK    5  A    between atoms: N_21  and  C_22
REMARK                            x       y       z     vdW  Elec       q    Type
REMARK                         _______ _______ _______ _____ _____    ______ ____
ROOT
ATOM      1  C   UNL     1      -1.145  11.540  20.455  0.00  0.00    +0.000 A 
ATOM      2  C   UNL     1      -1.685  11.579  21.734  0.00  0.00    +0.000 A 
ATOM      3  N   UNL     1      -0.619  11.413  22.560  0.00  0.00    +0.000 N 
ATOM      4  C   UNL     1       0.176  10.487  21.975  0.00  0.00    +0.000 A 
ATOM      5  N   UNL     1       1.019   9.751  22.701  0.00  0.00    +0.000 NA
ATOM      6  C   UNL     1       1.551   8.732  22.007  0.00  0.00    +0.000 A 
ATOM      7  C   UNL     1       1.388   8.456  20.644  0.00  0.00    +0.000 A 
ATOM      8  C   UNL     1       0.625   9.420  19.888  0.00  0.00    +0.000 A 
ATOM      9  C   UNL     1      -0.119  10.454  20.605  0.00  0.00    +0.000 A 
ATOM     10  H   UNL     1      -0.557  11.659  23.536  0.00  0.00    +0.000 HD
ENDROOT
BRANCH   7  11
ATOM     11  C   UNL     1       1.935   7.137  20.211  0.00  0.00    +0.000 A 
ATOM     12  C   UNL     1       2.906   6.904  19.183  0.00  0.00    +0.000 A 
ATOM     13  N   UNL     1       3.220   5.625  19.003  0.00  0.00    +0.000 NA
ATOM     14  N   UNL     1       2.484   4.976  19.923  0.00  0.00    +0.000 N 
ATOM     15  C   UNL     1       1.699   5.850  20.668  0.00  0.00    +0.000 A 
BRANCH  14  16
ATOM     16  C   UNL     1       2.773   3.544  20.094  0.00  0.00    +0.000 C 
ATOM     17  C   UNL     1       3.704   2.942  19.015  0.00  0.00    +0.000 C 
ATOM     18  C   UNL     1       2.969   2.721  17.697  0.00  0.00    +0.000 C 
ATOM     19  N   UNL     1       1.784   1.880  17.869  0.00  0.00    +0.000 NA
ATOM     20  C   UNL     1       0.870   2.410  18.880  0.00  0.00    +0.000 C 
ATOM     21  C   UNL     1       1.551   2.632  20.228  0.00  0.00    +0.000 C 
ATOM     22  H   UNL     1       2.066   0.932  18.119  0.00  0.00    +0.000 HD
ENDBRANCH  14  16
ENDBRANCH   7  11
BRANCH   1  23
ATOM     23  C   UNL     1      -1.757  12.373  19.392  0.00  0.00    +0.000 C 
ATOM     24  O   UNL     1      -1.179  13.360  18.952  0.00  0.00    +0.000 OA
BRANCH  23  30
ATOM     25  C   UNL     1      -5.722  12.233  19.218  0.00  0.00    +0.000 A 
ATOM     26  C   UNL     1      -5.915  11.541  18.023  0.00  0.00    +0.000 A 
ATOM     27  C   UNL     1      -4.803  11.140  17.272  0.00  0.00    +0.000 A 
ATOM     28  C   UNL     1      -3.481  11.398  17.713  0.00  0.00    +0.000 A 
ATOM     29 CL   UNL     1      -2.225  10.803  16.687  0.00  0.00    +0.000 Cl
ATOM     30  C   UNL     1      -3.234  12.083  18.917  0.00  0.00    +0.000 A 
ATOM     31  C   UNL     1      -4.393  12.516  19.641  0.00  0.00    +0.000 A 
BRANCH  25  33
ATOM     32  N   UNL     1      -7.811  12.927  20.617  0.00  0.00    +0.000 NA
ATOM     33  C   UNL     1      -6.874  12.625  19.989  0.00  0.00    +0.000 C 
ENDBRANCH  25  33
ENDBRANCH  23  30
ENDBRANCH   1  23
TORSDOF 5
ENDMDL
MODEL 5
REMARK VINA RESULT:      -8.0      4.069      9.335
REMARK  Name = 
REMARK  5 active torsions:
REMARK  status: ('A' for Active; 'I' for Inactive)
REMARK    1  A    between atoms: C_2  and  C_3
REMARK    2  A    between atoms: C_8  and  C_9
REMARK    3  A    between atoms: C_9  and  C_11
REMARK    4  A    between atoms: C_17  and  C_18
REMARK    5  A    between atoms: N_21  and  C_22
REMARK                            x       y       z     vdW  Elec       q    Type
REMARK                         _______ _______ _______ _____ _____    ______ ____
ROOT
ATOM      1  C   UNL     1       1.806   8.136  19.027  0.00  0.00    +0.000 A 
ATOM      2  C   UNL     1       1.819   8.483  17.683  0.00  0.00    +0.000 A 
ATOM      3  N   UNL     1       2.114   9.808  17.674  0.00  0.00    +0.000 N 
ATOM      4  C   UNL     1       1.438  10.356  18.712  0.00  0.00    +0.000 A 
ATOM      5  N   UNL     1       1.114  11.650  18.711  0.00  0.00    +0.000 NA
ATOM      6  C   UNL     1       0.250  11.971  19.688  0.00  0.00    +0.000 A 
ATOM      7  C   UNL     1      -0.226  11.137  20.708  0.00  0.00    +0.000 A 
ATOM      8  C   UNL     1       0.335   9.808  20.756  0.00  0.00    +0.000 A 
ATOM      9  C   UNL     1       1.145   9.341  19.633  0.00  0.00    +0.000 A 
ATOM     10  H   UNL     1       2.482  10.348  16.907  0.00  0.00    +0.000 HD
ENDROOT
BRANCH   7  11
ATOM     11  C   UNL     1      -1.333  11.723  21.518  0.00  0.00    +0.000 A 
ATOM     12  C   UNL     1      -1.537  11.578  22.930  0.00  0.00    +0.000 A 
ATOM     13  N   UNL     1      -2.607  12.211  23.399  0.00  0.00    +0.000 NA
ATOM     14  N   UNL     1      -3.130  12.814  22.316  0.00  0.00    +0.000 N 
ATOM     15  C   UNL     1      -2.392  12.545  21.167  0.00  0.00    +0.000 A 
BRANCH  14  16
ATOM     16  C   UNL     1      -4.227  13.761  22.566  0.00  0.00    +0.000 C 
ATOM     17  C   UNL     1      -4.835  13.681  23.987  0.00  0.00    +0.000 C 
ATOM     18  C   UNL     1      -5.740  12.464  24.144  0.00  0.00    +0.000 C 
ATOM     19  N   UNL     1      -6.801  12.441  23.137  0.00  0.00    +0.000 NA
ATOM     20  C   UNL     1      -6.275  12.512  21.775  0.00  0.00    +0.000 C 
ATOM     21  C   UNL     1      -5.376  13.727  21.556  0.00  0.00    +0.000 C 
ATOM     22  H   UNL     1      -7.449  13.212  23.300  0.00  0.00    +0.000 HD
ENDBRANCH  14  16
ENDBRANCH   7  11
BRANCH   1  23
ATOM     23  C   UNL     1       2.257   6.780  19.424  0.00  0.00    +0.000 C 
ATOM     24  O   UNL     1       2.045   6.347  20.551  0.00  0.00    +0.000 OA
BRANCH  23  30
ATOM     25  C   UNL     1       5.248   5.587  17.099  0.00  0.00    +0.000 A 
ATOM     26  C   UNL     1       4.766   4.357  16.651  0.00  0.00    +0.000 A 
ATOM     27  C   UNL     1       3.518   3.902  17.095  0.00  0.00    +0.000 A 
ATOM     28  C   UNL     1       2.718   4.678  17.970  0.00  0.00    +0.000 A 
ATOM     29 CL   UNL     1       1.191   3.988  18.391  0.00  0.00    +0.000 Cl
ATOM     30  C   UNL     1       3.154   5.930  18.441  0.00  0.00    +0.000 A 
ATOM     31  C   UNL     1       4.453   6.348  18.000  0.00  0.00    +0.000 A 
BRANCH  25  33
ATOM     32  N   UNL     1       7.563   6.432  16.245  0.00  0.00    +0.000 NA
ATOM     33  C   UNL     1       6.525   6.050  16.620  0.00  0.00    +0.000 C 
ENDBRANCH  25  33
ENDBRANCH  23  30
ENDBRANCH   1  23
TORSDOF 5
ENDMDL
MODEL 6
REMARK VINA RESULT:      -8.0      1.112      1.350
REMARK  Name = 
REMARK  5 active torsions:
REMARK  status: ('A' for Active; 'I' for Inactive)
REMARK    1  A    between atoms: C_2  and  C_3
REMARK    2  A    between atoms: C_8  and  C_9
REMARK    3  A    between atoms: C_9  and  C_11
REMARK    4  A    between atoms: C_17  and  C_18
REMARK    5  A    between atoms: N_21  and  C_22
REMARK                            x       y       z     vdW  Elec       q    Type
REMARK                         _______ _______ _______ _____ _____    ______ ____
ROOT
ATOM      1  C   UNL     1      -0.900  11.559  20.315  0.00  0.00    +0.000 A 
ATOM      2  C   UNL     1      -1.564  11.608  21.533  0.00  0.00    +0.000 A 
ATOM      3  N   UNL     1      -0.592  11.403  22.460  0.00  0.00    +0.000 N 
ATOM      4  C   UNL     1       0.229  10.455  21.949  0.00  0.00    +0.000 A 
ATOM      5  N   UNL     1       0.971   9.688  22.750  0.00  0.00    +0.000 NA
ATOM      6  C   UNL     1       1.537   8.656  22.103  0.00  0.00    +0.000 A 
ATOM      7  C   UNL     1       1.502   8.393  20.728  0.00  0.00    +0.000 A 
ATOM      8  C   UNL     1       0.849   9.386  19.908  0.00  0.00    +0.000 A 
ATOM      9  C   UNL     1       0.071  10.439  20.556  0.00  0.00    +0.000 A 
ATOM     10  H   UNL     1      -0.620  11.641  23.439  0.00  0.00    +0.000 HD
ENDROOT
BRANCH   7  11
ATOM     11  C   UNL     1       2.047   7.060  20.340  0.00  0.00    +0.000 A 
ATOM     12  C   UNL     1       1.589   5.778  20.789  0.00  0.00    +0.000 A 
ATOM     13  N   UNL     1       2.255   4.746  20.281  0.00  0.00    +0.000 NA
ATOM     14  N   UNL     1       3.159   5.314  19.461  0.00  0.00    +0.000 N 
ATOM     15  C   UNL     1       3.065   6.702  19.470  0.00  0.00    +0.000 A 
BRANCH  14  16
ATOM     16  C   UNL     1       3.920   4.397  18.599  0.00  0.00    +0.000 C 
ATOM     17  C   UNL     1       3.280   4.134  17.215  0.00  0.00    +0.000 C 
ATOM     18  C   UNL     1       2.092   3.184  17.316  0.00  0.00    +0.000 C 
ATOM     19  N   UNL     1       2.459   1.919  17.953  0.00  0.00    +0.000 NA
ATOM     20  C   UNL     1       3.066   2.115  19.268  0.00  0.00    +0.000 C 
ATOM     21  C   UNL     1       4.277   3.045  19.222  0.00  0.00    +0.000 C 
ATOM     22  H   UNL     1       3.097   1.400  17.349  0.00  0.00    +0.000 HD
ENDBRANCH  14  16
ENDBRANCH   7  11
BRANCH   1  23
ATOM     23  C   UNL     1      -1.376  12.417  19.203  0.00  0.00    +0.000 C 
ATOM     24  O   UNL     1      -0.992  13.576  19.090  0.00  0.00    +0.000 OA
BRANCH  23  30
ATOM     25  C   UNL     1      -3.253  10.846  16.075  0.00  0.00    +0.000 A 
ATOM     26  C   UNL     1      -4.583  10.944  16.482  0.00  0.00    +0.000 A 
ATOM     27  C   UNL     1      -4.880  11.483  17.740  0.00  0.00    +0.000 A 
ATOM     28  C   UNL     1      -3.860  11.959  18.600  0.00  0.00    +0.000 A 
ATOM     29 CL   UNL     1      -4.401  12.626  20.099  0.00  0.00    +0.000 Cl
ATOM     30  C   UNL     1      -2.504  11.893  18.231  0.00  0.00    +0.000 A 
ATOM     31  C   UNL     1      -2.230  11.298  16.955  0.00  0.00    +0.000 A 
BRANCH  25  33
ATOM     32  N   UNL     1      -2.738   9.860  13.716  0.00  0.00    +0.000 NA
ATOM     33  C   UNL     1      -2.962  10.306  14.771  0.00  0.00    +0.000 C 
ENDBRANCH  25  33
ENDBRANCH  23  30
ENDBRANCH   1  23
TORSDOF 5
ENDMDL
MODEL 7
REMARK VINA RESULT:      -7.9      2.688      4.108
REMARK  Name = 
REMARK  5 active torsions:
REMARK  status: ('A' for Active; 'I' for Inactive)
REMARK    1  A    between atoms: C_2  and  C_3
REMARK    2  A    between atoms: C_8  and  C_9
REMARK    3  A    between atoms: C_9  and  C_11
REMARK    4  A    between atoms: C_17  and  C_18
REMARK    5  A    between atoms: N_21  and  C_22
REMARK                            x       y       z     vdW  Elec       q    Type
REMARK                         _______ _______ _______ _____ _____    ______ ____
ROOT
ATOM      1  C   UNL     1       1.102  12.110  19.990  0.00  0.00    +0.000 A 
ATOM      2  C   UNL     1       2.009  12.728  19.140  0.00  0.00    +0.000 A 
ATOM      3  N   UNL     1       1.917  12.032  17.977  0.00  0.00    +0.000 N 
ATOM      4  C   UNL     1       1.791  10.728  18.323  0.00  0.00    +0.000 A 
ATOM      5  N   UNL     1       2.154   9.759  17.481  0.00  0.00    +0.000 NA
ATOM      6  C   UNL     1       2.186   8.549  18.064  0.00  0.00    +0.000 A 
ATOM      7  C   UNL     1       1.794   8.225  19.369  0.00  0.00    +0.000 A 
ATOM      8  C   UNL     1       1.219   9.298  20.145  0.00  0.00    +0.000 A 
ATOM      9  C   UNL     1       1.310  10.665  19.638  0.00  0.00    +0.000 A 
ATOM     10  H   UNL     1       2.198  12.336  17.058  0.00  0.00    +0.000 HD
ENDROOT
BRANCH   7  11
ATOM     11  C   UNL     1       2.142   6.837  19.791  0.00  0.00    +0.000 A 
ATOM     12  C   UNL     1       1.526   6.075  20.837  0.00  0.00    +0.000 A 
ATOM     13  N   UNL     1       2.032   4.857  21.003  0.00  0.00    +0.000 NA
ATOM     14  N   UNL     1       2.982   4.768  20.054  0.00  0.00    +0.000 N 
ATOM     15  C   UNL     1       3.078   5.938  19.306  0.00  0.00    +0.000 A 
BRANCH  14  16
ATOM     16  C   UNL     1       3.589   3.441  19.865  0.00  0.00    +0.000 C 
ATOM     17  C   UNL     1       4.220   3.215  18.471  0.00  0.00    +0.000 C 
ATOM     18  C   UNL     1       3.158   2.971  17.405  0.00  0.00    +0.000 C 
ATOM     19  N   UNL     1       2.283   1.851  17.753  0.00  0.00    +0.000 NA
ATOM     20  C   UNL     1       1.660   2.020  19.064  0.00  0.00    +0.000 C 
ATOM     21  C   UNL     1       2.683   2.248  20.175  0.00  0.00    +0.000 C 
ATOM     22  H   UNL     1       2.814   0.979  17.731  0.00  0.00    +0.000 HD
ENDBRANCH  14  16
ENDBRANCH   7  11
BRANCH   1  23
ATOM     23  C   UNL     1       0.378  12.933  20.989  0.00  0.00    +0.000 C 
ATOM     24  O   UNL     1       0.984  13.638  21.787  0.00  0.00    +0.000 OA
BRANCH  23  30
ATOM     25  C   UNL     1      -3.266  12.559  22.525  0.00  0.00    +0.000 A 
ATOM     26  C   UNL     1      -4.045  12.546  21.369  0.00  0.00    +0.000 A 
ATOM     27  C   UNL     1      -3.426  12.673  20.120  0.00  0.00    +0.000 A 
ATOM     28  C   UNL     1      -2.019  12.788  20.000  0.00  0.00    +0.000 A 
ATOM     29 CL   UNL     1      -1.416  12.900  18.385  0.00  0.00    +0.000 Cl
ATOM     30  C   UNL     1      -1.188  12.794  21.135  0.00  0.00    +0.000 A 
ATOM     31  C   UNL     1      -1.856  12.704  22.401  0.00  0.00    +0.000 A 
BRANCH  25  33
ATOM     32  N   UNL     1      -4.432  12.273  24.840  0.00  0.00    +0.000 NA
ATOM     33  C   UNL     1      -3.913  12.409  23.804  0.00  0.00    +0.000 C 
ENDBRANCH  25  33
ENDBRANCH  23  30
ENDBRANCH   1  23
TORSDOF 5
ENDMDL
MODEL 8
REMARK VINA RESULT:      -7.8      3.351      4.288
REMARK  Name = 
REMARK  5 active torsions:
REMARK  status: ('A' for Active; 'I' for Inactive)
REMARK    1  A    between atoms: C_2  and  C_3
REMARK    2  A    between atoms: C_8  and  C_9
REMARK    3  A    between atoms: C_9  and  C_11
REMARK    4  A    between atoms: C_17  and  C_18
REMARK    5  A    between atoms: N_21  and  C_22
REMARK                            x       y       z     vdW  Elec       q    Type
REMARK                         _______ _______ _______ _____ _____    ______ ____
ROOT
ATOM      1  C   UNL     1      -0.211  12.008  19.897  0.00  0.00    +0.000 A 
ATOM      2  C   UNL     1      -1.177  12.074  20.892  0.00  0.00    +0.000 A 
ATOM      3  N   UNL     1      -0.542  11.647  22.014  0.00  0.00    +0.000 N 
ATOM      4  C   UNL     1       0.252  10.619  21.635  0.00  0.00    +0.000 A 
ATOM      5  N   UNL     1       0.628   9.685  22.510  0.00  0.00    +0.000 NA
ATOM      6  C   UNL     1       1.209   8.625  21.924  0.00  0.00    +0.000 A 
ATOM      7  C   UNL     1       1.527   8.474  20.569  0.00  0.00    +0.000 A 
ATOM      8  C   UNL     1       1.272   9.617  19.724  0.00  0.00    +0.000 A 
ATOM      9  C   UNL     1       0.493  10.731  20.258  0.00  0.00    +0.000 A 
ATOM     10  H   UNL     1      -0.813  11.814  22.971  0.00  0.00    +0.000 HD
ENDROOT
BRANCH   7  11
ATOM     11  C   UNL     1       1.974   7.102  20.189  0.00  0.00    +0.000 A 
ATOM     12  C   UNL     1       2.803   6.744  19.076  0.00  0.00    +0.000 A 
ATOM     13  N   UNL     1       3.052   5.443  18.970  0.00  0.00    +0.000 NA
ATOM     14  N   UNL     1       2.415   4.903  20.026  0.00  0.00    +0.000 N 
ATOM     15  C   UNL     1       1.756   5.868  20.781  0.00  0.00    +0.000 A 
BRANCH  14  16
ATOM     16  C   UNL     1       2.677   3.479  20.284  0.00  0.00    +0.000 C 
ATOM     17  C   UNL     1       3.797   2.863  19.413  0.00  0.00    +0.000 C 
ATOM     18  C   UNL     1       3.322   2.601  17.988  0.00  0.00    +0.000 C 
ATOM     19  N   UNL     1       2.132   1.751  17.958  0.00  0.00    +0.000 NA
ATOM     20  C   UNL     1       1.042   2.294  18.767  0.00  0.00    +0.000 C 
ATOM     21  C   UNL     1       1.458   2.557  20.212  0.00  0.00    +0.000 C 
ATOM     22  H   UNL     1       2.369   0.813  18.281  0.00  0.00    +0.000 HD
ENDBRANCH  14  16
ENDBRANCH   7  11
BRANCH   1  23
ATOM     23  C   UNL     1      -0.233  13.012  18.806  0.00  0.00    +0.000 C 
ATOM     24  O   UNL     1      -0.997  12.896  17.855  0.00  0.00    +0.000 OA
BRANCH  23  30
ATOM     25  C   UNL     1       3.171  15.014  18.381  0.00  0.00    +0.000 A 
ATOM     26  C   UNL     1       2.772  16.302  18.740  0.00  0.00    +0.000 A 
ATOM     27  C   UNL     1       1.438  16.536  19.094  0.00  0.00    +0.000 A 
ATOM     28  C   UNL     1       0.486  15.487  19.122  0.00  0.00    +0.000 A 
ATOM     29 CL   UNL     1      -1.107  15.941  19.616  0.00  0.00    +0.000 Cl
ATOM     30  C   UNL     1       0.840  14.169  18.780  0.00  0.00    +0.000 A 
ATOM     31  C   UNL     1       2.204  13.971  18.383  0.00  0.00    +0.000 A 
BRANCH  25  33
ATOM     32  N   UNL     1       5.669  14.609  17.750  0.00  0.00    +0.000 NA
ATOM     33  C   UNL     1       4.551  14.783  18.036  0.00  0.00    +0.000 C 
ENDBRANCH  25  33
ENDBRANCH  23  30
ENDBRANCH   1  23
TORSDOF 5
ENDMDL
MODEL 9
REMARK VINA RESULT:      -7.8      4.075      9.494
REMARK  Name = 
REMARK  5 active torsions:
REMARK  status: ('A' for Active; 'I' for Inactive)
REMARK    1  A    between atoms: C_2  and  C_3
REMARK    2  A    between atoms: C_8  and  C_9
REMARK    3  A    between atoms: C_9  and  C_11
REMARK    4  A    between atoms: C_17  and  C_18
REMARK    5  A    between atoms: N_21  and  C_22
REMARK                            x       y       z     vdW  Elec       q    Type
REMARK                         _______ _______ _______ _____ _____    ______ ____
ROOT
ATOM      1  C   UNL     1       1.722   8.359  19.035  0.00  0.00    +0.000 A 
ATOM      2  C   UNL     1       1.767   8.714  17.693  0.00  0.00    +0.000 A 
ATOM      3  N   UNL     1       2.050  10.042  17.700  0.00  0.00    +0.000 N 
ATOM      4  C   UNL     1       1.341  10.578  18.722  0.00  0.00    +0.000 A 
ATOM      5  N   UNL     1       1.005  11.869  18.720  0.00  0.00    +0.000 NA
ATOM      6  C   UNL     1       0.114  12.176  19.676  0.00  0.00    +0.000 A 
ATOM      7  C   UNL     1      -0.382  11.332  20.678  0.00  0.00    +0.000 A 
ATOM      8  C   UNL     1       0.191  10.007  20.733  0.00  0.00    +0.000 A 
ATOM      9  C   UNL     1       1.034   9.554  19.630  0.00  0.00    +0.000 A 
ATOM     10  H   UNL     1       2.433  10.590  16.946  0.00  0.00    +0.000 HD
ENDROOT
BRANCH   7  11
ATOM     11  C   UNL     1      -1.515  11.903  21.462  0.00  0.00    +0.000 A 
ATOM     12  C   UNL     1      -2.746  12.423  20.942  0.00  0.00    +0.000 A 
ATOM     13  N   UNL     1      -3.589  12.870  21.868  0.00  0.00    +0.000 NA
ATOM     14  N   UNL     1      -2.951  12.636  23.029  0.00  0.00    +0.000 N 
ATOM     15  C   UNL     1      -1.703  12.056  22.827  0.00  0.00    +0.000 A 
BRANCH  14  16
ATOM     16  C   UNL     1      -3.735  12.851  24.255  0.00  0.00    +0.000 C 
ATOM     17  C   UNL     1      -5.268  12.876  24.043  0.00  0.00    +0.000 C 
ATOM     18  C   UNL     1      -5.728  14.189  23.420  0.00  0.00    +0.000 C 
ATOM     19  N   UNL     1      -5.308  15.345  24.212  0.00  0.00    +0.000 NA
ATOM     20  C   UNL     1      -3.864  15.367  24.438  0.00  0.00    +0.000 C 
ATOM     21  C   UNL     1      -3.351  14.080  25.081  0.00  0.00    +0.000 C 
ATOM     22  H   UNL     1      -5.799  15.347  25.106  0.00  0.00    +0.000 HD
ENDBRANCH  14  16
ENDBRANCH   7  11
BRANCH   1  23
ATOM     23  C   UNL     1       2.175   7.005  19.436  0.00  0.00    +0.000 C 
ATOM     24  O   UNL     1       1.896   6.545  20.537  0.00  0.00    +0.000 OA
BRANCH  23  30
ATOM     25  C   UNL     1       5.336   5.933  17.283  0.00  0.00    +0.000 A 
ATOM     26  C   UNL     1       4.923   4.693  16.797  0.00  0.00    +0.000 A 
ATOM     27  C   UNL     1       3.666   4.194  17.162  0.00  0.00    +0.000 A 
ATOM     28  C   UNL     1       2.790   4.935  17.994  0.00  0.00    +0.000 A 
ATOM     29 CL   UNL     1       1.265   4.191  18.317  0.00  0.00    +0.000 Cl
ATOM     30  C   UNL     1       3.156   6.195  18.501  0.00  0.00    +0.000 A 
ATOM     31  C   UNL     1       4.465   6.659  18.142  0.00  0.00    +0.000 A 
BRANCH  25  33
ATOM     32  N   UNL     1       7.666   6.849  16.550  0.00  0.00    +0.000 NA
ATOM     33  C   UNL     1       6.624   6.443  16.886  0.00  0.00    +0.000 C 
ENDBRANCH  25  33
ENDBRANCH  23  30
ENDBRANCH   1  23
TORSDOF 5
ENDMDL
