MODEL 1
REMARK VINA RESULT:      -7.9      0.000      0.000
REMARK  Name = 
REMARK  3 active torsions:
REMARK  status: ('A' for Active; 'I' for Inactive)
REMARK    1  A    between atoms: C_4  and  O_5
REMARK    2  A    between atoms: C_4  and  C_6
REMARK    3  A    between atoms: C_11  and  C_12
REMARK                            x       y       z     vdW  Elec       q    Type
REMARK                         _______ _______ _______ _____ _____    ______ ____
ROOT
ATOM      1  O   UNL     1       5.207   1.133  20.448  0.00  0.00    +0.000 OA
ATOM      2  C   UNL     1       4.626   2.094  19.937  0.00  0.00    +0.000 C 
ATOM      3  C   UNL     1       3.144   2.008  19.585  0.00  0.00    +0.000 C 
ATOM      4  C   UNL     1       2.378   3.332  19.333  0.00  0.00    +0.000 C 
ATOM      5  C   UNL     1       3.324   4.450  19.032  0.00  0.00    +0.000 A 
ATOM      6  C   UNL     1       3.124   5.821  18.688  0.00  0.00    +0.000 A 
ATOM      7  N   UNL     1       4.296   6.461  18.546  0.00  0.00    +0.000 NA
ATOM      8  N   UNL     1       5.228   5.523  18.833  0.00  0.00    +0.000 N 
ATOM      9  C   UNL     1       4.682   4.322  19.163  0.00  0.00    +0.000 A 
ATOM     10  N   UNL     1       5.339   3.212  19.600  0.00  0.00    +0.000 N 
ATOM     11  H   UNL     1       6.207   5.794  18.826  0.00  0.00    +0.000 HD
ATOM     12  H   UNL     1       6.336   3.196  19.781  0.00  0.00    +0.000 HD
ENDROOT
BRANCH   6  13
ATOM     13  C   UNL     1       1.803   6.563  18.693  0.00  0.00    +0.000 C 
ATOM     14  C   UNL     1       1.570   7.594  17.583  0.00  0.00    +0.000 C 
ATOM     15  C   UNL     1       1.871   9.053  17.927  0.00  0.00    +0.000 C 
ATOM     16  N   UNL     1       1.565   9.407  19.312  0.00  0.00    +0.000 N 
ATOM     17  C   UNL     1       0.464  10.197  19.618  0.00  0.00    +0.000 A 
ATOM     18  C   UNL     1       0.469  10.966  20.783  0.00  0.00    +0.000 A 
ATOM     19  C   UNL     1      -0.605  11.787  21.112  0.00  0.00    +0.000 A 
ATOM     20  C   UNL     1      -1.676  11.810  20.246  0.00  0.00    +0.000 A 
ATOM     21 CL   UNL     1      -3.052  12.782  20.554  0.00  0.00    +0.000 Cl
ATOM     22  N   UNL     1      -1.694  11.089  19.117  0.00  0.00    +0.000 NA
ATOM     23  N   UNL     1      -0.605  10.285  18.795  0.00  0.00    +0.000 NA
ATOM     24  C   UNL     1       2.064   8.489  20.328  0.00  0.00    +0.000 C 
ATOM     25  C   UNL     1       1.482   7.105  20.093  0.00  0.00    +0.000 C 
ENDBRANCH   6  13
BRANCH   4  26
ATOM     26  C   UNL     1       1.423   3.665  20.535  0.00  0.00    +0.000 C 
ATOM     27  F   UNL     1       1.988   4.459  21.470  0.00  0.00    +0.000 F 
ATOM     28  F   UNL     1       0.272   4.264  20.163  0.00  0.00    +0.000 F 
ATOM     29  F   UNL     1       1.077   2.514  21.176  0.00  0.00    +0.000 F 
ENDBRANCH   4  26
BRANCH   4  30
ATOM     30  O   UNL     1       1.612   3.104  18.114  0.00  0.00    +0.000 OA
ATOM     31  H   UNL     1       0.680   2.972  18.360  0.00  0.00    +0.000 HD
ENDBRANCH   4  30
TORSDOF 3
ENDMDL
MODEL 2
REMARK VINA RESULT:      -7.5      1.007      1.050
REMARK  Name = 
REMARK  3 active torsions:
REMARK  status: ('A' for Active; 'I' for Inactive)
REMARK    1  A    between atoms: C_4  and  O_5
REMARK    2  A    between atoms: C_4  and  C_6
REMARK    3  A    between atoms: C_11  and  C_12
REMARK                            x       y       z     vdW  Elec       q    Type
REMARK                         _______ _______ _______ _____ _____    ______ ____
ROOT
ATOM      1  O   UNL     1       4.926   0.361  19.610  0.00  0.00    +0.000 OA
ATOM      2  C   UNL     1       4.532   1.465  19.226  0.00  0.00    +0.000 C 
ATOM      3  C   UNL     1       3.306   1.583  18.327  0.00  0.00    +0.000 C 
ATOM      4  C   UNL     1       2.621   2.969  18.207  0.00  0.00    +0.000 C 
ATOM      5  C   UNL     1       3.546   4.062  18.636  0.00  0.00    +0.000 A 
ATOM      6  C   UNL     1       3.417   5.484  18.666  0.00  0.00    +0.000 A 
ATOM      7  N   UNL     1       4.517   6.060  19.178  0.00  0.00    +0.000 NA
ATOM      8  N   UNL     1       5.319   5.021  19.507  0.00  0.00    +0.000 N 
ATOM      9  C   UNL     1       4.755   3.814  19.231  0.00  0.00    +0.000 A 
ATOM     10  N   UNL     1       5.256   2.585  19.535  0.00  0.00    +0.000 N 
ATOM     11  H   UNL     1       6.208   5.218  19.955  0.00  0.00    +0.000 HD
ATOM     12  H   UNL     1       6.108   2.452  20.069  0.00  0.00    +0.000 HD
ENDROOT
BRANCH   6  13
ATOM     13  C   UNL     1       2.156   6.275  18.385  0.00  0.00    +0.000 C 
ATOM     14  C   UNL     1       2.267   7.459  17.418  0.00  0.00    +0.000 C 
ATOM     15  C   UNL     1       2.451   8.842  18.043  0.00  0.00    +0.000 C 
ATOM     16  N   UNL     1       1.744   9.015  19.310  0.00  0.00    +0.000 N 
ATOM     17  C   UNL     1       0.603   9.802  19.387  0.00  0.00    +0.000 A 
ATOM     18  C   UNL     1       0.259  10.402  20.600  0.00  0.00    +0.000 A 
ATOM     19  C   UNL     1      -0.864  11.216  20.711  0.00  0.00    +0.000 A 
ATOM     20  C   UNL     1      -1.626  11.406  19.579  0.00  0.00    +0.000 A 
ATOM     21 CL   UNL     1      -3.030  12.385  19.602  0.00  0.00    +0.000 Cl
ATOM     22  N   UNL     1      -1.305  10.849  18.403  0.00  0.00    +0.000 NA
ATOM     23  N   UNL     1      -0.170  10.050  18.306  0.00  0.00    +0.000 NA
ATOM     24  C   UNL     1       1.916   7.944  20.285  0.00  0.00    +0.000 C 
ATOM     25  C   UNL     1       1.430   6.632  19.690  0.00  0.00    +0.000 C 
ENDBRANCH   6  13
BRANCH   4  26
ATOM     26  C   UNL     1       1.262   2.994  18.993  0.00  0.00    +0.000 C 
ATOM     27  F   UNL     1       1.381   3.435  20.264  0.00  0.00    +0.000 F 
ATOM     28  F   UNL     1       0.311   3.752  18.408  0.00  0.00    +0.000 F 
ATOM     29  F   UNL     1       0.760   1.731  19.077  0.00  0.00    +0.000 F 
ENDBRANCH   4  26
BRANCH   4  30
ATOM     30  O   UNL     1       2.395   3.161  16.779  0.00  0.00    +0.000 OA
ATOM     31  H   UNL     1       3.260   3.256  16.343  0.00  0.00    +0.000 HD
ENDBRANCH   4  30
TORSDOF 3
ENDMDL
MODEL 3
REMARK VINA RESULT:      -7.0      5.090      8.621
REMARK  Name = 
REMARK  3 active torsions:
REMARK  status: ('A' for Active; 'I' for Inactive)
REMARK    1  A    between atoms: C_4  and  O_5
REMARK    2  A    between atoms: C_4  and  C_6
REMARK    3  A    between atoms: C_11  and  C_12
REMARK                            x       y       z     vdW  Elec       q    Type
REMARK                         _______ _______ _______ _____ _____    ______ ____
ROOT
ATOM      1  O   UNL     1      -0.772  16.104  19.065  0.00  0.00    +0.000 OA
ATOM      2  C   UNL     1      -0.360  14.944  19.143  0.00  0.00    +0.000 C 
ATOM      3  C   UNL     1      -1.137  13.895  19.935  0.00  0.00    +0.000 C 
ATOM      4  C   UNL     1      -0.813  12.401  19.675  0.00  0.00    +0.000 C 
ATOM      5  C   UNL     1       0.523  12.247  19.022  0.00  0.00    +0.000 A 
ATOM      6  C   UNL     1       1.283  11.104  18.632  0.00  0.00    +0.000 A 
ATOM      7  N   UNL     1       2.431  11.466  18.035  0.00  0.00    +0.000 NA
ATOM      8  N   UNL     1       2.385  12.818  18.011  0.00  0.00    +0.000 N 
ATOM      9  C   UNL     1       1.244  13.316  18.558  0.00  0.00    +0.000 A 
ATOM     10  N   UNL     1       0.849  14.619  18.593  0.00  0.00    +0.000 N 
ATOM     11  H   UNL     1       3.146  13.321  17.564  0.00  0.00    +0.000 HD
ATOM     12  H   UNL     1       1.368  15.365  18.144  0.00  0.00    +0.000 HD
ENDROOT
BRANCH   6  13
ATOM     13  C   UNL     1       0.812   9.664  18.653  0.00  0.00    +0.000 C 
ATOM     14  C   UNL     1       0.791   8.950  20.009  0.00  0.00    +0.000 C 
ATOM     15  C   UNL     1       2.003   8.082  20.348  0.00  0.00    +0.000 C 
ATOM     16  N   UNL     1       2.586   7.407  19.190  0.00  0.00    +0.000 N 
ATOM     17  C   UNL     1       2.422   6.039  19.007  0.00  0.00    +0.000 A 
ATOM     18  C   UNL     1       3.371   5.323  18.275  0.00  0.00    +0.000 A 
ATOM     19  C   UNL     1       3.254   3.949  18.089  0.00  0.00    +0.000 A 
ATOM     20  C   UNL     1       2.164   3.322  18.652  0.00  0.00    +0.000 A 
ATOM     21 CL   UNL     1       1.920   1.636  18.484  0.00  0.00    +0.000 Cl
ATOM     22  N   UNL     1       1.250   3.990  19.369  0.00  0.00    +0.000 NA
ATOM     23  N   UNL     1       1.390   5.362  19.558  0.00  0.00    +0.000 NA
ATOM     24  C   UNL     1       2.818   8.241  18.018  0.00  0.00    +0.000 C 
ATOM     25  C   UNL     1       1.502   8.844  17.553  0.00  0.00    +0.000 C 
ENDBRANCH   6  13
BRANCH   4  26
ATOM     26  C   UNL     1      -1.962  11.713  18.854  0.00  0.00    +0.000 C 
ATOM     27  F   UNL     1      -2.014  10.373  19.017  0.00  0.00    +0.000 F 
ATOM     28  F   UNL     1      -3.193  12.186  19.143  0.00  0.00    +0.000 F 
ATOM     29  F   UNL     1      -1.762  11.925  17.524  0.00  0.00    +0.000 F 
ENDBRANCH   4  26
BRANCH   4  30
ATOM     30  O   UNL     1      -0.695  11.801  20.999  0.00  0.00    +0.000 OA
ATOM     31  H   UNL     1      -1.518  11.977  21.488  0.00  0.00    +0.000 HD
ENDBRANCH   4  30
TORSDOF 3
ENDMDL
MODEL 4
REMARK VINA RESULT:      -7.0      4.626      7.178
REMARK  Name = 
REMARK  3 active torsions:
REMARK  status: ('A' for Active; 'I' for Inactive)
REMARK    1  A    between atoms: C_4  and  O_5
REMARK    2  A    between atoms: C_4  and  C_6
REMARK    3  A    between atoms: C_11  and  C_12
REMARK                            x       y       z     vdW  Elec       q    Type
REMARK                         _______ _______ _______ _____ _____    ______ ____
ROOT
ATOM      1  O   UNL     1       2.216   6.918  19.306  0.00  0.00    +0.000 OA
ATOM      2  C   UNL     1       1.810   7.983  19.777  0.00  0.00    +0.000 C 
ATOM      3  C   UNL     1       1.685   9.224  18.897  0.00  0.00    +0.000 C 
ATOM      4  C   UNL     1       0.809  10.395  19.412  0.00  0.00    +0.000 C 
ATOM      5  C   UNL     1       0.598  10.298  20.889  0.00  0.00    +0.000 A 
ATOM      6  C   UNL     1      -0.076  11.137  21.827  0.00  0.00    +0.000 A 
ATOM      7  N   UNL     1      -0.035  10.613  23.063  0.00  0.00    +0.000 NA
ATOM      8  N   UNL     1       0.621   9.440  22.909  0.00  0.00    +0.000 N 
ATOM      9  C   UNL     1       0.980   9.203  21.618  0.00  0.00    +0.000 A 
ATOM     10  N   UNL     1       1.556   8.075  21.119  0.00  0.00    +0.000 N 
ATOM     11  H   UNL     1       0.742   8.841  23.720  0.00  0.00    +0.000 HD
ATOM     12  H   UNL     1       1.728   7.248  21.679  0.00  0.00    +0.000 HD
ENDROOT
BRANCH   6  13
ATOM     13  C   UNL     1      -0.932  12.343  21.498  0.00  0.00    +0.000 C 
ATOM     14  C   UNL     1      -0.511  13.690  22.096  0.00  0.00    +0.000 C 
ATOM     15  C   UNL     1      -1.208  14.117  23.388  0.00  0.00    +0.000 C 
ATOM     16  N   UNL     1      -2.608  13.703  23.466  0.00  0.00    +0.000 N 
ATOM     17  C   UNL     1      -3.633  14.630  23.324  0.00  0.00    +0.000 A 
ATOM     18  C   UNL     1      -4.873  14.383  23.916  0.00  0.00    +0.000 A 
ATOM     19  C   UNL     1      -5.917  15.297  23.816  0.00  0.00    +0.000 A 
ATOM     20  C   UNL     1      -5.682  16.455  23.106  0.00  0.00    +0.000 A 
ATOM     21 CL   UNL     1      -6.896  17.646  22.916  0.00  0.00    +0.000 Cl
ATOM     22  N   UNL     1      -4.495  16.716  22.542  0.00  0.00    +0.000 NA
ATOM     23  N   UNL     1      -3.456  15.797  22.665  0.00  0.00    +0.000 NA
ATOM     24  C   UNL     1      -2.879  12.311  23.129  0.00  0.00    +0.000 C 
ATOM     25  C   UNL     1      -2.422  12.033  21.707  0.00  0.00    +0.000 C 
ENDBRANCH   6  13
BRANCH   4  26
ATOM     26  C   UNL     1      -0.545  10.474  18.619  0.00  0.00    +0.000 C 
ATOM     27  F   UNL     1      -0.972  11.737  18.404  0.00  0.00    +0.000 F 
ATOM     28  F   UNL     1      -0.503   9.869  17.413  0.00  0.00    +0.000 F 
ATOM     29  F   UNL     1      -1.528   9.859  19.333  0.00  0.00    +0.000 F 
ENDBRANCH   4  26
BRANCH   4  30
ATOM     30  O   UNL     1       1.607  11.595  19.189  0.00  0.00    +0.000 OA
ATOM     31  H   UNL     1       1.866  11.954  20.056  0.00  0.00    +0.000 HD
ENDBRANCH   4  30
TORSDOF 3
ENDMDL
MODEL 5
REMARK VINA RESULT:      -6.8      4.492      6.889
REMARK  Name = 
REMARK  3 active torsions:
REMARK  status: ('A' for Active; 'I' for Inactive)
REMARK    1  A    between atoms: C_4  and  O_5
REMARK    2  A    between atoms: C_4  and  C_6
REMARK    3  A    between atoms: C_11  and  C_12
REMARK                            x       y       z     vdW  Elec       q    Type
REMARK                         _______ _______ _______ _____ _____    ______ ____
ROOT
ATOM      1  O   UNL     1       2.336   6.867  18.497  0.00  0.00    +0.000 OA
ATOM      2  C   UNL     1       1.944   7.907  19.032  0.00  0.00    +0.000 C 
ATOM      3  C   UNL     1       1.630   9.142  18.192  0.00  0.00    +0.000 C 
ATOM      4  C   UNL     1       0.774  10.262  18.838  0.00  0.00    +0.000 C 
ATOM      5  C   UNL     1       0.779  10.149  20.328  0.00  0.00    +0.000 A 
ATOM      6  C   UNL     1       0.201  10.946  21.362  0.00  0.00    +0.000 A 
ATOM      7  N   UNL     1       0.444  10.421  22.574  0.00  0.00    +0.000 NA
ATOM      8  N   UNL     1       1.134   9.286  22.316  0.00  0.00    +0.000 N 
ATOM      9  C   UNL     1       1.319   9.074  20.985  0.00  0.00    +0.000 A 
ATOM     10  N   UNL     1       1.878   7.980  20.397  0.00  0.00    +0.000 N 
ATOM     11  H   UNL     1       1.399   8.691  23.095  0.00  0.00    +0.000 HD
ATOM     12  H   UNL     1       2.171   7.162  20.918  0.00  0.00    +0.000 HD
ENDROOT
BRANCH   6  13
ATOM     13  C   UNL     1      -0.756  12.106  21.170  0.00  0.00    +0.000 C 
ATOM     14  C   UNL     1      -0.151  13.509  21.068  0.00  0.00    +0.000 C 
ATOM     15  C   UNL     1      -0.120  14.340  22.351  0.00  0.00    +0.000 C 
ATOM     16  N   UNL     1      -1.270  14.115  23.226  0.00  0.00    +0.000 N 
ATOM     17  C   UNL     1      -2.267  15.075  23.350  0.00  0.00    +0.000 A 
ATOM     18  C   UNL     1      -3.028  15.131  24.520  0.00  0.00    +0.000 A 
ATOM     19  C   UNL     1      -4.019  16.092  24.692  0.00  0.00    +0.000 A 
ATOM     20  C   UNL     1      -4.224  16.985  23.663  0.00  0.00    +0.000 A 
ATOM     21 CL   UNL     1      -5.419  18.206  23.767  0.00  0.00    +0.000 Cl
ATOM     22  N   UNL     1      -3.496  16.955  22.539  0.00  0.00    +0.000 NA
ATOM     23  N   UNL     1      -2.497  15.997  22.389  0.00  0.00    +0.000 NA
ATOM     24  C   UNL     1      -1.613  12.722  23.480  0.00  0.00    +0.000 C 
ATOM     25  C   UNL     1      -1.923  12.025  22.165  0.00  0.00    +0.000 C 
ENDBRANCH   6  13
BRANCH   4  26
ATOM     26  C   UNL     1      -0.680  10.270  18.244  0.00  0.00    +0.000 C 
ATOM     27  F   UNL     1      -1.606   9.748  19.078  0.00  0.00    +0.000 F 
ATOM     28  F   UNL     1      -1.118  11.499  17.899  0.00  0.00    +0.000 F 
ATOM     29  F   UNL     1      -0.717   9.508  17.116  0.00  0.00    +0.000 F 
ENDBRANCH   4  26
BRANCH   4  30
ATOM     30  O   UNL     1       1.468  11.505  18.518  0.00  0.00    +0.000 OA
ATOM     31  H   UNL     1       0.808  12.219  18.473  0.00  0.00    +0.000 HD
ENDBRANCH   4  30
TORSDOF 3
ENDMDL
MODEL 6
REMARK VINA RESULT:      -6.4      6.158     10.411
REMARK  Name = 
REMARK  3 active torsions:
REMARK  status: ('A' for Active; 'I' for Inactive)
REMARK    1  A    between atoms: C_4  and  O_5
REMARK    2  A    between atoms: C_4  and  C_6
REMARK    3  A    between atoms: C_11  and  C_12
REMARK                            x       y       z     vdW  Elec       q    Type
REMARK                         _______ _______ _______ _____ _____    ______ ____
ROOT
ATOM      1  O   UNL     1      -5.246  16.917  24.414  0.00  0.00    +0.000 OA
ATOM      2  C   UNL     1      -4.443  16.178  23.839  0.00  0.00    +0.000 C 
ATOM      3  C   UNL     1      -3.674  15.113  24.616  0.00  0.00    +0.000 C 
ATOM      4  C   UNL     1      -3.003  13.969  23.812  0.00  0.00    +0.000 C 
ATOM      5  C   UNL     1      -2.838  14.349  22.376  0.00  0.00    +0.000 A 
ATOM      6  C   UNL     1      -2.245  13.683  21.261  0.00  0.00    +0.000 A 
ATOM      7  N   UNL     1      -2.370  14.410  20.139  0.00  0.00    +0.000 NA
ATOM      8  N   UNL     1      -3.066  15.505  20.524  0.00  0.00    +0.000 N 
ATOM      9  C   UNL     1      -3.393  15.483  21.844  0.00  0.00    +0.000 A 
ATOM     10  N   UNL     1      -4.173  16.377  22.512  0.00  0.00    +0.000 N 
ATOM     11  H   UNL     1      -3.316  16.193  19.820  0.00  0.00    +0.000 HD
ATOM     12  H   UNL     1      -4.648  17.147  22.055  0.00  0.00    +0.000 HD
ENDROOT
BRANCH   6  13
ATOM     13  C   UNL     1      -1.734  12.256  21.237  0.00  0.00    +0.000 C 
ATOM     14  C   UNL     1      -0.416  11.967  21.963  0.00  0.00    +0.000 C 
ATOM     15  C   UNL     1       0.851  11.953  21.107  0.00  0.00    +0.000 C 
ATOM     16  N   UNL     1       0.645  11.431  19.758  0.00  0.00    +0.000 N 
ATOM     17  C   UNL     1       1.121  10.176  19.400  0.00  0.00    +0.000 A 
ATOM     18  C   UNL     1       1.418   9.907  18.062  0.00  0.00    +0.000 A 
ATOM     19  C   UNL     1       1.919   8.670  17.668  0.00  0.00    +0.000 A 
ATOM     20  C   UNL     1       2.108   7.719  18.648  0.00  0.00    +0.000 A 
ATOM     21 CL   UNL     1       2.715   6.163  18.275  0.00  0.00    +0.000 Cl
ATOM     22  N   UNL     1       1.841   7.963  19.938  0.00  0.00    +0.000 NA
ATOM     23  N   UNL     1       1.355   9.211  20.317  0.00  0.00    +0.000 NA
ATOM     24  C   UNL     1      -0.501  11.970  19.035  0.00  0.00    +0.000 C 
ATOM     25  C   UNL     1      -1.774  11.683  19.813  0.00  0.00    +0.000 C 
ENDBRANCH   6  13
BRANCH   4  26
ATOM     26  C   UNL     1      -3.792  12.623  23.987  0.00  0.00    +0.000 C 
ATOM     27  F   UNL     1      -4.379  12.494  25.197  0.00  0.00    +0.000 F 
ATOM     28  F   UNL     1      -4.761  12.438  23.066  0.00  0.00    +0.000 F 
ATOM     29  F   UNL     1      -2.934  11.572  23.871  0.00  0.00    +0.000 F 
ENDBRANCH   4  26
BRANCH   4  30
ATOM     30  O   UNL     1      -1.658  13.854  24.364  0.00  0.00    +0.000 OA
ATOM     31  H   UNL     1      -1.026  13.837  23.624  0.00  0.00    +0.000 HD
ENDBRANCH   4  30
TORSDOF 3
ENDMDL
MODEL 7
REMARK VINA RESULT:      -6.4      5.558      9.525
REMARK  Name = 
REMARK  3 active torsions:
REMARK  status: ('A' for Active; 'I' for Inactive)
REMARK    1  A    between atoms: C_4  and  O_5
REMARK    2  A    between atoms: C_4  and  C_6
REMARK    3  A    between atoms: C_11  and  C_12
REMARK                            x       y       z     vdW  Elec       q    Type
REMARK                         _______ _______ _______ _____ _____    ______ ____
ROOT
ATOM      1  O   UNL     1      -3.069  16.959  22.591  0.00  0.00    +0.000 OA
ATOM      2  C   UNL     1      -2.475  15.945  22.217  0.00  0.00    +0.000 C 
ATOM      3  C   UNL     1      -2.065  14.870  23.220  0.00  0.00    +0.000 C 
ATOM      4  C   UNL     1      -1.699  13.466  22.673  0.00  0.00    +0.000 C 
ATOM      5  C   UNL     1      -1.370  13.527  21.216  0.00  0.00    +0.000 A 
ATOM      6  C   UNL     1      -0.934  12.542  20.280  0.00  0.00    +0.000 A 
ATOM      7  N   UNL     1      -0.802  13.066  19.050  0.00  0.00    +0.000 NA
ATOM      8  N   UNL     1      -1.187  14.355  19.191  0.00  0.00    +0.000 N 
ATOM      9  C   UNL     1      -1.567  14.655  20.463  0.00  0.00    +0.000 A 
ATOM     10  N   UNL     1      -2.100  15.827  20.906  0.00  0.00    +0.000 N 
ATOM     11  H   UNL     1      -1.205  14.949  18.368  0.00  0.00    +0.000 HD
ATOM     12  H   UNL     1      -2.324  16.600  20.291  0.00  0.00    +0.000 HD
ENDROOT
BRANCH   6  13
ATOM     13  C   UNL     1      -0.835  11.050  20.529  0.00  0.00    +0.000 C 
ATOM     14  C   UNL     1       0.139  10.580  21.614  0.00  0.00    +0.000 C 
ATOM     15  C   UNL     1       1.525  10.133  21.147  0.00  0.00    +0.000 C 
ATOM     16  N   UNL     1       1.521   9.465  19.848  0.00  0.00    +0.000 N 
ATOM     17  C   UNL     1       1.715   8.093  19.753  0.00  0.00    +0.000 A 
ATOM     18  C   UNL     1       2.245   7.551  18.580  0.00  0.00    +0.000 A 
ATOM     19  C   UNL     1       2.476   6.185  18.455  0.00  0.00    +0.000 A 
ATOM     20  C   UNL     1       2.158   5.385  19.532  0.00  0.00    +0.000 A 
ATOM     21 CL   UNL     1       2.397   3.691  19.486  0.00  0.00    +0.000 Cl
ATOM     22  N   UNL     1       1.660   5.888  20.669  0.00  0.00    +0.000 NA
ATOM     23  N   UNL     1       1.451   7.259  20.783  0.00  0.00    +0.000 NA
ATOM     24  C   UNL     1       0.774  10.135  18.790  0.00  0.00    +0.000 C 
ATOM     25  C   UNL     1      -0.680  10.282  19.208  0.00  0.00    +0.000 C 
ENDBRANCH   6  13
BRANCH   4  26
ATOM     26  C   UNL     1      -2.835  12.428  22.986  0.00  0.00    +0.000 C 
ATOM     27  F   UNL     1      -3.660  12.815  23.983  0.00  0.00    +0.000 F 
ATOM     28  F   UNL     1      -3.619  12.145  21.923  0.00  0.00    +0.000 F 
ATOM     29  F   UNL     1      -2.281  11.252  23.389  0.00  0.00    +0.000 F 
ENDBRANCH   4  26
BRANCH   4  30
ATOM     30  O   UNL     1      -0.464  13.100  23.357  0.00  0.00    +0.000 OA
ATOM     31  H   UNL     1      -0.090  13.903  23.761  0.00  0.00    +0.000 HD
ENDBRANCH   4  30
TORSDOF 3
ENDMDL
MODEL 8
REMARK VINA RESULT:      -6.3      5.691      9.767
REMARK  Name = 
REMARK  3 active torsions:
REMARK  status: ('A' for Active; 'I' for Inactive)
REMARK    1  A    between atoms: C_4  and  O_5
REMARK    2  A    between atoms: C_4  and  C_6
REMARK    3  A    between atoms: C_11  and  C_12
REMARK                            x       y       z     vdW  Elec       q    Type
REMARK                         _______ _______ _______ _____ _____    ______ ____
ROOT
ATOM      1  O   UNL     1      -3.811  16.872  23.339  0.00  0.00    +0.000 OA
ATOM      2  C   UNL     1      -3.124  15.961  22.871  0.00  0.00    +0.000 C 
ATOM      3  C   UNL     1      -2.553  14.874  23.778  0.00  0.00    +0.000 C 
ATOM      4  C   UNL     1      -2.057  13.562  23.118  0.00  0.00    +0.000 C 
ATOM      5  C   UNL     1      -1.801  13.760  21.658  0.00  0.00    +0.000 A 
ATOM      6  C   UNL     1      -1.298  12.897  20.638  0.00  0.00    +0.000 A 
ATOM      7  N   UNL     1      -1.280  13.515  19.446  0.00  0.00    +0.000 NA
ATOM      8  N   UNL     1      -1.800  14.740  19.694  0.00  0.00    +0.000 N 
ATOM      9  C   UNL     1      -2.156  14.906  20.996  0.00  0.00    +0.000 A 
ATOM     10  N   UNL     1      -2.796  15.976  21.543  0.00  0.00    +0.000 N 
ATOM     11  H   UNL     1      -1.921  15.382  18.917  0.00  0.00    +0.000 HD
ATOM     12  H   UNL     1      -3.132  16.759  20.994  0.00  0.00    +0.000 HD
ENDROOT
BRANCH   6  13
ATOM     13  C   UNL     1      -1.022  11.414  20.774  0.00  0.00    +0.000 C 
ATOM     14  C   UNL     1       0.141  10.993  21.678  0.00  0.00    +0.000 C 
ATOM     15  C   UNL     1       1.479  10.716  20.992  0.00  0.00    +0.000 C 
ATOM     16  N   UNL     1       1.348  10.116  19.666  0.00  0.00    +0.000 N 
ATOM     17  C   UNL     1       1.655   8.778  19.456  0.00  0.00    +0.000 A 
ATOM     18  C   UNL     1       2.056   8.353  18.188  0.00  0.00    +0.000 A 
ATOM     19  C   UNL     1       2.395   7.026  17.944  0.00  0.00    +0.000 A 
ATOM     20  C   UNL     1       2.317   6.145  19.001  0.00  0.00    +0.000 A 
ATOM     21 CL   UNL     1       2.707   4.489  18.813  0.00  0.00    +0.000 Cl
ATOM     22  N   UNL     1       1.946   6.536  20.228  0.00  0.00    +0.000 NA
ATOM     23  N   UNL     1       1.626   7.872  20.458  0.00  0.00    +0.000 NA
ATOM     24  C   UNL     1       0.393  10.758  18.770  0.00  0.00    +0.000 C 
ATOM     25  C   UNL     1      -0.991  10.732  19.398  0.00  0.00    +0.000 C 
ENDBRANCH   6  13
BRANCH   4  26
ATOM     26  C   UNL     1      -3.055  12.382  23.395  0.00  0.00    +0.000 C 
ATOM     27  F   UNL     1      -2.446  11.188  23.566  0.00  0.00    +0.000 F 
ATOM     28  F   UNL     1      -3.837  12.576  24.478  0.00  0.00    +0.000 F 
ATOM     29  F   UNL     1      -3.890  12.230  22.330  0.00  0.00    +0.000 F 
ENDBRANCH   4  26
BRANCH   4  30
ATOM     30  O   UNL     1      -0.760  13.295  23.729  0.00  0.00    +0.000 OA
ATOM     31  H   UNL     1      -0.545  12.356  23.590  0.00  0.00    +0.000 HD
ENDBRANCH   4  30
TORSDOF 3
ENDMDL
MODEL 9
REMARK VINA RESULT:      -6.3      7.165      9.317
REMARK  Name = 
REMARK  3 active torsions:
REMARK  status: ('A' for Active; 'I' for Inactive)
REMARK    1  A    between atoms: C_4  and  O_5
REMARK    2  A    between atoms: C_4  and  C_6
REMARK    3  A    between atoms: C_11  and  C_12
REMARK                            x       y       z     vdW  Elec       q    Type
REMARK                         _______ _______ _______ _____ _____    ______ ____
ROOT
ATOM      1  O   UNL     1      -2.357  10.102  15.720  0.00  0.00    +0.000 OA
ATOM      2  C   UNL     1      -2.347  10.528  16.877  0.00  0.00    +0.000 C 
ATOM      3  C   UNL     1      -1.189  10.201  17.816  0.00  0.00    +0.000 C 
ATOM      4  C   UNL     1      -1.019  11.068  19.090  0.00  0.00    +0.000 C 
ATOM      5  C   UNL     1      -2.285  11.790  19.421  0.00  0.00    +0.000 A 
ATOM      6  C   UNL     1      -2.655  12.652  20.497  0.00  0.00    +0.000 A 
ATOM      7  N   UNL     1      -3.912  13.102  20.348  0.00  0.00    +0.000 NA
ATOM      8  N   UNL     1      -4.324  12.566  19.176  0.00  0.00    +0.000 N 
ATOM      9  C   UNL     1      -3.365  11.808  18.578  0.00  0.00    +0.000 A 
ATOM     10  N   UNL     1      -3.428  11.221  17.351  0.00  0.00    +0.000 N 
ATOM     11  H   UNL     1      -5.250  12.802  18.833  0.00  0.00    +0.000 HD
ATOM     12  H   UNL     1      -4.209  11.347  16.717  0.00  0.00    +0.000 HD
ENDROOT
BRANCH   6  13
ATOM     13  C   UNL     1      -1.730  13.202  21.564  0.00  0.00    +0.000 C 
ATOM     14  C   UNL     1      -1.890  12.654  22.986  0.00  0.00    +0.000 C 
ATOM     15  C   UNL     1      -2.746  13.478  23.948  0.00  0.00    +0.000 C 
ATOM     16  N   UNL     1      -2.640  14.921  23.742  0.00  0.00    +0.000 N 
ATOM     17  C   UNL     1      -1.944  15.718  24.642  0.00  0.00    +0.000 A 
ATOM     18  C   UNL     1      -2.280  17.068  24.771  0.00  0.00    +0.000 A 
ATOM     19  C   UNL     1      -1.622  17.893  25.677  0.00  0.00    +0.000 A 
ATOM     20  C   UNL     1      -0.623  17.329  26.441  0.00  0.00    +0.000 A 
ATOM     21 CL   UNL     1       0.254  18.253  27.585  0.00  0.00    +0.000 Cl
ATOM     22  N   UNL     1      -0.295  16.034  26.340  0.00  0.00    +0.000 NA
ATOM     23  N   UNL     1      -0.974  15.219  25.439  0.00  0.00    +0.000 NA
ATOM     24  C   UNL     1      -2.766  15.378  22.363  0.00  0.00    +0.000 C 
ATOM     25  C   UNL     1      -1.683  14.736  21.513  0.00  0.00    +0.000 C 
ENDBRANCH   6  13
BRANCH   4  26
ATOM     26  C   UNL     1       0.205  12.043  18.946  0.00  0.00    +0.000 C 
ATOM     27  F   UNL     1      -0.105  13.212  18.345  0.00  0.00    +0.000 F 
ATOM     28  F   UNL     1       0.790  12.355  20.122  0.00  0.00    +0.000 F 
ATOM     29  F   UNL     1       1.163  11.462  18.173  0.00  0.00    +0.000 F 
ENDBRANCH   4  26
BRANCH   4  30
ATOM     30  O   UNL     1      -0.794  10.115  20.172  0.00  0.00    +0.000 OA
ATOM     31  H   UNL     1      -0.076  10.455  20.733  0.00  0.00    +0.000 HD
ENDBRANCH   4  30
TORSDOF 3
ENDMDL
