MODEL 1
REMARK VINA RESULT:      -9.2      0.000      0.000
REMARK  Name = 
REMARK  7 active torsions:
REMARK  status: ('A' for Active; 'I' for Inactive)
REMARK    1  A    between atoms: C_1  and  C_2
REMARK    2  A    between atoms: C_2  and  C_3
REMARK    3  A    between atoms: C_3  and  N_4
REMARK    4  A    between atoms: C_7  and  C_8
REMARK    5  A    between atoms: C_8  and  C_9
REMARK    6  A    between atoms: N_19  and  C_20
REMARK    7  A    between atoms: C_24  and  C_25
REMARK                            x       y       z     vdW  Elec       q    Type
REMARK                         _______ _______ _______ _____ _____    ______ ____
ROOT
ATOM      1  C   UNL     1       5.343   4.551  15.916  0.00  0.00    +0.000 A 
ATOM      2  N   UNL     1       4.643   4.057  14.942  0.00  0.00    +0.000 NA
ATOM      3  C   UNL     1       5.277   3.872  13.695  0.00  0.00    +0.000 A 
ATOM      4  C   UNL     1       4.631   3.136  12.707  0.00  0.00    +0.000 A 
ATOM      5  C   UNL     1       5.240   2.915  11.465  0.00  0.00    +0.000 A 
ATOM      6  C   UNL     1       6.496   3.454  11.178  0.00  0.00    +0.000 A 
ATOM      7  C   UNL     1       7.157   4.186  12.152  0.00  0.00    +0.000 A 
ATOM      8  C   UNL     1       6.544   4.368  13.402  0.00  0.00    +0.000 A 
ATOM      9  C   UNL     1       7.277   5.009  14.478  0.00  0.00    +0.000 A 
ATOM     10  O   UNL     1       8.341   5.585  14.230  0.00  0.00    +0.000 OA
ATOM     11  N   UNL     1       6.692   4.907  15.751  0.00  0.00    +0.000 N 
ENDROOT
BRANCH  11  12
ATOM     12  C   UNL     1       7.411   5.507  16.801  0.00  0.00    +0.000 A 
ATOM     13  C   UNL     1       7.727   4.791  17.955  0.00  0.00    +0.000 A 
ATOM     14  C   UNL     1       8.106   5.496  19.095  0.00  0.00    +0.000 A 
ATOM     15  C   UNL     1       8.127   6.896  19.076  0.00  0.00    +0.000 A 
ATOM     16  C   UNL     1       7.860   7.600  17.896  0.00  0.00    +0.000 A 
ATOM     17  C   UNL     1       7.773   9.088  17.816  0.00  0.00    +0.000 C 
ATOM     18  C   UNL     1       7.580   6.886  16.737  0.00  0.00    +0.000 A 
ENDBRANCH  11  12
BRANCH   1  19
ATOM     19  C   UNL     1       4.715   4.675  17.337  0.00  0.00    +0.000 C 
BRANCH  19  23
ATOM     20  N   UNL     1       2.223   6.350  19.370  0.00  0.00    +0.000 N 
ATOM     21  C   UNL     1       3.094   6.516  18.267  0.00  0.00    +0.000 C 
ATOM     22  O   UNL     1       3.572   7.563  17.856  0.00  0.00    +0.000 OA
ATOM     23  C   UNL     1       3.272   5.143  17.597  0.00  0.00    +0.000 C 
ATOM     24  C   UNL     1       2.393   4.257  18.432  0.00  0.00    +0.000 A 
ATOM     25  C   UNL     1       2.012   2.942  18.200  0.00  0.00    +0.000 A 
ATOM     26  C   UNL     1       1.105   2.355  19.085  0.00  0.00    +0.000 A 
ATOM     27  C   UNL     1       0.642   3.065  20.204  0.00  0.00    +0.000 A 
ATOM     28  C   UNL     1       1.029   4.392  20.421  0.00  0.00    +0.000 A 
ATOM     29  C   UNL     1       1.851   4.996  19.490  0.00  0.00    +0.000 A 
BRANCH  20  30
ATOM     30  C   UNL     1       2.078   7.372  20.395  0.00  0.00    +0.000 C 
BRANCH  30  32
ATOM     31  C   UNL     1       0.159   8.901  21.324  0.00  0.00    +0.000 C 
ATOM     32  C   UNL     1       1.138   8.580  20.202  0.00  0.00    +0.000 C 
ENDBRANCH  30  32
ENDBRANCH  20  30
ENDBRANCH  19  23
ENDBRANCH   1  19
TORSDOF 5
ENDMDL
MODEL 2
REMARK VINA RESULT:      -8.6      1.986      7.458
REMARK  Name = 
REMARK  7 active torsions:
REMARK  status: ('A' for Active; 'I' for Inactive)
REMARK    1  A    between atoms: C_1  and  C_2
REMARK    2  A    between atoms: C_2  and  C_3
REMARK    3  A    between atoms: C_3  and  N_4
REMARK    4  A    between atoms: C_7  and  C_8
REMARK    5  A    between atoms: C_8  and  C_9
REMARK    6  A    between atoms: N_19  and  C_20
REMARK    7  A    between atoms: C_24  and  C_25
REMARK                            x       y       z     vdW  Elec       q    Type
REMARK                         _______ _______ _______ _____ _____    ______ ____
ROOT
ATOM      1  C   UNL     1       2.475   6.456  18.290  0.00  0.00    +0.000 A 
ATOM      2  N   UNL     1       2.577   7.594  17.674  0.00  0.00    +0.000 NA
ATOM      3  C   UNL     1       2.169   8.758  18.359  0.00  0.00    +0.000 A 
ATOM      4  C   UNL     1       2.480  10.005  17.825  0.00  0.00    +0.000 A 
ATOM      5  C   UNL     1       2.107  11.181  18.488  0.00  0.00    +0.000 A 
ATOM      6  C   UNL     1       1.389  11.132  19.684  0.00  0.00    +0.000 A 
ATOM      7  C   UNL     1       1.074   9.898  20.234  0.00  0.00    +0.000 A 
ATOM      8  C   UNL     1       1.485   8.731  19.571  0.00  0.00    +0.000 A 
ATOM      9  C   UNL     1       1.289   7.437  20.200  0.00  0.00    +0.000 A 
ATOM     10  O   UNL     1       0.570   7.351  21.200  0.00  0.00    +0.000 OA
ATOM     11  N   UNL     1       1.964   6.365  19.594  0.00  0.00    +0.000 N 
ENDROOT
BRANCH  11  12
ATOM     12  C   UNL     1       1.796   5.112  20.215  0.00  0.00    +0.000 A 
ATOM     13  C   UNL     1       2.535   4.766  21.345  0.00  0.00    +0.000 A 
ATOM     14  C   UNL     1       2.611   3.423  21.706  0.00  0.00    +0.000 A 
ATOM     15  C   UNL     1       1.984   2.450  20.918  0.00  0.00    +0.000 A 
ATOM     16  C   UNL     1       1.201   2.817  19.818  0.00  0.00    +0.000 A 
ATOM     17  C   UNL     1       0.577   1.839  18.877  0.00  0.00    +0.000 C 
ATOM     18  C   UNL     1       1.048   4.166  19.521  0.00  0.00    +0.000 A 
ENDBRANCH  11  12
BRANCH   1  19
ATOM     19  C   UNL     1       3.011   5.158  17.613  0.00  0.00    +0.000 C 
BRANCH  19  23
ATOM     20  N   UNL     1       6.563   5.858  17.821  0.00  0.00    +0.000 N 
ATOM     21  C   UNL     1       5.422   5.516  18.584  0.00  0.00    +0.000 C 
ATOM     22  O   UNL     1       5.230   5.748  19.768  0.00  0.00    +0.000 OA
ATOM     23  C   UNL     1       4.479   4.701  17.683  0.00  0.00    +0.000 C 
ATOM     24  C   UNL     1       5.246   4.626  16.393  0.00  0.00    +0.000 A 
ATOM     25  C   UNL     1       4.976   3.865  15.264  0.00  0.00    +0.000 A 
ATOM     26  C   UNL     1       5.897   3.899  14.214  0.00  0.00    +0.000 A 
ATOM     27  C   UNL     1       7.030   4.724  14.288  0.00  0.00    +0.000 A 
ATOM     28  C   UNL     1       7.293   5.479  15.435  0.00  0.00    +0.000 A 
ATOM     29  C   UNL     1       6.428   5.368  16.506  0.00  0.00    +0.000 A 
BRANCH  20  30
ATOM     30  C   UNL     1       7.508   6.872  18.264  0.00  0.00    +0.000 C 
BRANCH  30  32
ATOM     31  C   UNL     1       8.445   9.322  18.222  0.00  0.00    +0.000 C 
ATOM     32  C   UNL     1       7.630   8.230  17.541  0.00  0.00    +0.000 C 
ENDBRANCH  30  32
ENDBRANCH  20  30
ENDBRANCH  19  23
ENDBRANCH   1  19
TORSDOF 5
ENDMDL
MODEL 3
REMARK VINA RESULT:      -8.1      6.467     12.695
REMARK  Name = 
REMARK  7 active torsions:
REMARK  status: ('A' for Active; 'I' for Inactive)
REMARK    1  A    between atoms: C_1  and  C_2
REMARK    2  A    between atoms: C_2  and  C_3
REMARK    3  A    between atoms: C_3  and  N_4
REMARK    4  A    between atoms: C_7  and  C_8
REMARK    5  A    between atoms: C_8  and  C_9
REMARK    6  A    between atoms: N_19  and  C_20
REMARK    7  A    between atoms: C_24  and  C_25
REMARK                            x       y       z     vdW  Elec       q    Type
REMARK                         _______ _______ _______ _____ _____    ______ ____
ROOT
ATOM      1  C   UNL     1      -3.069  13.173  20.650  0.00  0.00    +0.000 A 
ATOM      2  N   UNL     1      -3.470  12.379  19.704  0.00  0.00    +0.000 NA
ATOM      3  C   UNL     1      -4.828  11.995  19.691  0.00  0.00    +0.000 A 
ATOM      4  C   UNL     1      -5.338  11.344  18.573  0.00  0.00    +0.000 A 
ATOM      5  C   UNL     1      -6.686  10.966  18.517  0.00  0.00    +0.000 A 
ATOM      6  C   UNL     1      -7.542  11.206  19.593  0.00  0.00    +0.000 A 
ATOM      7  C   UNL     1      -7.051  11.860  20.714  0.00  0.00    +0.000 A 
ATOM      8  C   UNL     1      -5.706  12.259  20.737  0.00  0.00    +0.000 A 
ATOM      9  C   UNL     1      -5.212  13.066  21.838  0.00  0.00    +0.000 A 
ATOM     10  O   UNL     1      -5.909  13.207  22.848  0.00  0.00    +0.000 OA
ATOM     11  N   UNL     1      -3.944  13.637  21.646  0.00  0.00    +0.000 N 
ENDROOT
BRANCH  11  12
ATOM     12  C   UNL     1      -3.471  14.439  22.701  0.00  0.00    +0.000 A 
ATOM     13  C   UNL     1      -2.979  13.867  23.873  0.00  0.00    +0.000 A 
ATOM     14  C   UNL     1      -2.864  14.665  25.009  0.00  0.00    +0.000 A 
ATOM     15  C   UNL     1      -3.275  16.003  24.967  0.00  0.00    +0.000 A 
ATOM     16  C   UNL     1      -3.716  16.579  23.769  0.00  0.00    +0.000 A 
ATOM     17  C   UNL     1      -4.255  17.967  23.662  0.00  0.00    +0.000 C 
ATOM     18  C   UNL     1      -3.733  15.803  22.617  0.00  0.00    +0.000 A 
ENDBRANCH  11  12
BRANCH   1  19
ATOM     19  C   UNL     1      -1.605  13.706  20.644  0.00  0.00    +0.000 C 
BRANCH  19  23
ATOM     20  N   UNL     1       0.372  10.946  19.372  0.00  0.00    +0.000 N 
ATOM     21  C   UNL     1       0.222  12.352  19.336  0.00  0.00    +0.000 C 
ATOM     22  O   UNL     1       0.558  13.107  18.436  0.00  0.00    +0.000 OA
ATOM     23  C   UNL     1      -0.362  12.798  20.687  0.00  0.00    +0.000 C 
ATOM     24  C   UNL     1      -0.474  11.502  21.437  0.00  0.00    +0.000 A 
ATOM     25  C   UNL     1      -0.772  11.295  22.777  0.00  0.00    +0.000 A 
ATOM     26  C   UNL     1      -0.728   9.988  23.266  0.00  0.00    +0.000 A 
ATOM     27  C   UNL     1      -0.442   8.916  22.405  0.00  0.00    +0.000 A 
ATOM     28  C   UNL     1      -0.136   9.140  21.059  0.00  0.00    +0.000 A 
ATOM     29  C   UNL     1      -0.089  10.444  20.605  0.00  0.00    +0.000 A 
BRANCH  20  30
ATOM     30  C   UNL     1       0.613  10.167  18.166  0.00  0.00    +0.000 C 
BRANCH  30  32
ATOM     31  C   UNL     1       2.154   8.050  18.005  0.00  0.00    +0.000 C 
ATOM     32  C   UNL     1       1.998   9.559  17.863  0.00  0.00    +0.000 C 
ENDBRANCH  30  32
ENDBRANCH  20  30
ENDBRANCH  19  23
ENDBRANCH   1  19
TORSDOF 5
ENDMDL
MODEL 4
REMARK VINA RESULT:      -8.0      7.106     13.950
REMARK  Name = 
REMARK  7 active torsions:
REMARK  status: ('A' for Active; 'I' for Inactive)
REMARK    1  A    between atoms: C_1  and  C_2
REMARK    2  A    between atoms: C_2  and  C_3
REMARK    3  A    between atoms: C_3  and  N_4
REMARK    4  A    between atoms: C_7  and  C_8
REMARK    5  A    between atoms: C_8  and  C_9
REMARK    6  A    between atoms: N_19  and  C_20
REMARK    7  A    between atoms: C_24  and  C_25
REMARK                            x       y       z     vdW  Elec       q    Type
REMARK                         _______ _______ _______ _____ _____    ______ ____
ROOT
ATOM      1  C   UNL     1      -3.826  13.697  21.414  0.00  0.00    +0.000 A 
ATOM      2  N   UNL     1      -3.078  14.438  22.173  0.00  0.00    +0.000 NA
ATOM      3  C   UNL     1      -3.713  15.284  23.108  0.00  0.00    +0.000 A 
ATOM      4  C   UNL     1      -2.947  15.910  24.086  0.00  0.00    +0.000 A 
ATOM      5  C   UNL     1      -3.547  16.740  25.042  0.00  0.00    +0.000 A 
ATOM      6  C   UNL     1      -4.921  16.984  25.017  0.00  0.00    +0.000 A 
ATOM      7  C   UNL     1      -5.701  16.364  24.052  0.00  0.00    +0.000 A 
ATOM      8  C   UNL     1      -5.085  15.510  23.124  0.00  0.00    +0.000 A 
ATOM      9  C   UNL     1      -5.900  14.745  22.197  0.00  0.00    +0.000 A 
ATOM     10  O   UNL     1      -7.100  15.013  22.080  0.00  0.00    +0.000 OA
ATOM     11  N   UNL     1      -5.227  13.730  21.498  0.00  0.00    +0.000 N 
ENDROOT
BRANCH  11  12
ATOM     12  C   UNL     1      -6.018  12.970  20.617  0.00  0.00    +0.000 A 
ATOM     13  C   UNL     1      -6.512  11.721  20.990  0.00  0.00    +0.000 A 
ATOM     14  C   UNL     1      -6.969  10.860  19.995  0.00  0.00    +0.000 A 
ATOM     15  C   UNL     1      -6.891  11.241  18.651  0.00  0.00    +0.000 A 
ATOM     16  C   UNL     1      -6.444  12.519  18.294  0.00  0.00    +0.000 A 
ATOM     17  C   UNL     1      -6.246  12.968  16.883  0.00  0.00    +0.000 C 
ATOM     18  C   UNL     1      -6.083  13.409  19.298  0.00  0.00    +0.000 A 
ENDBRANCH  11  12
BRANCH   1  19
ATOM     19  C   UNL     1      -3.167  12.672  20.442  0.00  0.00    +0.000 C 
BRANCH  19  23
ATOM     20  N   UNL     1      -0.319  10.781  19.236  0.00  0.00    +0.000 N 
ATOM     21  C   UNL     1      -1.054  11.975  19.053  0.00  0.00    +0.000 C 
ATOM     22  O   UNL     1      -1.145  12.635  18.029  0.00  0.00    +0.000 OA
ATOM     23  C   UNL     1      -1.658  12.369  20.411  0.00  0.00    +0.000 C 
ATOM     24  C   UNL     1      -1.147  11.289  21.321  0.00  0.00    +0.000 A 
ATOM     25  C   UNL     1      -1.218  11.212  22.705  0.00  0.00    +0.000 A 
ATOM     26  C   UNL     1      -0.582  10.140  23.336  0.00  0.00    +0.000 A 
ATOM     27  C   UNL     1       0.059   9.147  22.579  0.00  0.00    +0.000 A 
ATOM     28  C   UNL     1       0.129   9.241  21.185  0.00  0.00    +0.000 A 
ATOM     29  C   UNL     1      -0.420  10.353  20.575  0.00  0.00    +0.000 A 
BRANCH  20  30
ATOM     30  C   UNL     1       0.129   9.973  18.111  0.00  0.00    +0.000 C 
BRANCH  30  32
ATOM     31  C   UNL     1       2.066   8.210  17.961  0.00  0.00    +0.000 C 
ATOM     32  C   UNL     1       1.624   9.666  17.884  0.00  0.00    +0.000 C 
ENDBRANCH  30  32
ENDBRANCH  20  30
ENDBRANCH  19  23
ENDBRANCH   1  19
TORSDOF 5
ENDMDL
MODEL 5
REMARK VINA RESULT:      -7.8      7.910     11.015
REMARK  Name = 
REMARK  7 active torsions:
REMARK  status: ('A' for Active; 'I' for Inactive)
REMARK    1  A    between atoms: C_1  and  C_2
REMARK    2  A    between atoms: C_2  and  C_3
REMARK    3  A    between atoms: C_3  and  N_4
REMARK    4  A    between atoms: C_7  and  C_8
REMARK    5  A    between atoms: C_8  and  C_9
REMARK    6  A    between atoms: N_19  and  C_20
REMARK    7  A    between atoms: C_24  and  C_25
REMARK                            x       y       z     vdW  Elec       q    Type
REMARK                         _______ _______ _______ _____ _____    ______ ____
ROOT
ATOM      1  C   UNL     1      -0.793  13.748  19.980  0.00  0.00    +0.000 A 
ATOM      2  N   UNL     1      -0.468  14.845  19.368  0.00  0.00    +0.000 NA
ATOM      3  C   UNL     1       0.903  15.140  19.217  0.00  0.00    +0.000 A 
ATOM      4  C   UNL     1       1.286  16.176  18.371  0.00  0.00    +0.000 A 
ATOM      5  C   UNL     1       2.640  16.483  18.181  0.00  0.00    +0.000 A 
ATOM      6  C   UNL     1       3.635  15.778  18.860  0.00  0.00    +0.000 A 
ATOM      7  C   UNL     1       3.273  14.738  19.703  0.00  0.00    +0.000 A 
ATOM      8  C   UNL     1       1.913  14.425  19.853  0.00  0.00    +0.000 A 
ATOM      9  C   UNL     1       1.523  13.255  20.620  0.00  0.00    +0.000 A 
ATOM     10  O   UNL     1       2.364  12.675  21.313  0.00  0.00    +0.000 OA
ATOM     11  N   UNL     1       0.177  12.873  20.493  0.00  0.00    +0.000 N 
ENDROOT
BRANCH  11  12
ATOM     12  C   UNL     1      -0.199  11.725  21.215  0.00  0.00    +0.000 A 
ATOM     13  C   UNL     1      -0.813  11.831  22.463  0.00  0.00    +0.000 A 
ATOM     14  C   UNL     1      -0.840  10.711  23.290  0.00  0.00    +0.000 A 
ATOM     15  C   UNL     1      -0.224   9.523  22.879  0.00  0.00    +0.000 A 
ATOM     16  C   UNL     1       0.341   9.415  21.603  0.00  0.00    +0.000 A 
ATOM     17  C   UNL     1       1.094   8.217  21.124  0.00  0.00    +0.000 C 
ATOM     18  C   UNL     1       0.276  10.505  20.744  0.00  0.00    +0.000 A 
ENDBRANCH  11  12
BRANCH   1  19
ATOM     19  C   UNL     1      -2.292  13.330  20.078  0.00  0.00    +0.000 C 
BRANCH  19  23
ATOM     20  N   UNL     1      -3.366  11.406  17.198  0.00  0.00    +0.000 N 
ATOM     21  C   UNL     1      -2.285  11.626  18.084  0.00  0.00    +0.000 C 
ATOM     22  O   UNL     1      -1.098  11.444  17.857  0.00  0.00    +0.000 OA
ATOM     23  C   UNL     1      -2.867  12.052  19.442  0.00  0.00    +0.000 C 
ATOM     24  C   UNL     1      -4.347  12.005  19.191  0.00  0.00    +0.000 A 
ATOM     25  C   UNL     1      -5.388  12.119  20.103  0.00  0.00    +0.000 A 
ATOM     26  C   UNL     1      -6.692  11.951  19.634  0.00  0.00    +0.000 A 
ATOM     27  C   UNL     1      -6.935  11.729  18.269  0.00  0.00    +0.000 A 
ATOM     28  C   UNL     1      -5.876  11.609  17.363  0.00  0.00    +0.000 A 
ATOM     29  C   UNL     1      -4.585  11.682  17.850  0.00  0.00    +0.000 A 
BRANCH  20  30
ATOM     30  C   UNL     1      -3.171  11.287  15.761  0.00  0.00    +0.000 C 
BRANCH  30  32
ATOM     31  C   UNL     1      -3.405   9.976  13.501  0.00  0.00    +0.000 C 
ATOM     32  C   UNL     1      -3.410   9.953  15.024  0.00  0.00    +0.000 C 
ENDBRANCH  30  32
ENDBRANCH  20  30
ENDBRANCH  19  23
ENDBRANCH   1  19
TORSDOF 5
ENDMDL
MODEL 6
REMARK VINA RESULT:      -7.7      8.831     11.923
REMARK  Name = 
REMARK  7 active torsions:
REMARK  status: ('A' for Active; 'I' for Inactive)
REMARK    1  A    between atoms: C_1  and  C_2
REMARK    2  A    between atoms: C_2  and  C_3
REMARK    3  A    between atoms: C_3  and  N_4
REMARK    4  A    between atoms: C_7  and  C_8
REMARK    5  A    between atoms: C_8  and  C_9
REMARK    6  A    between atoms: N_19  and  C_20
REMARK    7  A    between atoms: C_24  and  C_25
REMARK                            x       y       z     vdW  Elec       q    Type
REMARK                         _______ _______ _______ _____ _____    ______ ____
ROOT
ATOM      1  C   UNL     1      -1.993  11.716  20.213  0.00  0.00    +0.000 A 
ATOM      2  N   UNL     1      -1.592  10.910  19.279  0.00  0.00    +0.000 NA
ATOM      3  C   UNL     1      -2.355  10.834  18.094  0.00  0.00    +0.000 A 
ATOM      4  C   UNL     1      -1.834  10.166  16.991  0.00  0.00    +0.000 A 
ATOM      5  C   UNL     1      -2.556  10.088  15.794  0.00  0.00    +0.000 A 
ATOM      6  C   UNL     1      -3.828  10.652  15.687  0.00  0.00    +0.000 A 
ATOM      7  C   UNL     1      -4.363  11.326  16.775  0.00  0.00    +0.000 A 
ATOM      8  C   UNL     1      -3.609  11.422  17.955  0.00  0.00    +0.000 A 
ATOM      9  C   UNL     1      -4.089  12.241  19.054  0.00  0.00    +0.000 A 
ATOM     10  O   UNL     1      -5.249  12.665  19.033  0.00  0.00    +0.000 OA
ATOM     11  N   UNL     1      -3.157  12.489  20.073  0.00  0.00    +0.000 N 
ENDROOT
BRANCH  11  12
ATOM     12  C   UNL     1      -3.611  13.302  21.129  0.00  0.00    +0.000 A 
ATOM     13  C   UNL     1      -3.400  14.680  21.115  0.00  0.00    +0.000 A 
ATOM     14  C   UNL     1      -3.531  15.387  22.308  0.00  0.00    +0.000 A 
ATOM     15  C   UNL     1      -3.830  14.707  23.494  0.00  0.00    +0.000 A 
ATOM     16  C   UNL     1      -4.092  13.332  23.484  0.00  0.00    +0.000 A 
ATOM     17  C   UNL     1      -4.327  12.520  24.715  0.00  0.00    +0.000 C 
ATOM     18  C   UNL     1      -4.057  12.650  22.274  0.00  0.00    +0.000 A 
ENDBRANCH  11  12
BRANCH   1  19
ATOM     19  C   UNL     1      -1.125  11.911  21.493  0.00  0.00    +0.000 C 
BRANCH  19  23
ATOM     20  N   UNL     1       0.729  15.000  21.083  0.00  0.00    +0.000 N 
ATOM     21  C   UNL     1       0.103  14.164  22.037  0.00  0.00    +0.000 C 
ATOM     22  O   UNL     1      -0.361  14.498  23.117  0.00  0.00    +0.000 OA
ATOM     23  C   UNL     1       0.186  12.717  21.524  0.00  0.00    +0.000 C 
ATOM     24  C   UNL     1       0.937  12.873  20.232  0.00  0.00    +0.000 A 
ATOM     25  C   UNL     1       1.466  11.887  19.410  0.00  0.00    +0.000 A 
ATOM     26  C   UNL     1       2.208  12.289  18.297  0.00  0.00    +0.000 A 
ATOM     27  C   UNL     1       2.362  13.653  17.999  0.00  0.00    +0.000 A 
ATOM     28  C   UNL     1       1.830  14.635  18.841  0.00  0.00    +0.000 A 
ATOM     29  C   UNL     1       1.178  14.230  19.990  0.00  0.00    +0.000 A 
BRANCH  20  30
ATOM     30  C   UNL     1       0.567  16.446  21.102  0.00  0.00    +0.000 C 
BRANCH  30  32
ATOM     31  C   UNL     1      -0.852  17.216  19.034  0.00  0.00    +0.000 C 
ATOM     32  C   UNL     1      -0.704  17.122  20.548  0.00  0.00    +0.000 C 
ENDBRANCH  30  32
ENDBRANCH  20  30
ENDBRANCH  19  23
ENDBRANCH   1  19
TORSDOF 5
ENDMDL
MODEL 7
REMARK VINA RESULT:      -7.7      8.759     12.049
REMARK  Name = 
REMARK  7 active torsions:
REMARK  status: ('A' for Active; 'I' for Inactive)
REMARK    1  A    between atoms: C_1  and  C_2
REMARK    2  A    between atoms: C_2  and  C_3
REMARK    3  A    between atoms: C_3  and  N_4
REMARK    4  A    between atoms: C_7  and  C_8
REMARK    5  A    between atoms: C_8  and  C_9
REMARK    6  A    between atoms: N_19  and  C_20
REMARK    7  A    between atoms: C_24  and  C_25
REMARK                            x       y       z     vdW  Elec       q    Type
REMARK                         _______ _______ _______ _____ _____    ______ ____
ROOT
ATOM      1  C   UNL     1       8.050  14.714  21.436  0.00  0.00    +0.000 A 
ATOM      2  N   UNL     1       7.749  15.313  20.324  0.00  0.00    +0.000 NA
ATOM      3  C   UNL     1       6.385  15.535  20.038  0.00  0.00    +0.000 A 
ATOM      4  C   UNL     1       6.041  16.372  18.981  0.00  0.00    +0.000 A 
ATOM      5  C   UNL     1       4.697  16.630  18.681  0.00  0.00    +0.000 A 
ATOM      6  C   UNL     1       3.672  16.030  19.414  0.00  0.00    +0.000 A 
ATOM      7  C   UNL     1       3.996  15.196  20.474  0.00  0.00    +0.000 A 
ATOM      8  C   UNL     1       5.349  14.977  20.779  0.00  0.00    +0.000 A 
ATOM      9  C   UNL     1       5.706  14.223  21.968  0.00  0.00    +0.000 A 
ATOM     10  O   UNL     1       4.833  13.596  22.575  0.00  0.00    +0.000 OA
ATOM     11  N   UNL     1       7.061  14.283  22.334  0.00  0.00    +0.000 N 
ENDROOT
BRANCH  11  12
ATOM     12  C   UNL     1       7.408  13.573  23.498  0.00  0.00    +0.000 A 
ATOM     13  C   UNL     1       7.515  12.183  23.487  0.00  0.00    +0.000 A 
ATOM     14  C   UNL     1       7.500  11.502  24.703  0.00  0.00    +0.000 A 
ATOM     15  C   UNL     1       7.341  12.212  25.899  0.00  0.00    +0.000 A 
ATOM     16  C   UNL     1       7.288  13.611  25.899  0.00  0.00    +0.000 A 
ATOM     17  C   UNL     1       7.029  14.434  27.118  0.00  0.00    +0.000 C 
ATOM     18  C   UNL     1       7.404  14.288  24.692  0.00  0.00    +0.000 A 
ENDBRANCH  11  12
BRANCH   1  19
ATOM     19  C   UNL     1       9.545  14.543  21.843  0.00  0.00    +0.000 C 
BRANCH  19  23
ATOM     20  N   UNL     1      11.269  14.087  18.686  0.00  0.00    +0.000 N 
ATOM     21  C   UNL     1      11.352  14.717  19.949  0.00  0.00    +0.000 C 
ATOM     22  O   UNL     1      11.970  15.734  20.227  0.00  0.00    +0.000 OA
ATOM     23  C   UNL     1      10.597  13.842  20.963  0.00  0.00    +0.000 C 
ATOM     24  C   UNL     1      10.139  12.687  20.119  0.00  0.00    +0.000 A 
ATOM     25  C   UNL     1       9.559  11.492  20.522  0.00  0.00    +0.000 A 
ATOM     26  C   UNL     1       9.302  10.526  19.547  0.00  0.00    +0.000 A 
ATOM     27  C   UNL     1       9.575  10.789  18.195  0.00  0.00    +0.000 A 
ATOM     28  C   UNL     1      10.167  11.995  17.805  0.00  0.00    +0.000 A 
ATOM     29  C   UNL     1      10.505  12.907  18.786  0.00  0.00    +0.000 A 
BRANCH  20  30
ATOM     30  C   UNL     1      11.611  14.783  17.455  0.00  0.00    +0.000 C 
BRANCH  30  32
ATOM     31  C   UNL     1       9.429  16.239  17.450  0.00  0.00    +0.000 C 
ATOM     32  C   UNL     1      10.885  16.077  17.032  0.00  0.00    +0.000 C 
ENDBRANCH  30  32
ENDBRANCH  20  30
ENDBRANCH  19  23
ENDBRANCH   1  19
TORSDOF 5
ENDMDL
MODEL 8
REMARK VINA RESULT:      -7.7      7.500     11.374
REMARK  Name = 
REMARK  7 active torsions:
REMARK  status: ('A' for Active; 'I' for Inactive)
REMARK    1  A    between atoms: C_1  and  C_2
REMARK    2  A    between atoms: C_2  and  C_3
REMARK    3  A    between atoms: C_3  and  N_4
REMARK    4  A    between atoms: C_7  and  C_8
REMARK    5  A    between atoms: C_8  and  C_9
REMARK    6  A    between atoms: N_19  and  C_20
REMARK    7  A    between atoms: C_24  and  C_25
REMARK                            x       y       z     vdW  Elec       q    Type
REMARK                         _______ _______ _______ _____ _____    ______ ____
ROOT
ATOM      1  C   UNL     1      -1.036  13.075  19.749  0.00  0.00    +0.000 A 
ATOM      2  N   UNL     1      -0.870  14.222  19.164  0.00  0.00    +0.000 NA
ATOM      3  C   UNL     1       0.430  14.771  19.139  0.00  0.00    +0.000 A 
ATOM      4  C   UNL     1       0.687  15.871  18.327  0.00  0.00    +0.000 A 
ATOM      5  C   UNL     1       1.969  16.430  18.263  0.00  0.00    +0.000 A 
ATOM      6  C   UNL     1       3.013  15.917  19.034  0.00  0.00    +0.000 A 
ATOM      7  C   UNL     1       2.777  14.817  19.846  0.00  0.00    +0.000 A 
ATOM      8  C   UNL     1       1.493  14.252  19.871  0.00  0.00    +0.000 A 
ATOM      9  C   UNL     1       1.262  13.020  20.603  0.00  0.00    +0.000 A 
ATOM     10  O   UNL     1       2.130  12.599  21.375  0.00  0.00    +0.000 OA
ATOM     11  N   UNL     1       0.031  12.392  20.355  0.00  0.00    +0.000 N 
ENDROOT
BRANCH  11  12
ATOM     12  C   UNL     1      -0.188  11.185  21.044  0.00  0.00    +0.000 A 
ATOM     13  C   UNL     1      -0.724  11.180  22.331  0.00  0.00    +0.000 A 
ATOM     14  C   UNL     1      -0.589  10.030  23.106  0.00  0.00    +0.000 A 
ATOM     15  C   UNL     1       0.106   8.925  22.601  0.00  0.00    +0.000 A 
ATOM     16  C   UNL     1       0.592   8.924  21.288  0.00  0.00    +0.000 A 
ATOM     17  C   UNL     1       1.421   7.825  20.708  0.00  0.00    +0.000 C 
ATOM     18  C   UNL     1       0.368  10.037  20.488  0.00  0.00    +0.000 A 
ENDBRANCH  11  12
BRANCH   1  19
ATOM     19  C   UNL     1      -2.431  12.381  19.709  0.00  0.00    +0.000 C 
BRANCH  19  23
ATOM     20  N   UNL     1      -5.143  13.285  21.940  0.00  0.00    +0.000 N 
ATOM     21  C   UNL     1      -3.914  13.731  21.401  0.00  0.00    +0.000 C 
ATOM     22  O   UNL     1      -3.135  14.528  21.902  0.00  0.00    +0.000 OA
ATOM     23  C   UNL     1      -3.757  13.106  20.005  0.00  0.00    +0.000 C 
ATOM     24  C   UNL     1      -5.028  12.319  19.855  0.00  0.00    +0.000 A 
ATOM     25  C   UNL     1      -5.530  11.685  18.727  0.00  0.00    +0.000 A 
ATOM     26  C   UNL     1      -6.790  11.089  18.816  0.00  0.00    +0.000 A 
ATOM     27  C   UNL     1      -7.493  11.089  20.031  0.00  0.00    +0.000 A 
ATOM     28  C   UNL     1      -6.978  11.738  21.158  0.00  0.00    +0.000 A 
ATOM     29  C   UNL     1      -5.775  12.408  21.035  0.00  0.00    +0.000 A 
BRANCH  20  30
ATOM     30  C   UNL     1      -5.465  13.438  23.351  0.00  0.00    +0.000 C 
BRANCH  30  32
ATOM     31  C   UNL     1      -7.916  13.883  24.175  0.00  0.00    +0.000 C 
ATOM     32  C   UNL     1      -6.540  14.437  23.828  0.00  0.00    +0.000 C 
ENDBRANCH  30  32
ENDBRANCH  20  30
ENDBRANCH  19  23
ENDBRANCH   1  19
TORSDOF 5
ENDMDL
MODEL 9
REMARK VINA RESULT:      -7.6      7.073     10.952
REMARK  Name = 
REMARK  7 active torsions:
REMARK  status: ('A' for Active; 'I' for Inactive)
REMARK    1  A    between atoms: C_1  and  C_2
REMARK    2  A    between atoms: C_2  and  C_3
REMARK    3  A    between atoms: C_3  and  N_4
REMARK    4  A    between atoms: C_7  and  C_8
REMARK    5  A    between atoms: C_8  and  C_9
REMARK    6  A    between atoms: N_19  and  C_20
REMARK    7  A    between atoms: C_24  and  C_25
REMARK                            x       y       z     vdW  Elec       q    Type
REMARK                         _______ _______ _______ _____ _____    ______ ____
ROOT
ATOM      1  C   UNL     1      -0.080  13.435  18.601  0.00  0.00    +0.000 A 
ATOM      2  N   UNL     1      -0.417  14.688  18.606  0.00  0.00    +0.000 NA
ATOM      3  C   UNL     1       0.497  15.619  19.144  0.00  0.00    +0.000 A 
ATOM      4  C   UNL     1       0.272  16.979  18.954  0.00  0.00    +0.000 A 
ATOM      5  C   UNL     1       1.168  17.930  19.457  0.00  0.00    +0.000 A 
ATOM      6  C   UNL     1       2.292  17.539  20.187  0.00  0.00    +0.000 A 
ATOM      7  C   UNL     1       2.535  16.187  20.383  0.00  0.00    +0.000 A 
ATOM      8  C   UNL     1       1.642  15.249  19.842  0.00  0.00    +0.000 A 
ATOM      9  C   UNL     1       1.953  13.833  19.914  0.00  0.00    +0.000 A 
ATOM     10  O   UNL     1       2.878  13.450  20.638  0.00  0.00    +0.000 OA
ATOM     11  N   UNL     1       1.148  12.998  19.122  0.00  0.00    +0.000 N 
ENDROOT
BRANCH  11  12
ATOM     12  C   UNL     1       1.461  11.626  19.171  0.00  0.00    +0.000 A 
ATOM     13  C   UNL     1       2.020  10.978  18.071  0.00  0.00    +0.000 A 
ATOM     14  C   UNL     1       1.979   9.586  18.025  0.00  0.00    +0.000 A 
ATOM     15  C   UNL     1       1.352   8.871  19.051  0.00  0.00    +0.000 A 
ATOM     16  C   UNL     1       0.843   9.532  20.176  0.00  0.00    +0.000 A 
ATOM     17  C   UNL     1       0.081   8.853  21.266  0.00  0.00    +0.000 C 
ATOM     18  C   UNL     1       0.976  10.912  20.262  0.00  0.00    +0.000 A 
ENDBRANCH  11  12
BRANCH   1  19
ATOM     19  C   UNL     1      -1.011  12.385  17.923  0.00  0.00    +0.000 C 
BRANCH  19  23
ATOM     20  N   UNL     1      -4.545  11.969  18.623  0.00  0.00    +0.000 N 
ATOM     21  C   UNL     1      -3.472  11.479  17.842  0.00  0.00    +0.000 C 
ATOM     22  O   UNL     1      -3.544  10.923  16.756  0.00  0.00    +0.000 OA
ATOM     23  C   UNL     1      -2.175  11.680  18.643  0.00  0.00    +0.000 C 
ATOM     24  C   UNL     1      -2.674  12.291  19.922  0.00  0.00    +0.000 A 
ATOM     25  C   UNL     1      -1.980  12.530  21.100  0.00  0.00    +0.000 A 
ATOM     26  C   UNL     1      -2.692  13.030  22.192  0.00  0.00    +0.000 A 
ATOM     27  C   UNL     1      -4.059  13.330  22.072  0.00  0.00    +0.000 A 
ATOM     28  C   UNL     1      -4.747  13.078  20.881  0.00  0.00    +0.000 A 
ATOM     29  C   UNL     1      -4.056  12.495  19.836  0.00  0.00    +0.000 A 
BRANCH  20  30
ATOM     30  C   UNL     1      -5.862  12.210  18.055  0.00  0.00    +0.000 C 
BRANCH  30  32
ATOM     31  C   UNL     1      -6.814  10.015  19.134  0.00  0.00    +0.000 C 
ATOM     32  C   UNL     1      -7.082  11.353  18.457  0.00  0.00    +0.000 C 
ENDBRANCH  30  32
ENDBRANCH  20  30
ENDBRANCH  19  23
ENDBRANCH   1  19
TORSDOF 5
ENDMDL
