MODEL 1
REMARK VINA RESULT:      -7.8      0.000      0.000
REMARK  Name = 
REMARK  6 active torsions:
REMARK  status: ('A' for Active; 'I' for Inactive)
REMARK    1  A    between atoms: C_1  and  S_2
REMARK    2  A    between atoms: S_2  and  C_5
REMARK    3  A    between atoms: C_8  and  C_9
REMARK    4  A    between atoms: N_13  and  C_14
REMARK    5  A    between atoms: C_17  and  S_18
REMARK    6  A    between atoms: S_18  and  C_19
REMARK                            x       y       z     vdW  Elec       q    Type
REMARK                         _______ _______ _______ _____ _____    ______ ____
ROOT
ATOM      1  C   UNL     1       2.557   4.636  20.673  0.00  0.00    +0.000 A 
ATOM      2  C   UNL     1       2.163   3.934  21.805  0.00  0.00    +0.000 A 
ATOM      3  N   UNL     1       2.586   2.636  21.780  0.00  0.00    +0.000 NA
ATOM      4  C   UNL     1       3.254   2.524  20.659  0.00  0.00    +0.000 A 
ATOM      5  N   UNL     1       3.351   3.716  19.973  0.00  0.00    +0.000 N 
ENDROOT
BRANCH   1   9
ATOM      6  C   UNL     1       1.508   8.628  19.532  0.00  0.00    +0.000 A 
ATOM      7  C   UNL     1       1.056   8.116  20.749  0.00  0.00    +0.000 A 
ATOM      8  C   UNL     1       1.395   6.806  21.112  0.00  0.00    +0.000 A 
ATOM      9  C   UNL     1       2.154   5.991  20.256  0.00  0.00    +0.000 A 
ATOM     10  C   UNL     1       2.483   6.498  18.988  0.00  0.00    +0.000 A 
ATOM     11  C   UNL     1       2.203   7.820  18.639  0.00  0.00    +0.000 A 
BRANCH   6  13
ATOM     12  C   UNL     1      -0.448  10.204  18.339  0.00  0.00    +0.000 C 
ATOM     13  S   UNL     1       1.159  10.312  19.086  0.00  0.00    +0.000 S 
ATOM     14  O   UNL     1       2.112  10.696  18.062  0.00  0.00    +0.000 OA
ATOM     15  O   UNL     1       1.033  11.072  20.311  0.00  0.00    +0.000 OA
ENDBRANCH   6  13
ENDBRANCH   1   9
BRANCH   5  16
ATOM     16  C   UNL     1       4.122   3.907  18.788  0.00  0.00    +0.000 A 
ATOM     17  C   UNL     1       3.567   3.605  17.535  0.00  0.00    +0.000 A 
ATOM     18  C   UNL     1       4.272   3.914  16.366  0.00  0.00    +0.000 A 
ATOM     19  C   UNL     1       5.529   4.519  16.456  0.00  0.00    +0.000 A 
ATOM     20  C   UNL     1       6.119   4.754  17.698  0.00  0.00    +0.000 A 
ATOM     21  C   UNL     1       5.421   4.431  18.863  0.00  0.00    +0.000 A 
BRANCH  19  22
ATOM     22  S   UNL     1       6.415   4.948  14.976  0.00  0.00    +0.000 S 
ATOM     23  C   UNL     1       6.020   3.625  13.858  0.00  0.00    +0.000 C 
ATOM     24  O   UNL     1       5.824   6.166  14.456  0.00  0.00    +0.000 OA
ATOM     25  O   UNL     1       7.830   4.874  15.281  0.00  0.00    +0.000 OA
ENDBRANCH  19  22
ENDBRANCH   5  16
TORSDOF 4
ENDMDL
MODEL 2
REMARK VINA RESULT:      -7.8      0.742      1.310
REMARK  Name = 
REMARK  6 active torsions:
REMARK  status: ('A' for Active; 'I' for Inactive)
REMARK    1  A    between atoms: C_1  and  S_2
REMARK    2  A    between atoms: S_2  and  C_5
REMARK    3  A    between atoms: C_8  and  C_9
REMARK    4  A    between atoms: N_13  and  C_14
REMARK    5  A    between atoms: C_17  and  S_18
REMARK    6  A    between atoms: S_18  and  C_19
REMARK                            x       y       z     vdW  Elec       q    Type
REMARK                         _______ _______ _______ _____ _____    ______ ____
ROOT
ATOM      1  C   UNL     1       2.482   4.722  20.634  0.00  0.00    +0.000 A 
ATOM      2  C   UNL     1       1.995   4.026  21.734  0.00  0.00    +0.000 A 
ATOM      3  N   UNL     1       2.332   2.705  21.699  0.00  0.00    +0.000 NA
ATOM      4  C   UNL     1       3.038   2.569  20.604  0.00  0.00    +0.000 A 
ATOM      5  N   UNL     1       3.243   3.764  19.948  0.00  0.00    +0.000 N 
ENDROOT
BRANCH   1   9
ATOM      6  C   UNL     1       1.495   8.700  19.393  0.00  0.00    +0.000 A 
ATOM      7  C   UNL     1       2.223   7.870  18.539  0.00  0.00    +0.000 A 
ATOM      8  C   UNL     1       2.550   6.573  18.955  0.00  0.00    +0.000 A 
ATOM      9  C   UNL     1       2.186   6.108  20.230  0.00  0.00    +0.000 A 
ATOM     10  C   UNL     1       1.565   7.013  21.106  0.00  0.00    +0.000 A 
ATOM     11  C   UNL     1       1.180   8.286  20.683  0.00  0.00    +0.000 A 
BRANCH   6  13
ATOM     12  C   UNL     1       0.831  11.212  20.383  0.00  0.00    +0.000 C 
ATOM     13  S   UNL     1       0.999  10.320  18.858  0.00  0.00    +0.000 S 
ATOM     14  O   UNL     1      -0.315  10.195  18.257  0.00  0.00    +0.000 OA
ATOM     15  O   UNL     1       2.104  10.895  18.122  0.00  0.00    +0.000 OA
ENDBRANCH   6  13
ENDBRANCH   1   9
BRANCH   5  16
ATOM     16  C   UNL     1       4.075   3.926  18.801  0.00  0.00    +0.000 A 
ATOM     17  C   UNL     1       3.586   3.591  17.528  0.00  0.00    +0.000 A 
ATOM     18  C   UNL     1       4.351   3.871  16.391  0.00  0.00    +0.000 A 
ATOM     19  C   UNL     1       5.601   4.479  16.531  0.00  0.00    +0.000 A 
ATOM     20  C   UNL     1       6.126   4.746  17.795  0.00  0.00    +0.000 A 
ATOM     21  C   UNL     1       5.368   4.452  18.929  0.00  0.00    +0.000 A 
BRANCH  19  22
ATOM     22  S   UNL     1       6.563   4.871  15.088  0.00  0.00    +0.000 S 
ATOM     23  C   UNL     1       6.131   3.586  13.940  0.00  0.00    +0.000 C 
ATOM     24  O   UNL     1       6.064   6.127  14.564  0.00  0.00    +0.000 OA
ATOM     25  O   UNL     1       7.959   4.709  15.441  0.00  0.00    +0.000 OA
ENDBRANCH  19  22
ENDBRANCH   5  16
TORSDOF 4
ENDMDL
MODEL 3
REMARK VINA RESULT:      -7.4      0.411      6.394
REMARK  Name = 
REMARK  6 active torsions:
REMARK  status: ('A' for Active; 'I' for Inactive)
REMARK    1  A    between atoms: C_1  and  S_2
REMARK    2  A    between atoms: S_2  and  C_5
REMARK    3  A    between atoms: C_8  and  C_9
REMARK    4  A    between atoms: N_13  and  C_14
REMARK    5  A    between atoms: C_17  and  S_18
REMARK    6  A    between atoms: S_18  and  C_19
REMARK                            x       y       z     vdW  Elec       q    Type
REMARK                         _______ _______ _______ _____ _____    ______ ____
ROOT
ATOM      1  C   UNL     1       3.342   3.684  19.918  0.00  0.00    +0.000 A 
ATOM      2  C   UNL     1       3.277   2.547  20.713  0.00  0.00    +0.000 A 
ATOM      3  N   UNL     1       2.555   2.753  21.852  0.00  0.00    +0.000 NA
ATOM      4  C   UNL     1       2.152   3.998  21.771  0.00  0.00    +0.000 A 
ATOM      5  N   UNL     1       2.519   4.603  20.588  0.00  0.00    +0.000 N 
ENDROOT
BRANCH   1   9
ATOM      6  C   UNL     1       5.645   4.463  16.393  0.00  0.00    +0.000 A 
ATOM      7  C   UNL     1       4.439   3.769  16.291  0.00  0.00    +0.000 A 
ATOM      8  C   UNL     1       3.695   3.509  17.449  0.00  0.00    +0.000 A 
ATOM      9  C   UNL     1       4.160   3.908  18.713  0.00  0.00    +0.000 A 
ATOM     10  C   UNL     1       5.435   4.492  18.789  0.00  0.00    +0.000 A 
ATOM     11  C   UNL     1       6.158   4.810  17.638  0.00  0.00    +0.000 A 
BRANCH   6  13
ATOM     12  C   UNL     1       6.129   3.577  13.802  0.00  0.00    +0.000 C 
ATOM     13  S   UNL     1       6.567   4.875  14.931  0.00  0.00    +0.000 S 
ATOM     14  O   UNL     1       7.975   4.742  15.254  0.00  0.00    +0.000 OA
ATOM     15  O   UNL     1       6.034   6.117  14.414  0.00  0.00    +0.000 OA
ENDBRANCH   6  13
ENDBRANCH   1   9
BRANCH   5  16
ATOM     16  C   UNL     1       2.111   5.908  20.185  0.00  0.00    +0.000 A 
ATOM     17  C   UNL     1       1.466   6.754  21.102  0.00  0.00    +0.000 A 
ATOM     18  C   UNL     1       1.183   8.078  20.750  0.00  0.00    +0.000 A 
ATOM     19  C   UNL     1       1.541   8.549  19.484  0.00  0.00    +0.000 A 
ATOM     20  C   UNL     1       2.113   7.695  18.542  0.00  0.00    +0.000 A 
ATOM     21  C   UNL     1       2.382   6.370  18.889  0.00  0.00    +0.000 A 
BRANCH  19  22
ATOM     22  S   UNL     1       1.217  10.241  19.043  0.00  0.00    +0.000 S 
ATOM     23  C   UNL     1      -0.391  10.172  18.291  0.00  0.00    +0.000 C 
ATOM     24  O   UNL     1       1.104  10.995  20.276  0.00  0.00    +0.000 OA
ATOM     25  O   UNL     1       2.176  10.614  18.023  0.00  0.00    +0.000 OA
ENDBRANCH  19  22
ENDBRANCH   5  16
TORSDOF 4
ENDMDL
MODEL 4
REMARK VINA RESULT:      -7.3      0.864      6.488
REMARK  Name = 
REMARK  6 active torsions:
REMARK  status: ('A' for Active; 'I' for Inactive)
REMARK    1  A    between atoms: C_1  and  S_2
REMARK    2  A    between atoms: S_2  and  C_5
REMARK    3  A    between atoms: C_8  and  C_9
REMARK    4  A    between atoms: N_13  and  C_14
REMARK    5  A    between atoms: C_17  and  S_18
REMARK    6  A    between atoms: S_18  and  C_19
REMARK                            x       y       z     vdW  Elec       q    Type
REMARK                         _______ _______ _______ _____ _____    ______ ____
ROOT
ATOM      1  C   UNL     1       3.165   3.779  19.821  0.00  0.00    +0.000 A 
ATOM      2  C   UNL     1       2.961   2.615  20.552  0.00  0.00    +0.000 A 
ATOM      3  N   UNL     1       2.252   2.842  21.695  0.00  0.00    +0.000 NA
ATOM      4  C   UNL     1       1.994   4.126  21.679  0.00  0.00    +0.000 A 
ATOM      5  N   UNL     1       2.443   4.748  20.534  0.00  0.00    +0.000 N 
ENDROOT
BRANCH   1   9
ATOM      6  C   UNL     1       5.582   4.475  16.354  0.00  0.00    +0.000 A 
ATOM      7  C   UNL     1       4.335   3.864  16.216  0.00  0.00    +0.000 A 
ATOM      8  C   UNL     1       3.553   3.631  17.355  0.00  0.00    +0.000 A 
ATOM      9  C   UNL     1       4.020   3.972  18.636  0.00  0.00    +0.000 A 
ATOM     10  C   UNL     1       5.328   4.470  18.746  0.00  0.00    +0.000 A 
ATOM     11  C   UNL     1       6.092   4.763  17.616  0.00  0.00    +0.000 A 
BRANCH   6  13
ATOM     12  C   UNL     1       6.107   3.570  13.778  0.00  0.00    +0.000 C 
ATOM     13  S   UNL     1       6.556   4.854  14.919  0.00  0.00    +0.000 S 
ATOM     14  O   UNL     1       7.950   4.676  15.280  0.00  0.00    +0.000 OA
ATOM     15  O   UNL     1       6.079   6.113  14.386  0.00  0.00    +0.000 OA
ENDBRANCH   6  13
ENDBRANCH   1   9
BRANCH   5  16
ATOM     16  C   UNL     1       2.190   6.111  20.201  0.00  0.00    +0.000 A 
ATOM     17  C   UNL     1       2.586   6.611  18.950  0.00  0.00    +0.000 A 
ATOM     18  C   UNL     1       2.223   7.908  18.570  0.00  0.00    +0.000 A 
ATOM     19  C   UNL     1       1.472   8.700  19.443  0.00  0.00    +0.000 A 
ATOM     20  C   UNL     1       1.140   8.238  20.717  0.00  0.00    +0.000 A 
ATOM     21  C   UNL     1       1.515   6.950  21.100  0.00  0.00    +0.000 A 
BRANCH  19  22
ATOM     22  S   UNL     1       0.977  10.336  18.954  0.00  0.00    +0.000 S 
ATOM     23  C   UNL     1       0.873  11.216  20.493  0.00  0.00    +0.000 C 
ATOM     24  O   UNL     1       2.066  10.905  18.185  0.00  0.00    +0.000 OA
ATOM     25  O   UNL     1      -0.358  10.237  18.400  0.00  0.00    +0.000 OA
ENDBRANCH  19  22
ENDBRANCH   5  16
TORSDOF 4
ENDMDL
MODEL 5
REMARK VINA RESULT:      -7.2      1.139      1.773
REMARK  Name = 
REMARK  6 active torsions:
REMARK  status: ('A' for Active; 'I' for Inactive)
REMARK    1  A    between atoms: C_1  and  S_2
REMARK    2  A    between atoms: S_2  and  C_5
REMARK    3  A    between atoms: C_8  and  C_9
REMARK    4  A    between atoms: N_13  and  C_14
REMARK    5  A    between atoms: C_17  and  S_18
REMARK    6  A    between atoms: S_18  and  C_19
REMARK                            x       y       z     vdW  Elec       q    Type
REMARK                         _______ _______ _______ _____ _____    ______ ____
ROOT
ATOM      1  C   UNL     1       1.710   4.965  20.409  0.00  0.00    +0.000 A 
ATOM      2  C   UNL     1       0.942   4.090  21.167  0.00  0.00    +0.000 A 
ATOM      3  N   UNL     1       1.211   2.784  20.879  0.00  0.00    +0.000 NA
ATOM      4  C   UNL     1       2.149   2.830  19.966  0.00  0.00    +0.000 A 
ATOM      5  N   UNL     1       2.564   4.115  19.689  0.00  0.00    +0.000 N 
ENDROOT
BRANCH   1   9
ATOM      6  C   UNL     1       1.227   9.204  20.043  0.00  0.00    +0.000 A 
ATOM      7  C   UNL     1       1.861   8.490  19.025  0.00  0.00    +0.000 A 
ATOM      8  C   UNL     1       2.024   7.105  19.155  0.00  0.00    +0.000 A 
ATOM      9  C   UNL     1       1.589   6.430  20.308  0.00  0.00    +0.000 A 
ATOM     10  C   UNL     1       1.070   7.199  21.362  0.00  0.00    +0.000 A 
ATOM     11  C   UNL     1       0.847   8.570  21.221  0.00  0.00    +0.000 A 
BRANCH   6  13
ATOM     12  C   UNL     1      -0.778  11.025  19.410  0.00  0.00    +0.000 C 
ATOM     13  S   UNL     1       0.936  10.947  19.866  0.00  0.00    +0.000 S 
ATOM     14  O   UNL     1       1.728  11.407  18.740  0.00  0.00    +0.000 OA
ATOM     15  O   UNL     1       1.080  11.550  21.174  0.00  0.00    +0.000 OA
ENDBRANCH   6  13
ENDBRANCH   1   9
BRANCH   5  16
ATOM     16  C   UNL     1       3.651   4.448  18.829  0.00  0.00    +0.000 A 
ATOM     17  C   UNL     1       4.825   5.000  19.366  0.00  0.00    +0.000 A 
ATOM     18  C   UNL     1       5.939   5.204  18.544  0.00  0.00    +0.000 A 
ATOM     19  C   UNL     1       5.874   4.860  17.191  0.00  0.00    +0.000 A 
ATOM     20  C   UNL     1       4.688   4.382  16.635  0.00  0.00    +0.000 A 
ATOM     21  C   UNL     1       3.573   4.193  17.452  0.00  0.00    +0.000 A 
BRANCH  19  22
ATOM     22  S   UNL     1       7.297   5.083  16.149  0.00  0.00    +0.000 S 
ATOM     23  C   UNL     1       6.697   4.660  14.532  0.00  0.00    +0.000 C 
ATOM     24  O   UNL     1       7.618   6.497  16.153  0.00  0.00    +0.000 OA
ATOM     25  O   UNL     1       8.279   4.092  16.539  0.00  0.00    +0.000 OA
ENDBRANCH  19  22
ENDBRANCH   5  16
TORSDOF 4
ENDMDL
MODEL 6
REMARK VINA RESULT:      -7.1      0.400      1.047
REMARK  Name = 
REMARK  6 active torsions:
REMARK  status: ('A' for Active; 'I' for Inactive)
REMARK    1  A    between atoms: C_1  and  S_2
REMARK    2  A    between atoms: S_2  and  C_5
REMARK    3  A    between atoms: C_8  and  C_9
REMARK    4  A    between atoms: N_13  and  C_14
REMARK    5  A    between atoms: C_17  and  S_18
REMARK    6  A    between atoms: S_18  and  C_19
REMARK                            x       y       z     vdW  Elec       q    Type
REMARK                         _______ _______ _______ _____ _____    ______ ____
ROOT
ATOM      1  C   UNL     1       2.465   4.760  20.621  0.00  0.00    +0.000 A 
ATOM      2  C   UNL     1       2.099   3.946  21.686  0.00  0.00    +0.000 A 
ATOM      3  N   UNL     1       2.545   2.666  21.533  0.00  0.00    +0.000 NA
ATOM      4  C   UNL     1       3.200   2.674  20.398  0.00  0.00    +0.000 A 
ATOM      5  N   UNL     1       3.266   3.927  19.827  0.00  0.00    +0.000 N 
ENDROOT
BRANCH   1   9
ATOM      6  C   UNL     1       1.325   8.822  19.879  0.00  0.00    +0.000 A 
ATOM      7  C   UNL     1       0.890   8.183  21.041  0.00  0.00    +0.000 A 
ATOM      8  C   UNL     1       1.259   6.851  21.274  0.00  0.00    +0.000 A 
ATOM      9  C   UNL     1       2.031   6.140  20.340  0.00  0.00    +0.000 A 
ATOM     10  C   UNL     1       2.344   6.776  19.127  0.00  0.00    +0.000 A 
ATOM     11  C   UNL     1       2.035   8.120  18.910  0.00  0.00    +0.000 A 
BRANCH   6  13
ATOM     12  C   UNL     1      -0.779  10.488  19.155  0.00  0.00    +0.000 C 
ATOM     13  S   UNL     1       0.939  10.532  19.601  0.00  0.00    +0.000 S 
ATOM     14  O   UNL     1       1.699  10.967  18.444  0.00  0.00    +0.000 OA
ATOM     15  O   UNL     1       1.054  11.219  20.870  0.00  0.00    +0.000 OA
ENDBRANCH   6  13
ENDBRANCH   1   9
BRANCH   5  16
ATOM     16  C   UNL     1       4.017   4.245  18.658  0.00  0.00    +0.000 A 
ATOM     17  C   UNL     1       5.248   4.911  18.775  0.00  0.00    +0.000 A 
ATOM     18  C   UNL     1       6.047   5.107  17.643  0.00  0.00    +0.000 A 
ATOM     19  C   UNL     1       5.611   4.641  16.400  0.00  0.00    +0.000 A 
ATOM     20  C   UNL     1       4.357   4.046  16.262  0.00  0.00    +0.000 A 
ATOM     21  C   UNL     1       3.555   3.865  17.389  0.00  0.00    +0.000 A 
BRANCH  19  22
ATOM     22  S   UNL     1       6.637   4.854  14.964  0.00  0.00    +0.000 S 
ATOM     23  C   UNL     1       6.149   3.515  13.904  0.00  0.00    +0.000 C 
ATOM     24  O   UNL     1       6.239   6.096  14.330  0.00  0.00    +0.000 OA
ATOM     25  O   UNL     1       8.008   4.629  15.373  0.00  0.00    +0.000 OA
ENDBRANCH  19  22
ENDBRANCH   5  16
TORSDOF 4
ENDMDL
MODEL 7
REMARK VINA RESULT:      -6.9      0.519      6.529
REMARK  Name = 
REMARK  6 active torsions:
REMARK  status: ('A' for Active; 'I' for Inactive)
REMARK    1  A    between atoms: C_1  and  S_2
REMARK    2  A    between atoms: S_2  and  C_5
REMARK    3  A    between atoms: C_8  and  C_9
REMARK    4  A    between atoms: N_13  and  C_14
REMARK    5  A    between atoms: C_17  and  S_18
REMARK    6  A    between atoms: S_18  and  C_19
REMARK                            x       y       z     vdW  Elec       q    Type
REMARK                         _______ _______ _______ _____ _____    ______ ____
ROOT
ATOM      1  C   UNL     1       3.231   3.883  19.885  0.00  0.00    +0.000 A 
ATOM      2  C   UNL     1       3.188   2.697  20.607  0.00  0.00    +0.000 A 
ATOM      3  N   UNL     1       2.486   2.825  21.770  0.00  0.00    +0.000 NA
ATOM      4  C   UNL     1       2.074   4.068  21.776  0.00  0.00    +0.000 A 
ATOM      5  N   UNL     1       2.414   4.750  20.627  0.00  0.00    +0.000 N 
ENDROOT
BRANCH   1   9
ATOM      6  C   UNL     1       5.617   4.644  16.412  0.00  0.00    +0.000 A 
ATOM      7  C   UNL     1       6.049   5.095  17.660  0.00  0.00    +0.000 A 
ATOM      8  C   UNL     1       5.260   4.850  18.791  0.00  0.00    +0.000 A 
ATOM      9  C   UNL     1       4.025   4.189  18.682  0.00  0.00    +0.000 A 
ATOM     10  C   UNL     1       3.566   3.862  17.396  0.00  0.00    +0.000 A 
ATOM     11  C   UNL     1       4.370   4.045  16.269  0.00  0.00    +0.000 A 
BRANCH   6  13
ATOM     12  C   UNL     1       6.139   3.537  13.915  0.00  0.00    +0.000 C 
ATOM     13  S   UNL     1       6.637   4.870  14.976  0.00  0.00    +0.000 S 
ATOM     14  O   UNL     1       8.012   4.642  15.380  0.00  0.00    +0.000 OA
ATOM     15  O   UNL     1       6.241   6.114  14.349  0.00  0.00    +0.000 OA
ENDBRANCH   6  13
ENDBRANCH   1   9
BRANCH   5  16
ATOM     16  C   UNL     1       1.989   6.075  20.316  0.00  0.00    +0.000 A 
ATOM     17  C   UNL     1       1.229   6.803  21.245  0.00  0.00    +0.000 A 
ATOM     18  C   UNL     1       0.923   8.146  20.998  0.00  0.00    +0.000 A 
ATOM     19  C   UNL     1       1.374   8.753  19.823  0.00  0.00    +0.000 A 
ATOM     20  C   UNL     1       2.065   8.017  18.861  0.00  0.00    +0.000 A 
ATOM     21  C   UNL     1       2.357   6.674  19.102  0.00  0.00    +0.000 A 
BRANCH  19  22
ATOM     22  S   UNL     1       1.021  10.469  19.519  0.00  0.00    +0.000 S 
ATOM     23  C   UNL     1      -0.672  10.454  18.981  0.00  0.00    +0.000 C 
ATOM     24  O   UNL     1       1.080  11.155  20.794  0.00  0.00    +0.000 OA
ATOM     25  O   UNL     1       1.844  10.890  18.404  0.00  0.00    +0.000 OA
ENDBRANCH  19  22
ENDBRANCH   5  16
TORSDOF 4
ENDMDL
MODEL 8
REMARK VINA RESULT:      -6.9      1.024      1.214
REMARK  Name = 
REMARK  6 active torsions:
REMARK  status: ('A' for Active; 'I' for Inactive)
REMARK    1  A    between atoms: C_1  and  S_2
REMARK    2  A    between atoms: S_2  and  C_5
REMARK    3  A    between atoms: C_8  and  C_9
REMARK    4  A    between atoms: N_13  and  C_14
REMARK    5  A    between atoms: C_17  and  S_18
REMARK    6  A    between atoms: S_18  and  C_19
REMARK                            x       y       z     vdW  Elec       q    Type
REMARK                         _______ _______ _______ _____ _____    ______ ____
ROOT
ATOM      1  C   UNL     1       2.550   4.574  20.740  0.00  0.00    +0.000 A 
ATOM      2  C   UNL     1       2.154   3.872  21.872  0.00  0.00    +0.000 A 
ATOM      3  N   UNL     1       2.613   2.587  21.869  0.00  0.00    +0.000 NA
ATOM      4  C   UNL     1       3.305   2.482  20.761  0.00  0.00    +0.000 A 
ATOM      5  N   UNL     1       3.382   3.669  20.064  0.00  0.00    +0.000 N 
ENDROOT
BRANCH   1   9
ATOM      6  C   UNL     1       1.415   8.523  19.533  0.00  0.00    +0.000 A 
ATOM      7  C   UNL     1       0.992   8.029  20.768  0.00  0.00    +0.000 A 
ATOM      8  C   UNL     1       1.359   6.733  21.153  0.00  0.00    +0.000 A 
ATOM      9  C   UNL     1       2.117   5.912  20.301  0.00  0.00    +0.000 A 
ATOM     10  C   UNL     1       2.417   6.397  19.018  0.00  0.00    +0.000 A 
ATOM     11  C   UNL     1       2.109   7.707  18.646  0.00  0.00    +0.000 A 
BRANCH   6  13
ATOM     12  C   UNL     1       2.353  10.606  17.949  0.00  0.00    +0.000 C 
ATOM     13  S   UNL     1       1.031  10.190  19.057  0.00  0.00    +0.000 S 
ATOM     14  O   UNL     1       1.151  11.018  20.242  0.00  0.00    +0.000 OA
ATOM     15  O   UNL     1      -0.199  10.154  18.293  0.00  0.00    +0.000 OA
ENDBRANCH   6  13
ENDBRANCH   1   9
BRANCH   5  16
ATOM     16  C   UNL     1       4.170   3.870  18.893  0.00  0.00    +0.000 A 
ATOM     17  C   UNL     1       3.711   3.402  17.651  0.00  0.00    +0.000 A 
ATOM     18  C   UNL     1       4.417   3.711  16.484  0.00  0.00    +0.000 A 
ATOM     19  C   UNL     1       5.580   4.483  16.563  0.00  0.00    +0.000 A 
ATOM     20  C   UNL     1       6.083   4.888  17.799  0.00  0.00    +0.000 A 
ATOM     21  C   UNL     1       5.386   4.565  18.964  0.00  0.00    +0.000 A 
BRANCH  19  22
ATOM     22  S   UNL     1       6.463   4.911  15.081  0.00  0.00    +0.000 S 
ATOM     23  C   UNL     1       5.427   6.139  14.322  0.00  0.00    +0.000 C 
ATOM     24  O   UNL     1       7.698   5.553  15.484  0.00  0.00    +0.000 OA
ATOM     25  O   UNL     1       6.472   3.740  14.228  0.00  0.00    +0.000 OA
ENDBRANCH  19  22
ENDBRANCH   5  16
TORSDOF 4
ENDMDL
MODEL 9
REMARK VINA RESULT:      -6.8      0.880      1.639
REMARK  Name = 
REMARK  6 active torsions:
REMARK  status: ('A' for Active; 'I' for Inactive)
REMARK    1  A    between atoms: C_1  and  S_2
REMARK    2  A    between atoms: S_2  and  C_5
REMARK    3  A    between atoms: C_8  and  C_9
REMARK    4  A    between atoms: N_13  and  C_14
REMARK    5  A    between atoms: C_17  and  S_18
REMARK    6  A    between atoms: S_18  and  C_19
REMARK                            x       y       z     vdW  Elec       q    Type
REMARK                         _______ _______ _______ _____ _____    ______ ____
ROOT
ATOM      1  C   UNL     1       2.391   4.996  20.537  0.00  0.00    +0.000 A 
ATOM      2  C   UNL     1       1.972   4.212  21.604  0.00  0.00    +0.000 A 
ATOM      3  N   UNL     1       2.358   2.910  21.471  0.00  0.00    +0.000 NA
ATOM      4  C   UNL     1       3.028   2.874  20.346  0.00  0.00    +0.000 A 
ATOM      5  N   UNL     1       3.163   4.116  19.763  0.00  0.00    +0.000 N 
ENDROOT
BRANCH   1   9
ATOM      6  C   UNL     1       1.209   9.004  19.599  0.00  0.00    +0.000 A 
ATOM      7  C   UNL     1       1.915   8.253  18.658  0.00  0.00    +0.000 A 
ATOM      8  C   UNL     1       2.307   6.946  18.975  0.00  0.00    +0.000 A 
ATOM      9  C   UNL     1       2.029   6.392  20.236  0.00  0.00    +0.000 A 
ATOM     10  C   UNL     1       1.428   7.220  21.198  0.00  0.00    +0.000 A 
ATOM     11  C   UNL     1       0.979   8.502  20.876  0.00  0.00    +0.000 A 
BRANCH   6  13
ATOM     12  C   UNL     1      -0.056  11.209  20.724  0.00  0.00    +0.000 C 
ATOM     13  S   UNL     1       0.632  10.633  19.193  0.00  0.00    +0.000 S 
ATOM     14  O   UNL     1      -0.448  10.485  18.235  0.00  0.00    +0.000 OA
ATOM     15  O   UNL     1       1.791  11.445  18.889  0.00  0.00    +0.000 OA
ENDBRANCH   6  13
ENDBRANCH   1   9
BRANCH   5  16
ATOM     16  C   UNL     1       3.945   4.385  18.602  0.00  0.00    +0.000 A 
ATOM     17  C   UNL     1       5.161   5.076  18.721  0.00  0.00    +0.000 A 
ATOM     18  C   UNL     1       5.991   5.226  17.605  0.00  0.00    +0.000 A 
ATOM     19  C   UNL     1       5.601   4.688  16.375  0.00  0.00    +0.000 A 
ATOM     20  C   UNL     1       4.361   4.066  16.231  0.00  0.00    +0.000 A 
ATOM     21  C   UNL     1       3.527   3.931  17.342  0.00  0.00    +0.000 A 
BRANCH  19  22
ATOM     22  S   UNL     1       6.667   4.843  14.961  0.00  0.00    +0.000 S 
ATOM     23  C   UNL     1       6.160   3.502  13.911  0.00  0.00    +0.000 C 
ATOM     24  O   UNL     1       6.327   6.086  14.298  0.00  0.00    +0.000 OA
ATOM     25  O   UNL     1       8.020   4.579  15.408  0.00  0.00    +0.000 OA
ENDBRANCH  19  22
ENDBRANCH   5  16
TORSDOF 4
ENDMDL
