MODEL 1
REMARK VINA RESULT:      -8.5      0.000      0.000
REMARK  Name = 
REMARK  2 active torsions:
REMARK  status: ('A' for Active; 'I' for Inactive)
REMARK    1  A    between atoms: C_1  and  N_2
REMARK    2  A    between atoms: C_5  and  C_7
REMARK                            x       y       z     vdW  Elec       q    Type
REMARK                         _______ _______ _______ _____ _____    ______ ____
ROOT
ATOM      1  C   UNL     1       4.036   7.003  17.158  0.00  0.00    +0.000 C 
ATOM      2  N   UNL     1       3.815   5.730  17.828  0.00  0.00    +0.000 N 
ATOM      3  C   UNL     1       4.050   4.498  17.269  0.00  0.00    +0.000 A 
ATOM      4  N   UNL     1       4.803   4.341  16.131  0.00  0.00    +0.000 N 
ATOM      5  C   UNL     1       5.867   5.101  15.650  0.00  0.00    +0.000 C 
ATOM      6  O   UNL     1       6.399   6.024  16.259  0.00  0.00    +0.000 OA
ATOM      7  N   UNL     1       3.570   3.391  17.745  0.00  0.00    +0.000 NA
ATOM      8  C   UNL     1       2.836   3.435  18.943  0.00  0.00    +0.000 A 
ATOM      9  C   UNL     1       2.275   2.268  19.463  0.00  0.00    +0.000 A 
ATOM     10  C   UNL     1       1.546   2.289  20.661  0.00  0.00    +0.000 A 
ATOM     11  C   UNL     1       1.376   3.484  21.360  0.00  0.00    +0.000 A 
ATOM     12  C   UNL     1       1.935   4.654  20.859  0.00  0.00    +0.000 A 
ATOM     13  C   UNL     1       2.658   4.619  19.659  0.00  0.00    +0.000 A 
ATOM     14  C   UNL     1       3.206   5.848  19.077  0.00  0.00    +0.000 A 
ATOM     15  O   UNL     1       3.074   6.907  19.688  0.00  0.00    +0.000 OA
ATOM     16  H   UNL     1       4.687   3.419  15.741  0.00  0.00    +0.000 HD
ENDROOT
BRANCH   5  17
ATOM     17  C   UNL     1       6.426   4.763  14.309  0.00  0.00    +0.000 A 
ATOM     18  C   UNL     1       5.749   3.775  13.572  0.00  0.00    +0.000 A 
ATOM     19  C   UNL     1       6.164   3.428  12.287  0.00  0.00    +0.000 A 
ATOM     20  C   UNL     1       7.257   4.075  11.718  0.00  0.00    +0.000 A 
ATOM     21  C   UNL     1       7.935   5.063  12.438  0.00  0.00    +0.000 A 
ATOM     22  C   UNL     1       7.526   5.408  13.735  0.00  0.00    +0.000 A 
ENDBRANCH   5  17
TORSDOF 1
ENDMDL
MODEL 2
REMARK VINA RESULT:      -8.3      1.296      7.176
REMARK  Name = 
REMARK  2 active torsions:
REMARK  status: ('A' for Active; 'I' for Inactive)
REMARK    1  A    between atoms: C_1  and  N_2
REMARK    2  A    between atoms: C_5  and  C_7
REMARK                            x       y       z     vdW  Elec       q    Type
REMARK                         _______ _______ _______ _____ _____    ______ ____
ROOT
ATOM      1  C   UNL     1       6.655   5.454  18.220  0.00  0.00    +0.000 C 
ATOM      2  N   UNL     1       6.226   5.090  16.878  0.00  0.00    +0.000 N 
ATOM      3  C   UNL     1       5.187   4.240  16.589  0.00  0.00    +0.000 A 
ATOM      4  N   UNL     1       4.251   3.882  17.528  0.00  0.00    +0.000 N 
ATOM      5  C   UNL     1       3.768   4.589  18.626  0.00  0.00    +0.000 C 
ATOM      6  O   UNL     1       4.043   5.757  18.881  0.00  0.00    +0.000 OA
ATOM      7  N   UNL     1       5.013   3.691  15.427  0.00  0.00    +0.000 NA
ATOM      8  C   UNL     1       5.880   4.039  14.379  0.00  0.00    +0.000 A 
ATOM      9  C   UNL     1       5.743   3.438  13.126  0.00  0.00    +0.000 A 
ATOM     10  C   UNL     1       6.594   3.780  12.065  0.00  0.00    +0.000 A 
ATOM     11  C   UNL     1       7.592   4.737  12.243  0.00  0.00    +0.000 A 
ATOM     12  C   UNL     1       7.738   5.350  13.482  0.00  0.00    +0.000 A 
ATOM     13  C   UNL     1       6.884   4.997  14.535  0.00  0.00    +0.000 A 
ATOM     14  C   UNL     1       7.053   5.583  15.868  0.00  0.00    +0.000 A 
ATOM     15  O   UNL     1       7.922   6.437  16.038  0.00  0.00    +0.000 OA
ATOM     16  H   UNL     1       3.705   3.093  17.216  0.00  0.00    +0.000 HD
ENDROOT
BRANCH   5  17
ATOM     17  C   UNL     1       2.829   3.896  19.554  0.00  0.00    +0.000 A 
ATOM     18  C   UNL     1       3.404   3.201  20.633  0.00  0.00    +0.000 A 
ATOM     19  C   UNL     1       2.605   2.565  21.584  0.00  0.00    +0.000 A 
ATOM     20  C   UNL     1       1.220   2.627  21.472  0.00  0.00    +0.000 A 
ATOM     21  C   UNL     1       0.636   3.319  20.407  0.00  0.00    +0.000 A 
ATOM     22  C   UNL     1       1.436   3.952  19.444  0.00  0.00    +0.000 A 
ENDBRANCH   5  17
TORSDOF 1
ENDMDL
MODEL 3
REMARK VINA RESULT:      -8.3      0.147      1.062
REMARK  Name = 
REMARK  2 active torsions:
REMARK  status: ('A' for Active; 'I' for Inactive)
REMARK    1  A    between atoms: C_1  and  N_2
REMARK    2  A    between atoms: C_5  and  C_7
REMARK                            x       y       z     vdW  Elec       q    Type
REMARK                         _______ _______ _______ _____ _____    ______ ____
ROOT
ATOM      1  C   UNL     1       3.891   6.962  17.152  0.00  0.00    +0.000 C 
ATOM      2  N   UNL     1       3.721   5.698  17.853  0.00  0.00    +0.000 N 
ATOM      3  C   UNL     1       3.959   4.461  17.307  0.00  0.00    +0.000 A 
ATOM      4  N   UNL     1       4.670   4.297  16.144  0.00  0.00    +0.000 N 
ATOM      5  C   UNL     1       5.698   5.068  15.607  0.00  0.00    +0.000 C 
ATOM      6  O   UNL     1       6.235   6.012  16.178  0.00  0.00    +0.000 OA
ATOM      7  N   UNL     1       3.520   3.354  17.823  0.00  0.00    +0.000 NA
ATOM      8  C   UNL     1       2.833   3.406  19.047  0.00  0.00    +0.000 A 
ATOM      9  C   UNL     1       2.315   2.238  19.609  0.00  0.00    +0.000 A 
ATOM     10  C   UNL     1       1.634   2.268  20.835  0.00  0.00    +0.000 A 
ATOM     11  C   UNL     1       1.468   3.472  21.519  0.00  0.00    +0.000 A 
ATOM     12  C   UNL     1       1.984   4.643  20.976  0.00  0.00    +0.000 A 
ATOM     13  C   UNL     1       2.659   4.599  19.748  0.00  0.00    +0.000 A 
ATOM     14  C   UNL     1       3.159   5.828  19.123  0.00  0.00    +0.000 A 
ATOM     15  O   UNL     1       3.030   6.895  19.720  0.00  0.00    +0.000 OA
ATOM     16  H   UNL     1       4.557   3.365  15.775  0.00  0.00    +0.000 HD
ENDROOT
BRANCH   5  17
ATOM     17  C   UNL     1       6.210   4.716  14.251  0.00  0.00    +0.000 A 
ATOM     18  C   UNL     1       7.362   5.393  13.815  0.00  0.00    +0.000 A 
ATOM     19  C   UNL     1       7.946   5.095  12.583  0.00  0.00    +0.000 A 
ATOM     20  C   UNL     1       7.388   4.107  11.778  0.00  0.00    +0.000 A 
ATOM     21  C   UNL     1       6.246   3.423  12.203  0.00  0.00    +0.000 A 
ATOM     22  C   UNL     1       5.651   3.726  13.437  0.00  0.00    +0.000 A 
ENDBRANCH   5  17
TORSDOF 1
ENDMDL
MODEL 4
REMARK VINA RESULT:      -8.2      1.307      7.131
REMARK  Name = 
REMARK  2 active torsions:
REMARK  status: ('A' for Active; 'I' for Inactive)
REMARK    1  A    between atoms: C_1  and  N_2
REMARK    2  A    between atoms: C_5  and  C_7
REMARK                            x       y       z     vdW  Elec       q    Type
REMARK                         _______ _______ _______ _____ _____    ______ ____
ROOT
ATOM      1  C   UNL     1       6.737   5.584  18.332  0.00  0.00    +0.000 C 
ATOM      2  N   UNL     1       6.283   5.181  17.010  0.00  0.00    +0.000 N 
ATOM      3  C   UNL     1       5.257   4.302  16.766  0.00  0.00    +0.000 A 
ATOM      4  N   UNL     1       4.353   3.944  17.736  0.00  0.00    +0.000 N 
ATOM      5  C   UNL     1       3.881   4.664  18.830  0.00  0.00    +0.000 C 
ATOM      6  O   UNL     1       4.137   5.843  19.053  0.00  0.00    +0.000 OA
ATOM      7  N   UNL     1       5.066   3.723  15.620  0.00  0.00    +0.000 NA
ATOM      8  C   UNL     1       5.899   4.068  14.543  0.00  0.00    +0.000 A 
ATOM      9  C   UNL     1       5.744   3.437  13.308  0.00  0.00    +0.000 A 
ATOM     10  C   UNL     1       6.560   3.773  12.218  0.00  0.00    +0.000 A 
ATOM     11  C   UNL     1       7.540   4.756  12.350  0.00  0.00    +0.000 A 
ATOM     12  C   UNL     1       7.703   5.400  13.572  0.00  0.00    +0.000 A 
ATOM     13  C   UNL     1       6.884   5.051  14.653  0.00  0.00    +0.000 A 
ATOM     14  C   UNL     1       7.073   5.670  15.969  0.00  0.00    +0.000 A 
ATOM     15  O   UNL     1       7.926   6.546  16.098  0.00  0.00    +0.000 OA
ATOM     16  H   UNL     1       3.818   3.136  17.455  0.00  0.00    +0.000 HD
ENDROOT
BRANCH   5  17
ATOM     17  C   UNL     1       2.982   3.971  19.797  0.00  0.00    +0.000 A 
ATOM     18  C   UNL     1       1.601   4.177  19.636  0.00  0.00    +0.000 A 
ATOM     19  C   UNL     1       0.678   3.530  20.458  0.00  0.00    +0.000 A 
ATOM     20  C   UNL     1       1.128   2.660  21.446  0.00  0.00    +0.000 A 
ATOM     21  C   UNL     1       2.498   2.443  21.613  0.00  0.00    +0.000 A 
ATOM     22  C   UNL     1       3.430   3.098  20.794  0.00  0.00    +0.000 A 
ENDBRANCH   5  17
TORSDOF 1
ENDMDL
MODEL 5
REMARK VINA RESULT:      -7.8      1.939      3.061
REMARK  Name = 
REMARK  2 active torsions:
REMARK  status: ('A' for Active; 'I' for Inactive)
REMARK    1  A    between atoms: C_1  and  N_2
REMARK    2  A    between atoms: C_5  and  C_7
REMARK                            x       y       z     vdW  Elec       q    Type
REMARK                         _______ _______ _______ _____ _____    ______ ____
ROOT
ATOM      1  C   UNL     1       5.051   4.203  18.841  0.00  0.00    +0.000 C 
ATOM      2  N   UNL     1       4.093   5.271  18.598  0.00  0.00    +0.000 N 
ATOM      3  C   UNL     1       4.070   6.066  17.478  0.00  0.00    +0.000 A 
ATOM      4  N   UNL     1       4.758   5.740  16.335  0.00  0.00    +0.000 N 
ATOM      5  C   UNL     1       5.089   4.492  15.814  0.00  0.00    +0.000 C 
ATOM      6  O   UNL     1       4.703   3.420  16.269  0.00  0.00    +0.000 OA
ATOM      7  N   UNL     1       3.426   7.189  17.410  0.00  0.00    +0.000 NA
ATOM      8  C   UNL     1       2.640   7.584  18.506  0.00  0.00    +0.000 A 
ATOM      9  C   UNL     1       1.964   8.805  18.479  0.00  0.00    +0.000 A 
ATOM     10  C   UNL     1       1.167   9.213  19.559  0.00  0.00    +0.000 A 
ATOM     11  C   UNL     1       1.032   8.395  20.682  0.00  0.00    +0.000 A 
ATOM     12  C   UNL     1       1.693   7.173  20.721  0.00  0.00    +0.000 A 
ATOM     13  C   UNL     1       2.489   6.780  19.636  0.00  0.00    +0.000 A 
ATOM     14  C   UNL     1       3.245   5.525  19.677  0.00  0.00    +0.000 A 
ATOM     15  O   UNL     1       3.127   4.789  20.655  0.00  0.00    +0.000 OA
ATOM     16  H   UNL     1       4.814   6.527  15.707  0.00  0.00    +0.000 HD
ENDROOT
BRANCH   5  17
ATOM     17  C   UNL     1       5.956   4.440  14.602  0.00  0.00    +0.000 A 
ATOM     18  C   UNL     1       5.515   3.629  13.542  0.00  0.00    +0.000 A 
ATOM     19  C   UNL     1       6.231   3.557  12.347  0.00  0.00    +0.000 A 
ATOM     20  C   UNL     1       7.394   4.306  12.195  0.00  0.00    +0.000 A 
ATOM     21  C   UNL     1       7.840   5.120  13.239  0.00  0.00    +0.000 A 
ATOM     22  C   UNL     1       7.127   5.188  14.446  0.00  0.00    +0.000 A 
ENDBRANCH   5  17
TORSDOF 1
ENDMDL
MODEL 6
REMARK VINA RESULT:      -7.6      3.126      7.596
REMARK  Name = 
REMARK  2 active torsions:
REMARK  status: ('A' for Active; 'I' for Inactive)
REMARK    1  A    between atoms: C_1  and  N_2
REMARK    2  A    between atoms: C_5  and  C_7
REMARK                            x       y       z     vdW  Elec       q    Type
REMARK                         _______ _______ _______ _____ _____    ______ ____
ROOT
ATOM      1  C   UNL     1       1.500   4.513  18.841  0.00  0.00    +0.000 C 
ATOM      2  N   UNL     1       2.745   4.968  18.241  0.00  0.00    +0.000 N 
ATOM      3  C   UNL     1       3.137   6.281  18.146  0.00  0.00    +0.000 A 
ATOM      4  N   UNL     1       2.538   7.279  18.875  0.00  0.00    +0.000 N 
ATOM      5  C   UNL     1       1.936   7.233  20.130  0.00  0.00    +0.000 C 
ATOM      6  O   UNL     1       1.939   6.254  20.871  0.00  0.00    +0.000 OA
ATOM      7  N   UNL     1       4.078   6.693  17.353  0.00  0.00    +0.000 NA
ATOM      8  C   UNL     1       4.795   5.743  16.608  0.00  0.00    +0.000 A 
ATOM      9  C   UNL     1       5.789   6.156  15.718  0.00  0.00    +0.000 A 
ATOM     10  C   UNL     1       6.522   5.222  14.971  0.00  0.00    +0.000 A 
ATOM     11  C   UNL     1       6.274   3.857  15.112  0.00  0.00    +0.000 A 
ATOM     12  C   UNL     1       5.293   3.429  15.999  0.00  0.00    +0.000 A 
ATOM     13  C   UNL     1       4.565   4.373  16.736  0.00  0.00    +0.000 A 
ATOM     14  C   UNL     1       3.484   3.953  17.633  0.00  0.00    +0.000 A 
ATOM     15  O   UNL     1       3.261   2.752  17.777  0.00  0.00    +0.000 OA
ATOM     16  H   UNL     1       2.790   8.190  18.523  0.00  0.00    +0.000 HD
ENDROOT
BRANCH   5  17
ATOM     17  C   UNL     1       1.253   8.460  20.631  0.00  0.00    +0.000 A 
ATOM     18  C   UNL     1       0.906   9.427  19.672  0.00  0.00    +0.000 A 
ATOM     19  C   UNL     1       0.218  10.585  20.036  0.00  0.00    +0.000 A 
ATOM     20  C   UNL     1      -0.139  10.783  21.366  0.00  0.00    +0.000 A 
ATOM     21  C   UNL     1       0.196   9.827  22.329  0.00  0.00    +0.000 A 
ATOM     22  C   UNL     1       0.895   8.666  21.967  0.00  0.00    +0.000 A 
ENDBRANCH   5  17
TORSDOF 1
ENDMDL
MODEL 7
REMARK VINA RESULT:      -7.6      3.139      7.612
REMARK  Name = 
REMARK  2 active torsions:
REMARK  status: ('A' for Active; 'I' for Inactive)
REMARK    1  A    between atoms: C_1  and  N_2
REMARK    2  A    between atoms: C_5  and  C_7
REMARK                            x       y       z     vdW  Elec       q    Type
REMARK                         _______ _______ _______ _____ _____    ______ ____
ROOT
ATOM      1  C   UNL     1       1.507   4.525  18.847  0.00  0.00    +0.000 C 
ATOM      2  N   UNL     1       2.745   4.987  18.237  0.00  0.00    +0.000 N 
ATOM      3  C   UNL     1       3.116   6.304  18.113  0.00  0.00    +0.000 A 
ATOM      4  N   UNL     1       2.500   7.308  18.820  0.00  0.00    +0.000 N 
ATOM      5  C   UNL     1       1.897   7.279  20.075  0.00  0.00    +0.000 C 
ATOM      6  O   UNL     1       1.916   6.318  20.838  0.00  0.00    +0.000 OA
ATOM      7  N   UNL     1       4.050   6.713  17.312  0.00  0.00    +0.000 NA
ATOM      8  C   UNL     1       4.784   5.758  16.589  0.00  0.00    +0.000 A 
ATOM      9  C   UNL     1       5.771   6.167  15.690  0.00  0.00    +0.000 A 
ATOM     10  C   UNL     1       6.521   5.229  14.965  0.00  0.00    +0.000 A 
ATOM     11  C   UNL     1       6.294   3.863  15.137  0.00  0.00    +0.000 A 
ATOM     12  C   UNL     1       5.319   3.439  16.033  0.00  0.00    +0.000 A 
ATOM     13  C   UNL     1       4.576   4.387  16.748  0.00  0.00    +0.000 A 
ATOM     14  C   UNL     1       3.501   3.970  17.653  0.00  0.00    +0.000 A 
ATOM     15  O   UNL     1       3.297   2.769  17.824  0.00  0.00    +0.000 OA
ATOM     16  H   UNL     1       2.737   8.214  18.447  0.00  0.00    +0.000 HD
ENDROOT
BRANCH   5  17
ATOM     17  C   UNL     1       1.194   8.507  20.548  0.00  0.00    +0.000 A 
ATOM     18  C   UNL     1       0.887   8.571  21.919  0.00  0.00    +0.000 A 
ATOM     19  C   UNL     1       0.277   9.700  22.465  0.00  0.00    +0.000 A 
ATOM     20  C   UNL     1      -0.023  10.785  21.646  0.00  0.00    +0.000 A 
ATOM     21  C   UNL     1       0.282  10.735  20.283  0.00  0.00    +0.000 A 
ATOM     22  C   UNL     1       0.887   9.597  19.729  0.00  0.00    +0.000 A 
ENDBRANCH   5  17
TORSDOF 1
ENDMDL
MODEL 8
REMARK VINA RESULT:      -7.4      3.847      8.037
REMARK  Name = 
REMARK  2 active torsions:
REMARK  status: ('A' for Active; 'I' for Inactive)
REMARK    1  A    between atoms: C_1  and  N_2
REMARK    2  A    between atoms: C_5  and  C_7
REMARK                            x       y       z     vdW  Elec       q    Type
REMARK                         _______ _______ _______ _____ _____    ______ ____
ROOT
ATOM      1  C   UNL     1       1.561   5.455  20.486  0.00  0.00    +0.000 C 
ATOM      2  N   UNL     1       2.568   5.898  19.534  0.00  0.00    +0.000 N 
ATOM      3  C   UNL     1       2.567   7.118  18.901  0.00  0.00    +0.000 A 
ATOM      4  N   UNL     1       1.785   8.163  19.327  0.00  0.00    +0.000 N 
ATOM      5  C   UNL     1       1.340   8.485  20.606  0.00  0.00    +0.000 C 
ATOM      6  O   UNL     1       1.685   7.908  21.633  0.00  0.00    +0.000 OA
ATOM      7  N   UNL     1       3.277   7.379  17.847  0.00  0.00    +0.000 NA
ATOM      8  C   UNL     1       4.158   6.396  17.367  0.00  0.00    +0.000 A 
ATOM      9  C   UNL     1       4.909   6.631  16.214  0.00  0.00    +0.000 A 
ATOM     10  C   UNL     1       5.801   5.666  15.724  0.00  0.00    +0.000 A 
ATOM     11  C   UNL     1       5.957   4.450  16.389  0.00  0.00    +0.000 A 
ATOM     12  C   UNL     1       5.222   4.203  17.543  0.00  0.00    +0.000 A 
ATOM     13  C   UNL     1       4.332   5.175  18.020  0.00  0.00    +0.000 A 
ATOM     14  C   UNL     1       3.500   4.916  19.199  0.00  0.00    +0.000 A 
ATOM     15  O   UNL     1       3.636   3.854  19.803  0.00  0.00    +0.000 OA
ATOM     16  H   UNL     1       1.738   8.891  18.630  0.00  0.00    +0.000 HD
ENDROOT
BRANCH   5  17
ATOM     17  C   UNL     1       0.392   9.627  20.757  0.00  0.00    +0.000 A 
ATOM     18  C   UNL     1       0.089  10.028  22.070  0.00  0.00    +0.000 A 
ATOM     19  C   UNL     1      -0.746  11.119  22.312  0.00  0.00    +0.000 A 
ATOM     20  C   UNL     1      -1.281  11.828  21.241  0.00  0.00    +0.000 A 
ATOM     21  C   UNL     1      -0.983  11.442  19.931  0.00  0.00    +0.000 A 
ATOM     22  C   UNL     1      -0.151  10.340  19.684  0.00  0.00    +0.000 A 
ENDBRANCH   5  17
TORSDOF 1
ENDMDL
MODEL 9
REMARK VINA RESULT:      -7.4      1.954      3.230
REMARK  Name = 
REMARK  2 active torsions:
REMARK  status: ('A' for Active; 'I' for Inactive)
REMARK    1  A    between atoms: C_1  and  N_2
REMARK    2  A    between atoms: C_5  and  C_7
REMARK                            x       y       z     vdW  Elec       q    Type
REMARK                         _______ _______ _______ _____ _____    ______ ____
ROOT
ATOM      1  C   UNL     1       5.024   4.209  18.795  0.00  0.00    +0.000 C 
ATOM      2  N   UNL     1       4.056   5.274  18.584  0.00  0.00    +0.000 N 
ATOM      3  C   UNL     1       3.993   6.067  17.464  0.00  0.00    +0.000 A 
ATOM      4  N   UNL     1       4.642   5.741  16.298  0.00  0.00    +0.000 N 
ATOM      5  C   UNL     1       4.959   4.493  15.768  0.00  0.00    +0.000 C 
ATOM      6  O   UNL     1       4.591   3.420  16.238  0.00  0.00    +0.000 OA
ATOM      7  N   UNL     1       3.343   7.189  17.415  0.00  0.00    +0.000 NA
ATOM      8  C   UNL     1       2.594   7.583  18.536  0.00  0.00    +0.000 A 
ATOM      9  C   UNL     1       1.914   8.802  18.531  0.00  0.00    +0.000 A 
ATOM     10  C   UNL     1       1.153   9.210  19.637  0.00  0.00    +0.000 A 
ATOM     11  C   UNL     1       1.059   8.394  20.764  0.00  0.00    +0.000 A 
ATOM     12  C   UNL     1       1.724   7.174  20.783  0.00  0.00    +0.000 A 
ATOM     13  C   UNL     1       2.484   6.781  19.673  0.00  0.00    +0.000 A 
ATOM     14  C   UNL     1       3.245   5.528  19.690  0.00  0.00    +0.000 A 
ATOM     15  O   UNL     1       3.161   4.793  20.672  0.00  0.00    +0.000 OA
ATOM     16  H   UNL     1       4.675   6.527  15.667  0.00  0.00    +0.000 HD
ENDROOT
BRANCH   5  17
ATOM     17  C   UNL     1       5.785   4.441  14.528  0.00  0.00    +0.000 A 
ATOM     18  C   UNL     1       6.978   5.186  14.531  0.00  0.00    +0.000 A 
ATOM     19  C   UNL     1       7.843   5.159  13.437  0.00  0.00    +0.000 A 
ATOM     20  C   UNL     1       7.528   4.378  12.329  0.00  0.00    +0.000 A 
ATOM     21  C   UNL     1       6.348   3.630  12.316  0.00  0.00    +0.000 A 
ATOM     22  C   UNL     1       5.471   3.661  13.411  0.00  0.00    +0.000 A 
ENDBRANCH   5  17
TORSDOF 1
ENDMDL
