MODEL 1
REMARK VINA RESULT:      -7.2      0.000      0.000
REMARK  Name = 
REMARK  5 active torsions:
REMARK  status: ('A' for Active; 'I' for Inactive)
REMARK    1  A    between atoms: C_1  and  O_2
REMARK    2  A    between atoms: O_2  and  C_3
REMARK    3  A    between atoms: C_3  and  C_5
REMARK    4  A    between atoms: C_5  and  C_6
REMARK    5  A    between atoms: C_15  and  C_16
REMARK                            x       y       z     vdW  Elec       q    Type
REMARK                         _______ _______ _______ _____ _____    ______ ____
ROOT
ATOM      1  C   UNL     1       4.124   5.789  17.830  0.00  0.00    +0.000 C 
ATOM      2  N   UNL     1       2.998   6.306  18.645  0.00  0.00    +0.000 N 
ATOM      3  C   UNL     1       2.624   7.671  18.603  0.00  0.00    +0.000 C 
ATOM      4  O   UNL     1       3.149   8.465  17.830  0.00  0.00    +0.000 OA
ATOM      5  N   UNL     1       1.651   7.997  19.533  0.00  0.00    +0.000 N 
ATOM      6  C   UNL     1       1.110   9.256  19.819  0.00  0.00    +0.000 A 
ATOM      7  C   UNL     1       0.194   9.301  20.870  0.00  0.00    +0.000 A 
ATOM      8  C   UNL     1      -0.342  10.524  21.257  0.00  0.00    +0.000 A 
ATOM      9  C   UNL     1       0.014  11.666  20.556  0.00  0.00    +0.000 A 
ATOM     10  C   UNL     1       0.897  11.540  19.489  0.00  0.00    +0.000 A 
ATOM     11  C   UNL     1       1.216  12.727  18.630  0.00  0.00    +0.000 C 
ATOM     12  N   UNL     1       1.458  10.356  19.131  0.00  0.00    +0.000 NA
ATOM     13  C   UNL     1       2.094   5.365  19.123  0.00  0.00    +0.000 C 
ATOM     14  O   UNL     1       0.877   5.539  19.109  0.00  0.00    +0.000 OA
ATOM     15  C   UNL     1       2.605   4.150  19.797  0.00  0.00    +0.000 A 
ATOM     16  C   UNL     1       1.721   3.486  20.665  0.00  0.00    +0.000 A 
ATOM     17  C   UNL     1       2.148   2.403  21.436  0.00  0.00    +0.000 A 
ATOM     18  C   UNL     1       3.469   1.972  21.352  0.00  0.00    +0.000 A 
ATOM     19  C   UNL     1       4.350   2.605  20.479  0.00  0.00    +0.000 A 
ATOM     20  C   UNL     1       3.906   3.683  19.698  0.00  0.00    +0.000 A 
ATOM     21  S   UNL     1       5.031   4.389  18.556  0.00  0.00    +0.000 S 
ATOM     22  O   UNL     1       5.204   3.391  17.515  0.00  0.00    +0.000 OA
ATOM     23  O   UNL     1       6.170   4.832  19.330  0.00  0.00    +0.000 OA
ATOM     24  H   UNL     1       1.187   7.225  19.985  0.00  0.00    +0.000 HD
ENDROOT
BRANCH   1  25
ATOM     25  C   UNL     1       5.164   6.752  17.232  0.00  0.00    +0.000 C 
BRANCH  25  26
ATOM     26  C   UNL     1       5.900   6.124  16.078  0.00  0.00    +0.000 C 
ATOM     27  O   UNL     1       5.354   5.587  15.123  0.00  0.00    +0.000 OA
BRANCH  26  29
ATOM     28  C   UNL     1       7.575   7.170  17.288  0.00  0.00    +0.000 C 
ATOM     29  O   UNL     1       7.240   6.242  16.258  0.00  0.00    +0.000 OA
ENDBRANCH  26  29
ENDBRANCH  25  26
ENDBRANCH   1  25
TORSDOF 3
ENDMDL
MODEL 2
REMARK VINA RESULT:      -7.1      0.714      1.176
REMARK  Name = 
REMARK  5 active torsions:
REMARK  status: ('A' for Active; 'I' for Inactive)
REMARK    1  A    between atoms: C_1  and  O_2
REMARK    2  A    between atoms: O_2  and  C_3
REMARK    3  A    between atoms: C_3  and  C_5
REMARK    4  A    between atoms: C_5  and  C_6
REMARK    5  A    between atoms: C_15  and  C_16
REMARK                            x       y       z     vdW  Elec       q    Type
REMARK                         _______ _______ _______ _____ _____    ______ ____
ROOT
ATOM      1  C   UNL     1       4.398   5.723  17.736  0.00  0.00    +0.000 C 
ATOM      2  N   UNL     1       3.215   6.353  18.372  0.00  0.00    +0.000 N 
ATOM      3  C   UNL     1       2.956   7.738  18.237  0.00  0.00    +0.000 C 
ATOM      4  O   UNL     1       3.639   8.459  17.518  0.00  0.00    +0.000 OA
ATOM      5  N   UNL     1       1.895   8.172  19.014  0.00  0.00    +0.000 N 
ATOM      6  C   UNL     1       1.419   9.477  19.183  0.00  0.00    +0.000 A 
ATOM      7  C   UNL     1       0.377   9.631  20.097  0.00  0.00    +0.000 A 
ATOM      8  C   UNL     1      -0.111  10.905  20.367  0.00  0.00    +0.000 A 
ATOM      9  C   UNL     1       0.422  11.988  19.686  0.00  0.00    +0.000 A 
ATOM     10  C   UNL     1       1.428  11.755  18.755  0.00  0.00    +0.000 A 
ATOM     11  C   UNL     1       1.950  12.878  17.910  0.00  0.00    +0.000 C 
ATOM     12  N   UNL     1       1.939  10.520  18.514  0.00  0.00    +0.000 NA
ATOM     13  C   UNL     1       2.186   5.500  18.752  0.00  0.00    +0.000 C 
ATOM     14  O   UNL     1       0.999   5.759  18.566  0.00  0.00    +0.000 OA
ATOM     15  C   UNL     1       2.508   4.281  19.528  0.00  0.00    +0.000 A 
ATOM     16  C   UNL     1       1.467   3.718  20.287  0.00  0.00    +0.000 A 
ATOM     17  C   UNL     1       1.703   2.641  21.143  0.00  0.00    +0.000 A 
ATOM     18  C   UNL     1       2.986   2.113  21.255  0.00  0.00    +0.000 A 
ATOM     19  C   UNL     1       4.022   2.644  20.491  0.00  0.00    +0.000 A 
ATOM     20  C   UNL     1       3.771   3.718  19.623  0.00  0.00    +0.000 A 
ATOM     21  S   UNL     1       5.089   4.293  18.623  0.00  0.00    +0.000 S 
ATOM     22  O   UNL     1       5.323   3.242  17.648  0.00  0.00    +0.000 OA
ATOM     23  O   UNL     1       6.145   4.686  19.531  0.00  0.00    +0.000 OA
ATOM     24  H   UNL     1       1.318   7.455  19.422  0.00  0.00    +0.000 HD
ENDROOT
BRANCH   1  25
ATOM     25  C   UNL     1       5.579   6.582  17.256  0.00  0.00    +0.000 C 
BRANCH  25  26
ATOM     26  C   UNL     1       6.264   5.967  16.064  0.00  0.00    +0.000 C 
ATOM     27  O   UNL     1       7.479   5.908  15.923  0.00  0.00    +0.000 OA
BRANCH  26  29
ATOM     28  C   UNL     1       5.828   4.400  14.415  0.00  0.00    +0.000 C 
ATOM     29  O   UNL     1       5.342   5.498  15.185  0.00  0.00    +0.000 OA
ENDBRANCH  26  29
ENDBRANCH  25  26
ENDBRANCH   1  25
TORSDOF 3
ENDMDL
MODEL 3
REMARK VINA RESULT:      -6.9      1.151      1.215
REMARK  Name = 
REMARK  5 active torsions:
REMARK  status: ('A' for Active; 'I' for Inactive)
REMARK    1  A    between atoms: C_1  and  O_2
REMARK    2  A    between atoms: O_2  and  C_3
REMARK    3  A    between atoms: C_3  and  C_5
REMARK    4  A    between atoms: C_5  and  C_6
REMARK    5  A    between atoms: C_15  and  C_16
REMARK                            x       y       z     vdW  Elec       q    Type
REMARK                         _______ _______ _______ _____ _____    ______ ____
ROOT
ATOM      1  C   UNL     1       4.540   5.809  17.577  0.00  0.00    +0.000 C 
ATOM      2  N   UNL     1       3.230   6.395  17.948  0.00  0.00    +0.000 N 
ATOM      3  C   UNL     1       3.032   7.797  17.977  0.00  0.00    +0.000 C 
ATOM      4  O   UNL     1       3.899   8.583  17.612  0.00  0.00    +0.000 OA
ATOM      5  N   UNL     1       1.796   8.162  18.484  0.00  0.00    +0.000 N 
ATOM      6  C   UNL     1       1.302   9.448  18.727  0.00  0.00    +0.000 A 
ATOM      7  C   UNL     1       0.042   9.515  19.321  0.00  0.00    +0.000 A 
ATOM      8  C   UNL     1      -0.493  10.755  19.650  0.00  0.00    +0.000 A 
ATOM      9  C   UNL     1       0.223  11.900  19.338  0.00  0.00    +0.000 A 
ATOM     10  C   UNL     1       1.452  11.761  18.704  0.00  0.00    +0.000 A 
ATOM     11  C   UNL     1       2.204  12.973  18.240  0.00  0.00    +0.000 C 
ATOM     12  N   UNL     1       2.001  10.553  18.415  0.00  0.00    +0.000 NA
ATOM     13  C   UNL     1       2.129   5.552  17.874  0.00  0.00    +0.000 C 
ATOM     14  O   UNL     1       1.048   5.903  17.406  0.00  0.00    +0.000 OA
ATOM     15  C   UNL     1       2.204   4.210  18.495  0.00  0.00    +0.000 A 
ATOM     16  C   UNL     1       0.983   3.594  18.824  0.00  0.00    +0.000 A 
ATOM     17  C   UNL     1       0.954   2.384  19.520  0.00  0.00    +0.000 A 
ATOM     18  C   UNL     1       2.146   1.775  19.901  0.00  0.00    +0.000 A 
ATOM     19  C   UNL     1       3.363   2.361  19.560  0.00  0.00    +0.000 A 
ATOM     20  C   UNL     1       3.381   3.570  18.848  0.00  0.00    +0.000 A 
ATOM     21  S   UNL     1       4.936   4.221  18.372  0.00  0.00    +0.000 S 
ATOM     22  O   UNL     1       5.432   3.325  17.342  0.00  0.00    +0.000 OA
ATOM     23  O   UNL     1       5.688   4.407  19.593  0.00  0.00    +0.000 OA
ATOM     24  H   UNL     1       1.119   7.422  18.587  0.00  0.00    +0.000 HD
ENDROOT
BRANCH   1  25
ATOM     25  C   UNL     1       5.817   6.666  17.600  0.00  0.00    +0.000 C 
BRANCH  25  26
ATOM     26  C   UNL     1       6.644   6.462  16.358  0.00  0.00    +0.000 C 
ATOM     27  O   UNL     1       6.262   5.850  15.369  0.00  0.00    +0.000 OA
BRANCH  26  29
ATOM     28  C   UNL     1       7.881   8.012  17.555  0.00  0.00    +0.000 C 
ATOM     29  O   UNL     1       7.859   7.049  16.503  0.00  0.00    +0.000 OA
ENDBRANCH  26  29
ENDBRANCH  25  26
ENDBRANCH   1  25
TORSDOF 3
ENDMDL
MODEL 4
REMARK VINA RESULT:      -6.7      1.876      4.783
REMARK  Name = 
REMARK  5 active torsions:
REMARK  status: ('A' for Active; 'I' for Inactive)
REMARK    1  A    between atoms: C_1  and  O_2
REMARK    2  A    between atoms: O_2  and  C_3
REMARK    3  A    between atoms: C_3  and  C_5
REMARK    4  A    between atoms: C_5  and  C_6
REMARK    5  A    between atoms: C_15  and  C_16
REMARK                            x       y       z     vdW  Elec       q    Type
REMARK                         _______ _______ _______ _____ _____    ______ ____
ROOT
ATOM      1  C   UNL     1       3.410   4.243  19.093  0.00  0.00    +0.000 C 
ATOM      2  N   UNL     1       3.341   5.668  18.690  0.00  0.00    +0.000 N 
ATOM      3  C   UNL     1       2.517   6.590  19.379  0.00  0.00    +0.000 C 
ATOM      4  O   UNL     1       1.895   6.277  20.389  0.00  0.00    +0.000 OA
ATOM      5  N   UNL     1       2.470   7.835  18.775  0.00  0.00    +0.000 N 
ATOM      6  C   UNL     1       1.702   8.948  19.138  0.00  0.00    +0.000 A 
ATOM      7  C   UNL     1       1.798  10.055  18.294  0.00  0.00    +0.000 A 
ATOM      8  C   UNL     1       1.020  11.178  18.551  0.00  0.00    +0.000 A 
ATOM      9  C   UNL     1       0.199  11.186  19.668  0.00  0.00    +0.000 A 
ATOM     10  C   UNL     1       0.188  10.066  20.491  0.00  0.00    +0.000 A 
ATOM     11  C   UNL     1      -0.591  10.077  21.772  0.00  0.00    +0.000 C 
ATOM     12  N   UNL     1       0.914   8.948  20.226  0.00  0.00    +0.000 NA
ATOM     13  C   UNL     1       4.384   6.141  17.902  0.00  0.00    +0.000 C 
ATOM     14  O   UNL     1       4.916   7.234  18.083  0.00  0.00    +0.000 OA
ATOM     15  C   UNL     1       4.798   5.366  16.712  0.00  0.00    +0.000 A 
ATOM     16  C   UNL     1       5.483   6.068  15.704  0.00  0.00    +0.000 A 
ATOM     17  C   UNL     1       5.809   5.452  14.493  0.00  0.00    +0.000 A 
ATOM     18  C   UNL     1       5.450   4.125  14.273  0.00  0.00    +0.000 A 
ATOM     19  C   UNL     1       4.794   3.410  15.272  0.00  0.00    +0.000 A 
ATOM     20  C   UNL     1       4.484   4.034  16.490  0.00  0.00    +0.000 A 
ATOM     21  S   UNL     1       3.734   3.067  17.743  0.00  0.00    +0.000 S 
ATOM     22  O   UNL     1       4.766   2.151  18.196  0.00  0.00    +0.000 OA
ATOM     23  O   UNL     1       2.506   2.552  17.176  0.00  0.00    +0.000 OA
ATOM     24  H   UNL     1       3.153   8.009  18.056  0.00  0.00    +0.000 HD
ENDROOT
BRANCH   1  25
ATOM     25  C   UNL     1       2.319   3.628  19.987  0.00  0.00    +0.000 C 
BRANCH  25  26
ATOM     26  C   UNL     1       2.910   2.949  21.194  0.00  0.00    +0.000 C 
ATOM     27  O   UNL     1       3.948   2.300  21.180  0.00  0.00    +0.000 OA
BRANCH  26  29
ATOM     28  C   UNL     1       0.973   2.322  22.299  0.00  0.00    +0.000 C 
ATOM     29  O   UNL     1       2.126   3.162  22.281  0.00  0.00    +0.000 OA
ENDBRANCH  26  29
ENDBRANCH  25  26
ENDBRANCH   1  25
TORSDOF 3
ENDMDL
MODEL 5
REMARK VINA RESULT:      -6.7      1.859      4.754
REMARK  Name = 
REMARK  5 active torsions:
REMARK  status: ('A' for Active; 'I' for Inactive)
REMARK    1  A    between atoms: C_1  and  O_2
REMARK    2  A    between atoms: O_2  and  C_3
REMARK    3  A    between atoms: C_3  and  C_5
REMARK    4  A    between atoms: C_5  and  C_6
REMARK    5  A    between atoms: C_15  and  C_16
REMARK                            x       y       z     vdW  Elec       q    Type
REMARK                         _______ _______ _______ _____ _____    ______ ____
ROOT
ATOM      1  C   UNL     1       2.980   4.676  18.818  0.00  0.00    +0.000 C 
ATOM      2  N   UNL     1       3.204   6.089  18.429  0.00  0.00    +0.000 N 
ATOM      3  C   UNL     1       2.412   7.135  18.961  0.00  0.00    +0.000 C 
ATOM      4  O   UNL     1       1.570   6.935  19.830  0.00  0.00    +0.000 OA
ATOM      5  N   UNL     1       2.668   8.364  18.376  0.00  0.00    +0.000 N 
ATOM      6  C   UNL     1       2.022   9.585  18.601  0.00  0.00    +0.000 A 
ATOM      7  C   UNL     1       2.441  10.651  17.805  0.00  0.00    +0.000 A 
ATOM      8  C   UNL     1       1.806  11.882  17.924  0.00  0.00    +0.000 A 
ATOM      9  C   UNL     1       0.799  12.031  18.866  0.00  0.00    +0.000 A 
ATOM     10  C   UNL     1       0.464  10.938  19.657  0.00  0.00    +0.000 A 
ATOM     11  C   UNL     1      -0.533  11.086  20.767  0.00  0.00    +0.000 C 
ATOM     12  N   UNL     1       1.051   9.720  19.519  0.00  0.00    +0.000 NA
ATOM     13  C   UNL     1       4.436   6.388  17.860  0.00  0.00    +0.000 C 
ATOM     14  O   UNL     1       5.083   7.392  18.152  0.00  0.00    +0.000 OA
ATOM     15  C   UNL     1       4.947   5.541  16.759  0.00  0.00    +0.000 A 
ATOM     16  C   UNL     1       5.908   6.116  15.908  0.00  0.00    +0.000 A 
ATOM     17  C   UNL     1       6.361   5.439  14.774  0.00  0.00    +0.000 A 
ATOM     18  C   UNL     1       5.855   4.178  14.472  0.00  0.00    +0.000 A 
ATOM     19  C   UNL     1       4.921   3.585  15.319  0.00  0.00    +0.000 A 
ATOM     20  C   UNL     1       4.484   4.268  16.464  0.00  0.00    +0.000 A 
ATOM     21  S   UNL     1       3.373   3.444  17.539  0.00  0.00    +0.000 S 
ATOM     22  O   UNL     1       4.151   2.391  18.167  0.00  0.00    +0.000 OA
ATOM     23  O   UNL     1       2.212   3.110  16.743  0.00  0.00    +0.000 OA
ATOM     24  H   UNL     1       3.494   8.422  17.801  0.00  0.00    +0.000 HD
ENDROOT
BRANCH   1  25
ATOM     25  C   UNL     1       1.660   4.247  19.481  0.00  0.00    +0.000 C 
BRANCH  25  26
ATOM     26  C   UNL     1       1.903   3.456  20.739  0.00  0.00    +0.000 C 
ATOM     27  O   UNL     1       2.325   3.936  21.784  0.00  0.00    +0.000 OA
BRANCH  26  29
ATOM     28  C   UNL     1       0.665   1.966  19.471  0.00  0.00    +0.000 C 
ATOM     29  O   UNL     1       1.591   2.150  20.539  0.00  0.00    +0.000 OA
ENDBRANCH  26  29
ENDBRANCH  25  26
ENDBRANCH   1  25
TORSDOF 3
ENDMDL
MODEL 6
REMARK VINA RESULT:      -6.4      1.857      4.680
REMARK  Name = 
REMARK  5 active torsions:
REMARK  status: ('A' for Active; 'I' for Inactive)
REMARK    1  A    between atoms: C_1  and  O_2
REMARK    2  A    between atoms: O_2  and  C_3
REMARK    3  A    between atoms: C_3  and  C_5
REMARK    4  A    between atoms: C_5  and  C_6
REMARK    5  A    between atoms: C_15  and  C_16
REMARK                            x       y       z     vdW  Elec       q    Type
REMARK                         _______ _______ _______ _____ _____    ______ ____
ROOT
ATOM      1  C   UNL     1       3.134   4.007  19.170  0.00  0.00    +0.000 C 
ATOM      2  N   UNL     1       3.135   5.469  18.923  0.00  0.00    +0.000 N 
ATOM      3  C   UNL     1       2.320   6.344  19.681  0.00  0.00    +0.000 C 
ATOM      4  O   UNL     1       1.651   5.950  20.630  0.00  0.00    +0.000 OA
ATOM      5  N   UNL     1       2.343   7.648  19.216  0.00  0.00    +0.000 N 
ATOM      6  C   UNL     1       1.604   8.746  19.673  0.00  0.00    +0.000 A 
ATOM      7  C   UNL     1       1.772   9.932  18.959  0.00  0.00    +0.000 A 
ATOM      8  C   UNL     1       1.028  11.053  19.311  0.00  0.00    +0.000 A 
ATOM      9  C   UNL     1       0.168  10.974  20.396  0.00  0.00    +0.000 A 
ATOM     10  C   UNL     1       0.085   9.773  21.091  0.00  0.00    +0.000 A 
ATOM     11  C   UNL     1      -0.740   9.678  22.339  0.00  0.00    +0.000 C 
ATOM     12  N   UNL     1       0.777   8.662  20.728  0.00  0.00    +0.000 NA
ATOM     13  C   UNL     1       4.222   5.981  18.226  0.00  0.00    +0.000 C 
ATOM     14  O   UNL     1       4.788   7.025  18.542  0.00  0.00    +0.000 OA
ATOM     15  C   UNL     1       4.650   5.322  16.971  0.00  0.00    +0.000 A 
ATOM     16  C   UNL     1       5.397   6.099  16.069  0.00  0.00    +0.000 A 
ATOM     17  C   UNL     1       5.744   5.605  14.810  0.00  0.00    +0.000 A 
ATOM     18  C   UNL     1       5.344   4.325  14.434  0.00  0.00    +0.000 A 
ATOM     19  C   UNL     1       4.625   3.534  15.328  0.00  0.00    +0.000 A 
ATOM     20  C   UNL     1       4.294   4.036  16.596  0.00  0.00    +0.000 A 
ATOM     21  S   UNL     1       3.463   2.971  17.710  0.00  0.00    +0.000 S 
ATOM     22  O   UNL     1       4.443   1.970  18.094  0.00  0.00    +0.000 OA
ATOM     23  O   UNL     1       2.239   2.571  17.052  0.00  0.00    +0.000 OA
ATOM     24  H   UNL     1       3.058   7.871  18.543  0.00  0.00    +0.000 HD
ENDROOT
BRANCH   1  25
ATOM     25  C   UNL     1       1.990   3.345  19.956  0.00  0.00    +0.000 C 
BRANCH  25  26
ATOM     26  C   UNL     1       2.473   2.772  21.262  0.00  0.00    +0.000 C 
ATOM     27  O   UNL     1       1.735   2.364  22.150  0.00  0.00    +0.000 OA
BRANCH  26  29
ATOM     28  C   UNL     1       4.384   1.466  21.344  0.00  0.00    +0.000 C 
ATOM     29  O   UNL     1       3.830   2.779  21.302  0.00  0.00    +0.000 OA
ENDBRANCH  26  29
ENDBRANCH  25  26
ENDBRANCH   1  25
TORSDOF 3
ENDMDL
MODEL 7
REMARK VINA RESULT:      -6.4      7.968     10.561
REMARK  Name = 
REMARK  5 active torsions:
REMARK  status: ('A' for Active; 'I' for Inactive)
REMARK    1  A    between atoms: C_1  and  O_2
REMARK    2  A    between atoms: O_2  and  C_3
REMARK    3  A    between atoms: C_3  and  C_5
REMARK    4  A    between atoms: C_5  and  C_6
REMARK    5  A    between atoms: C_15  and  C_16
REMARK                            x       y       z     vdW  Elec       q    Type
REMARK                         _______ _______ _______ _____ _____    ______ ____
ROOT
ATOM      1  C   UNL     1      -3.229  12.791  21.726  0.00  0.00    +0.000 C 
ATOM      2  N   UNL     1      -2.022  12.728  20.867  0.00  0.00    +0.000 N 
ATOM      3  C   UNL     1      -0.780  13.250  21.302  0.00  0.00    +0.000 C 
ATOM      4  O   UNL     1      -0.621  13.691  22.435  0.00  0.00    +0.000 OA
ATOM      5  N   UNL     1       0.193  13.233  20.316  0.00  0.00    +0.000 N 
ATOM      6  C   UNL     1       1.497  13.738  20.373  0.00  0.00    +0.000 A 
ATOM      7  C   UNL     1       2.235  13.654  19.193  0.00  0.00    +0.000 A 
ATOM      8  C   UNL     1       3.518  14.188  19.150  0.00  0.00    +0.000 A 
ATOM      9  C   UNL     1       4.049  14.753  20.299  0.00  0.00    +0.000 A 
ATOM     10  C   UNL     1       3.274  14.761  21.453  0.00  0.00    +0.000 A 
ATOM     11  C   UNL     1       3.851  15.252  22.747  0.00  0.00    +0.000 C 
ATOM     12  N   UNL     1       2.005  14.279  21.493  0.00  0.00    +0.000 NA
ATOM     13  C   UNL     1      -2.049  11.811  19.824  0.00  0.00    +0.000 C 
ATOM     14  O   UNL     1      -1.092  11.097  19.536  0.00  0.00    +0.000 OA
ATOM     15  C   UNL     1      -3.230  11.767  18.932  0.00  0.00    +0.000 A 
ATOM     16  C   UNL     1      -3.041  11.207  17.656  0.00  0.00    +0.000 A 
ATOM     17  C   UNL     1      -4.061  11.229  16.703  0.00  0.00    +0.000 A 
ATOM     18  C   UNL     1      -5.284  11.818  17.011  0.00  0.00    +0.000 A 
ATOM     19  C   UNL     1      -5.494  12.355  18.279  0.00  0.00    +0.000 A 
ATOM     20  C   UNL     1      -4.467  12.314  19.234  0.00  0.00    +0.000 A 
ATOM     21  S   UNL     1      -4.811  12.928  20.838  0.00  0.00    +0.000 S 
ATOM     22  O   UNL     1      -5.731  11.972  21.430  0.00  0.00    +0.000 OA
ATOM     23  O   UNL     1      -5.211  14.307  20.667  0.00  0.00    +0.000 OA
ATOM     24  H   UNL     1      -0.016  12.693  19.491  0.00  0.00    +0.000 HD
ENDROOT
BRANCH   1  25
ATOM     25  C   UNL     1      -3.288  13.755  22.924  0.00  0.00    +0.000 C 
BRANCH  25  26
ATOM     26  C   UNL     1      -3.658  13.038  24.195  0.00  0.00    +0.000 C 
ATOM     27  O   UNL     1      -4.095  11.895  24.238  0.00  0.00    +0.000 OA
BRANCH  26  29
ATOM     28  C   UNL     1      -3.067  15.166  24.891  0.00  0.00    +0.000 C 
ATOM     29  O   UNL     1      -3.440  13.841  25.267  0.00  0.00    +0.000 OA
ENDBRANCH  26  29
ENDBRANCH  25  26
ENDBRANCH   1  25
TORSDOF 3
ENDMDL
MODEL 8
REMARK VINA RESULT:      -6.3      8.133     10.645
REMARK  Name = 
REMARK  5 active torsions:
REMARK  status: ('A' for Active; 'I' for Inactive)
REMARK    1  A    between atoms: C_1  and  O_2
REMARK    2  A    between atoms: O_2  and  C_3
REMARK    3  A    between atoms: C_3  and  C_5
REMARK    4  A    between atoms: C_5  and  C_6
REMARK    5  A    between atoms: C_15  and  C_16
REMARK                            x       y       z     vdW  Elec       q    Type
REMARK                         _______ _______ _______ _____ _____    ______ ____
ROOT
ATOM      1  C   UNL     1      -4.146  12.702  20.596  0.00  0.00    +0.000 C 
ATOM      2  N   UNL     1      -2.723  12.909  20.235  0.00  0.00    +0.000 N 
ATOM      3  C   UNL     1      -1.901  13.804  20.963  0.00  0.00    +0.000 C 
ATOM      4  O   UNL     1      -2.297  14.375  21.972  0.00  0.00    +0.000 OA
ATOM      5  N   UNL     1      -0.649  13.976  20.395  0.00  0.00    +0.000 N 
ATOM      6  C   UNL     1       0.377  14.837  20.801  0.00  0.00    +0.000 A 
ATOM      7  C   UNL     1       1.510  14.860  19.988  0.00  0.00    +0.000 A 
ATOM      8  C   UNL     1       2.549  15.734  20.288  0.00  0.00    +0.000 A 
ATOM      9  C   UNL     1       2.451  16.531  21.417  0.00  0.00    +0.000 A 
ATOM     10  C   UNL     1       1.312  16.424  22.208  0.00  0.00    +0.000 A 
ATOM     11  C   UNL     1       1.217  17.178  23.500  0.00  0.00    +0.000 C 
ATOM     12  N   UNL     1       0.275  15.603  21.900  0.00  0.00    +0.000 NA
ATOM     13  C   UNL     1      -2.134  11.930  19.446  0.00  0.00    +0.000 C 
ATOM     14  O   UNL     1      -1.001  11.498  19.649  0.00  0.00    +0.000 OA
ATOM     15  C   UNL     1      -2.835  11.466  18.227  0.00  0.00    +0.000 A 
ATOM     16  C   UNL     1      -2.046  10.868  17.229  0.00  0.00    +0.000 A 
ATOM     17  C   UNL     1      -2.596  10.508  15.997  0.00  0.00    +0.000 A 
ATOM     18  C   UNL     1      -3.944  10.746  15.745  0.00  0.00    +0.000 A 
ATOM     19  C   UNL     1      -4.744  11.315  16.733  0.00  0.00    +0.000 A 
ATOM     20  C   UNL     1      -4.184  11.660  17.973  0.00  0.00    +0.000 A 
ATOM     21  S   UNL     1      -5.250  12.295  19.209  0.00  0.00    +0.000 S 
ATOM     22  O   UNL     1      -6.077  11.174  19.620  0.00  0.00    +0.000 OA
ATOM     23  O   UNL     1      -5.862  13.479  18.647  0.00  0.00    +0.000 OA
ATOM     24  H   UNL     1      -0.393  13.325  19.671  0.00  0.00    +0.000 HD
ENDROOT
BRANCH   1  25
ATOM     25  C   UNL     1      -4.883  13.715  21.489  0.00  0.00    +0.000 C 
BRANCH  25  26
ATOM     26  C   UNL     1      -5.489  13.051  22.697  0.00  0.00    +0.000 C 
ATOM     27  O   UNL     1      -6.635  13.241  23.085  0.00  0.00    +0.000 OA
BRANCH  26  29
ATOM     28  C   UNL     1      -4.362  12.540  24.655  0.00  0.00    +0.000 C 
ATOM     29  O   UNL     1      -4.583  12.226  23.282  0.00  0.00    +0.000 OA
ENDBRANCH  26  29
ENDBRANCH  25  26
ENDBRANCH   1  25
TORSDOF 3
ENDMDL
MODEL 9
REMARK VINA RESULT:      -6.1      8.867     11.552
REMARK  Name = 
REMARK  5 active torsions:
REMARK  status: ('A' for Active; 'I' for Inactive)
REMARK    1  A    between atoms: C_1  and  O_2
REMARK    2  A    between atoms: O_2  and  C_3
REMARK    3  A    between atoms: C_3  and  C_5
REMARK    4  A    between atoms: C_5  and  C_6
REMARK    5  A    between atoms: C_15  and  C_16
REMARK                            x       y       z     vdW  Elec       q    Type
REMARK                         _______ _______ _______ _____ _____    ______ ____
ROOT
ATOM      1  C   UNL     1      -5.715  12.252  20.116  0.00  0.00    +0.000 C 
ATOM      2  N   UNL     1      -4.435  13.001  20.115  0.00  0.00    +0.000 N 
ATOM      3  C   UNL     1      -4.253  14.149  20.923  0.00  0.00    +0.000 C 
ATOM      4  O   UNL     1      -5.104  14.523  21.723  0.00  0.00    +0.000 OA
ATOM      5  N   UNL     1      -3.053  14.798  20.684  0.00  0.00    +0.000 N 
ATOM      6  C   UNL     1      -2.587  15.995  21.240  0.00  0.00    +0.000 A 
ATOM      7  C   UNL     1      -1.366  16.459  20.751  0.00  0.00    +0.000 A 
ATOM      8  C   UNL     1      -0.864  17.672  21.208  0.00  0.00    +0.000 A 
ATOM      9  C   UNL     1      -1.571  18.371  22.174  0.00  0.00    +0.000 A 
ATOM     10  C   UNL     1      -2.759  17.827  22.649  0.00  0.00    +0.000 A 
ATOM     11  C   UNL     1      -3.493  18.487  23.778  0.00  0.00    +0.000 C 
ATOM     12  N   UNL     1      -3.277  16.663  22.179  0.00  0.00    +0.000 NA
ATOM     13  C   UNL     1      -3.323  12.330  19.623  0.00  0.00    +0.000 C 
ATOM     14  O   UNL     1      -2.219  12.378  20.161  0.00  0.00    +0.000 OA
ATOM     15  C   UNL     1      -3.422  11.623  18.326  0.00  0.00    +0.000 A 
ATOM     16  C   UNL     1      -2.218  11.380  17.642  0.00  0.00    +0.000 A 
ATOM     17  C   UNL     1      -2.218  10.828  16.359  0.00  0.00    +0.000 A 
ATOM     18  C   UNL     1      -3.425  10.515  15.740  0.00  0.00    +0.000 A 
ATOM     19  C   UNL     1      -4.625  10.728  16.415  0.00  0.00    +0.000 A 
ATOM     20  C   UNL     1      -4.612  11.270  17.710  0.00  0.00    +0.000 A 
ATOM     21  S   UNL     1      -6.142  11.438  18.546  0.00  0.00    +0.000 S 
ATOM     22  O   UNL     1      -6.567  10.084  18.854  0.00  0.00    +0.000 OA
ATOM     23  O   UNL     1      -6.968  12.284  17.712  0.00  0.00    +0.000 OA
ATOM     24  H   UNL     1      -2.377  14.298  20.130  0.00  0.00    +0.000 HD
ENDROOT
BRANCH   1  25
ATOM     25  C   UNL     1      -6.999  12.896  20.665  0.00  0.00    +0.000 C 
BRANCH  25  26
ATOM     26  C   UNL     1      -7.554  12.121  21.831  0.00  0.00    +0.000 C 
ATOM     27  O   UNL     1      -7.667  10.902  21.855  0.00  0.00    +0.000 OA
BRANCH  26  29
ATOM     28  C   UNL     1      -7.138  12.767  24.016  0.00  0.00    +0.000 C 
ATOM     29  O   UNL     1      -7.906  12.968  22.831  0.00  0.00    +0.000 OA
ENDBRANCH  26  29
ENDBRANCH  25  26
ENDBRANCH   1  25
TORSDOF 3
ENDMDL
