MODEL 1
REMARK VINA RESULT:      -6.4      0.000      0.000
REMARK  Name = 
REMARK  2 active torsions:
REMARK  status: ('A' for Active; 'I' for Inactive)
REMARK    1  A    between atoms: N_1  and  N_2
REMARK    2  A    between atoms: C_3  and  C_4
REMARK                            x       y       z     vdW  Elec       q    Type
REMARK                         _______ _______ _______ _____ _____    ______ ____
ROOT
ATOM      1  N   UNL     1       5.908   4.145  17.817  0.00  0.00    +0.000 N 
ATOM      2  C   UNL     1       5.483   4.618  19.032  0.00  0.00    +0.000 A 
ATOM      3  N   UNL     1       6.410   5.257  19.699  0.00  0.00    +0.000 NA
ATOM      4  N   UNL     1       7.513   5.213  18.883  0.00  0.00    +0.000 N 
ATOM      5  C   UNL     1       7.220   4.572  17.680  0.00  0.00    +0.000 A 
ATOM      6  O   UNL     1       7.953   4.454  16.713  0.00  0.00    +0.000 OA
ATOM      7  H   UNL     1       8.368   5.710  19.092  0.00  0.00    +0.000 HD
ENDROOT
BRANCH   2   8
ATOM      8  C   UNL     1       4.110   4.419  19.536  0.00  0.00    +0.000 A 
ATOM      9  C   UNL     1       3.645   3.152  19.907  0.00  0.00    +0.000 A 
ATOM     10  C   UNL     1       2.334   2.988  20.355  0.00  0.00    +0.000 A 
ATOM     11  C   UNL     1       1.498   4.096  20.478  0.00  0.00    +0.000 A 
ATOM     12  C   UNL     1       1.974   5.369  20.167  0.00  0.00    +0.000 A 
ATOM     13  C   UNL     1       3.280   5.533  19.697  0.00  0.00    +0.000 A 
ENDBRANCH   2   8
BRANCH   1  14
ATOM     14  N   UNL     1       5.127   3.760  16.714  0.00  0.00    +0.000 N 
ATOM     15  H   UNL     1       4.154   3.682  16.998  0.00  0.00    +0.000 HD
ATOM     16  H   UNL     1       5.416   2.805  16.479  0.00  0.00    +0.000 HD
ENDBRANCH   1  14
TORSDOF 2
ENDMDL
MODEL 2
REMARK VINA RESULT:      -6.4      1.585      2.116
REMARK  Name = 
REMARK  2 active torsions:
REMARK  status: ('A' for Active; 'I' for Inactive)
REMARK    1  A    between atoms: N_1  and  N_2
REMARK    2  A    between atoms: C_3  and  C_4
REMARK                            x       y       z     vdW  Elec       q    Type
REMARK                         _______ _______ _______ _____ _____    ______ ____
ROOT
ATOM      1  N   UNL     1       5.727   4.093  16.561  0.00  0.00    +0.000 N 
ATOM      2  C   UNL     1       5.189   3.994  17.819  0.00  0.00    +0.000 A 
ATOM      3  N   UNL     1       6.056   4.200  18.777  0.00  0.00    +0.000 NA
ATOM      4  N   UNL     1       7.236   4.456  18.124  0.00  0.00    +0.000 N 
ATOM      5  C   UNL     1       7.055   4.447  16.741  0.00  0.00    +0.000 A 
ATOM      6  O   UNL     1       7.881   4.729  15.891  0.00  0.00    +0.000 OA
ATOM      7  H   UNL     1       8.076   4.747  18.606  0.00  0.00    +0.000 HD
ENDROOT
BRANCH   2   8
ATOM      8  C   UNL     1       3.768   3.682  18.062  0.00  0.00    +0.000 A 
ATOM      9  C   UNL     1       2.811   4.694  18.200  0.00  0.00    +0.000 A 
ATOM     10  C   UNL     1       1.478   4.371  18.457  0.00  0.00    +0.000 A 
ATOM     11  C   UNL     1       1.088   3.036  18.529  0.00  0.00    +0.000 A 
ATOM     12  C   UNL     1       2.025   2.022  18.332  0.00  0.00    +0.000 A 
ATOM     13  C   UNL     1       3.365   2.342  18.098  0.00  0.00    +0.000 A 
ENDBRANCH   2   8
BRANCH   1  14
ATOM     14  N   UNL     1       5.055   4.299  15.344  0.00  0.00    +0.000 N 
ATOM     15  H   UNL     1       4.882   5.292  15.216  0.00  0.00    +0.000 HD
ATOM     16  H   UNL     1       4.128   3.876  15.454  0.00  0.00    +0.000 HD
ENDBRANCH   1  14
TORSDOF 2
ENDMDL
MODEL 3
REMARK VINA RESULT:      -6.4      0.291      1.371
REMARK  Name = 
REMARK  2 active torsions:
REMARK  status: ('A' for Active; 'I' for Inactive)
REMARK    1  A    between atoms: N_1  and  N_2
REMARK    2  A    between atoms: C_3  and  C_4
REMARK                            x       y       z     vdW  Elec       q    Type
REMARK                         _______ _______ _______ _____ _____    ______ ____
ROOT
ATOM      1  N   UNL     1       5.863   4.348  17.676  0.00  0.00    +0.000 N 
ATOM      2  C   UNL     1       5.531   4.729  18.952  0.00  0.00    +0.000 A 
ATOM      3  N   UNL     1       6.550   5.150  19.655  0.00  0.00    +0.000 NA
ATOM      4  N   UNL     1       7.622   5.052  18.801  0.00  0.00    +0.000 N 
ATOM      5  C   UNL     1       7.219   4.603  17.543  0.00  0.00    +0.000 A 
ATOM      6  O   UNL     1       7.910   4.500  16.545  0.00  0.00    +0.000 OA
ATOM      7  H   UNL     1       8.542   5.397  19.036  0.00  0.00    +0.000 HD
ENDROOT
BRANCH   2   8
ATOM      8  C   UNL     1       4.153   4.663  19.477  0.00  0.00    +0.000 A 
ATOM      9  C   UNL     1       3.353   5.808  19.573  0.00  0.00    +0.000 A 
ATOM     10  C   UNL     1       2.064   5.722  20.099  0.00  0.00    +0.000 A 
ATOM     11  C   UNL     1       1.552   4.485  20.484  0.00  0.00    +0.000 A 
ATOM     12  C   UNL     1       2.321   3.331  20.334  0.00  0.00    +0.000 A 
ATOM     13  C   UNL     1       3.622   3.418  19.829  0.00  0.00    +0.000 A 
ENDBRANCH   2   8
BRANCH   1  14
ATOM     14  N   UNL     1       5.014   4.207  16.564  0.00  0.00    +0.000 N 
ATOM     15  H   UNL     1       4.085   4.543  16.802  0.00  0.00    +0.000 HD
ATOM     16  H   UNL     1       4.906   3.199  16.414  0.00  0.00    +0.000 HD
ENDBRANCH   1  14
TORSDOF 2
ENDMDL
MODEL 4
REMARK VINA RESULT:      -6.4      1.563      1.603
REMARK  Name = 
REMARK  2 active torsions:
REMARK  status: ('A' for Active; 'I' for Inactive)
REMARK    1  A    between atoms: N_1  and  N_2
REMARK    2  A    between atoms: C_3  and  C_4
REMARK                            x       y       z     vdW  Elec       q    Type
REMARK                         _______ _______ _______ _____ _____    ______ ____
ROOT
ATOM      1  N   UNL     1       5.719   4.037  16.663  0.00  0.00    +0.000 N 
ATOM      2  C   UNL     1       5.162   3.939  17.912  0.00  0.00    +0.000 A 
ATOM      3  N   UNL     1       6.005   4.187  18.882  0.00  0.00    +0.000 NA
ATOM      4  N   UNL     1       7.188   4.471  18.246  0.00  0.00    +0.000 N 
ATOM      5  C   UNL     1       7.031   4.436  16.860  0.00  0.00    +0.000 A 
ATOM      6  O   UNL     1       7.863   4.733  16.020  0.00  0.00    +0.000 OA
ATOM      7  H   UNL     1       8.009   4.796  18.738  0.00  0.00    +0.000 HD
ENDROOT
BRANCH   2   8
ATOM      8  C   UNL     1       3.747   3.584  18.136  0.00  0.00    +0.000 A 
ATOM      9  C   UNL     1       3.374   2.303  18.559  0.00  0.00    +0.000 A 
ATOM     10  C   UNL     1       2.027   1.986  18.737  0.00  0.00    +0.000 A 
ATOM     11  C   UNL     1       1.052   2.961  18.539  0.00  0.00    +0.000 A 
ATOM     12  C   UNL     1       1.422   4.256  18.177  0.00  0.00    +0.000 A 
ATOM     13  C   UNL     1       2.768   4.570  17.976  0.00  0.00    +0.000 A 
ENDBRANCH   2   8
BRANCH   1  14
ATOM     14  N   UNL     1       5.062   4.203  15.431  0.00  0.00    +0.000 N 
ATOM     15  H   UNL     1       5.382   3.494  14.778  0.00  0.00    +0.000 HD
ATOM     16  H   UNL     1       5.398   5.093  15.047  0.00  0.00    +0.000 HD
ENDBRANCH   1  14
TORSDOF 2
ENDMDL
MODEL 5
REMARK VINA RESULT:      -6.3      0.782      2.265
REMARK  Name = 
REMARK  2 active torsions:
REMARK  status: ('A' for Active; 'I' for Inactive)
REMARK    1  A    between atoms: N_1  and  N_2
REMARK    2  A    between atoms: C_3  and  C_4
REMARK                            x       y       z     vdW  Elec       q    Type
REMARK                         _______ _______ _______ _____ _____    ______ ____
ROOT
ATOM      1  N   UNL     1       5.988   4.631  18.312  0.00  0.00    +0.000 N 
ATOM      2  C   UNL     1       4.777   3.994  18.219  0.00  0.00    +0.000 A 
ATOM      3  N   UNL     1       4.567   3.436  17.053  0.00  0.00    +0.000 NA
ATOM      4  N   UNL     1       5.702   3.711  16.331  0.00  0.00    +0.000 N 
ATOM      5  C   UNL     1       6.629   4.411  17.103  0.00  0.00    +0.000 A 
ATOM      6  O   UNL     1       7.765   4.721  16.785  0.00  0.00    +0.000 OA
ATOM      7  H   UNL     1       5.872   3.326  15.412  0.00  0.00    +0.000 HD
ENDROOT
BRANCH   2   8
ATOM      8  C   UNL     1       3.806   3.947  19.329  0.00  0.00    +0.000 A 
ATOM      9  C   UNL     1       2.991   5.043  19.632  0.00  0.00    +0.000 A 
ATOM     10  C   UNL     1       2.100   4.982  20.704  0.00  0.00    +0.000 A 
ATOM     11  C   UNL     1       1.987   3.808  21.447  0.00  0.00    +0.000 A 
ATOM     12  C   UNL     1       2.753   2.692  21.112  0.00  0.00    +0.000 A 
ATOM     13  C   UNL     1       3.662   2.758  20.053  0.00  0.00    +0.000 A 
ENDBRANCH   2   8
BRANCH   1  14
ATOM     14  N   UNL     1       6.687   4.999  19.474  0.00  0.00    +0.000 N 
ATOM     15  H   UNL     1       7.447   5.628  19.229  0.00  0.00    +0.000 HD
ATOM     16  H   UNL     1       7.143   4.147  19.815  0.00  0.00    +0.000 HD
ENDBRANCH   1  14
TORSDOF 2
ENDMDL
MODEL 6
REMARK VINA RESULT:      -6.3      1.854      2.819
REMARK  Name = 
REMARK  2 active torsions:
REMARK  status: ('A' for Active; 'I' for Inactive)
REMARK    1  A    between atoms: N_1  and  N_2
REMARK    2  A    between atoms: C_3  and  C_4
REMARK                            x       y       z     vdW  Elec       q    Type
REMARK                         _______ _______ _______ _____ _____    ______ ____
ROOT
ATOM      1  N   UNL     1       5.872   4.265  17.592  0.00  0.00    +0.000 N 
ATOM      2  C   UNL     1       4.778   3.849  16.878  0.00  0.00    +0.000 A 
ATOM      3  N   UNL     1       4.989   3.782  15.588  0.00  0.00    +0.000 NA
ATOM      4  N   UNL     1       6.297   4.169  15.432  0.00  0.00    +0.000 N 
ATOM      5  C   UNL     1       6.892   4.428  16.667  0.00  0.00    +0.000 A 
ATOM      6  O   UNL     1       8.062   4.700  16.876  0.00  0.00    +0.000 OA
ATOM      7  H   UNL     1       6.778   4.127  14.545  0.00  0.00    +0.000 HD
ENDROOT
BRANCH   2   8
ATOM      8  C   UNL     1       3.487   3.513  17.508  0.00  0.00    +0.000 A 
ATOM      9  C   UNL     1       2.467   4.464  17.636  0.00  0.00    +0.000 A 
ATOM     10  C   UNL     1       1.266   4.127  18.261  0.00  0.00    +0.000 A 
ATOM     11  C   UNL     1       1.061   2.827  18.717  0.00  0.00    +0.000 A 
ATOM     12  C   UNL     1       2.049   1.859  18.538  0.00  0.00    +0.000 A 
ATOM     13  C   UNL     1       3.262   2.199  17.933  0.00  0.00    +0.000 A 
ENDBRANCH   2   8
BRANCH   1  14
ATOM     14  N   UNL     1       6.125   4.102  18.965  0.00  0.00    +0.000 N 
ATOM     15  H   UNL     1       5.853   4.945  19.463  0.00  0.00    +0.000 HD
ATOM     16  H   UNL     1       7.144   4.048  19.063  0.00  0.00    +0.000 HD
ENDBRANCH   1  14
TORSDOF 2
ENDMDL
MODEL 7
REMARK VINA RESULT:      -6.3      0.773      1.828
REMARK  Name = 
REMARK  2 active torsions:
REMARK  status: ('A' for Active; 'I' for Inactive)
REMARK    1  A    between atoms: N_1  and  N_2
REMARK    2  A    between atoms: C_3  and  C_4
REMARK                            x       y       z     vdW  Elec       q    Type
REMARK                         _______ _______ _______ _____ _____    ______ ____
ROOT
ATOM      1  N   UNL     1       5.982   4.621  18.303  0.00  0.00    +0.000 N 
ATOM      2  C   UNL     1       4.775   3.979  18.199  0.00  0.00    +0.000 A 
ATOM      3  N   UNL     1       4.573   3.429  17.028  0.00  0.00    +0.000 NA
ATOM      4  N   UNL     1       5.710   3.716  16.313  0.00  0.00    +0.000 N 
ATOM      5  C   UNL     1       6.630   4.415  17.095  0.00  0.00    +0.000 A 
ATOM      6  O   UNL     1       7.765   4.732  16.785  0.00  0.00    +0.000 OA
ATOM      7  H   UNL     1       5.887   3.338  15.393  0.00  0.00    +0.000 HD
ENDROOT
BRANCH   2   8
ATOM      8  C   UNL     1       3.799   3.918  19.304  0.00  0.00    +0.000 A 
ATOM      9  C   UNL     1       3.655   2.768  20.089  0.00  0.00    +0.000 A 
ATOM     10  C   UNL     1       2.705   2.729  21.110  0.00  0.00    +0.000 A 
ATOM     11  C   UNL     1       1.930   3.854  21.382  0.00  0.00    +0.000 A 
ATOM     12  C   UNL     1       2.111   5.024  20.643  0.00  0.00    +0.000 A 
ATOM     13  C   UNL     1       3.046   5.058  19.605  0.00  0.00    +0.000 A 
ENDBRANCH   2   8
BRANCH   1  14
ATOM     14  N   UNL     1       6.674   4.984  19.472  0.00  0.00    +0.000 N 
ATOM     15  H   UNL     1       7.511   5.504  19.223  0.00  0.00    +0.000 HD
ATOM     16  H   UNL     1       7.013   4.110  19.885  0.00  0.00    +0.000 HD
ENDBRANCH   1  14
TORSDOF 2
ENDMDL
MODEL 8
REMARK VINA RESULT:      -6.3      1.834      2.474
REMARK  Name = 
REMARK  2 active torsions:
REMARK  status: ('A' for Active; 'I' for Inactive)
REMARK    1  A    between atoms: N_1  and  N_2
REMARK    2  A    between atoms: C_3  and  C_4
REMARK                            x       y       z     vdW  Elec       q    Type
REMARK                         _______ _______ _______ _____ _____    ______ ____
ROOT
ATOM      1  N   UNL     1       5.884   4.246  17.545  0.00  0.00    +0.000 N 
ATOM      2  C   UNL     1       4.768   3.892  16.832  0.00  0.00    +0.000 A 
ATOM      3  N   UNL     1       4.960   3.866  15.537  0.00  0.00    +0.000 NA
ATOM      4  N   UNL     1       6.278   4.217  15.378  0.00  0.00    +0.000 N 
ATOM      5  C   UNL     1       6.897   4.411  16.613  0.00  0.00    +0.000 A 
ATOM      6  O   UNL     1       8.077   4.637  16.815  0.00  0.00    +0.000 OA
ATOM      7  H   UNL     1       6.746   4.194  14.483  0.00  0.00    +0.000 HD
ENDROOT
BRANCH   2   8
ATOM      8  C   UNL     1       3.475   3.573  17.468  0.00  0.00    +0.000 A 
ATOM      9  C   UNL     1       3.136   2.261  17.815  0.00  0.00    +0.000 A 
ATOM     10  C   UNL     1       1.895   1.984  18.391  0.00  0.00    +0.000 A 
ATOM     11  C   UNL     1       1.010   3.024  18.666  0.00  0.00    +0.000 A 
ATOM     12  C   UNL     1       1.367   4.341  18.378  0.00  0.00    +0.000 A 
ATOM     13  C   UNL     1       2.599   4.619  17.780  0.00  0.00    +0.000 A 
ENDBRANCH   2   8
BRANCH   1  14
ATOM     14  N   UNL     1       6.150   4.023  18.908  0.00  0.00    +0.000 N 
ATOM     15  H   UNL     1       7.147   4.113  19.078  0.00  0.00    +0.000 HD
ATOM     16  H   UNL     1       5.934   3.037  19.083  0.00  0.00    +0.000 HD
ENDBRANCH   1  14
TORSDOF 2
ENDMDL
MODEL 9
REMARK VINA RESULT:      -6.2      3.111      4.783
REMARK  Name = 
REMARK  2 active torsions:
REMARK  status: ('A' for Active; 'I' for Inactive)
REMARK    1  A    between atoms: N_1  and  N_2
REMARK    2  A    between atoms: C_3  and  C_4
REMARK                            x       y       z     vdW  Elec       q    Type
REMARK                         _______ _______ _______ _____ _____    ______ ____
ROOT
ATOM      1  N   UNL     1       4.027   2.892  19.958  0.00  0.00    +0.000 N 
ATOM      2  C   UNL     1       4.109   4.033  19.201  0.00  0.00    +0.000 A 
ATOM      3  N   UNL     1       3.276   4.971  19.575  0.00  0.00    +0.000 NA
ATOM      4  N   UNL     1       2.605   4.429  20.644  0.00  0.00    +0.000 N 
ATOM      5  C   UNL     1       3.085   3.153  20.941  0.00  0.00    +0.000 A 
ATOM      6  O   UNL     1       2.765   2.449  21.883  0.00  0.00    +0.000 OA
ATOM      7  H   UNL     1       1.956   4.959  21.208  0.00  0.00    +0.000 HD
ENDROOT
BRANCH   2   8
ATOM      8  C   UNL     1       5.046   4.182  18.071  0.00  0.00    +0.000 A 
ATOM      9  C   UNL     1       4.656   3.900  16.757  0.00  0.00    +0.000 A 
ATOM     10  C   UNL     1       5.570   4.024  15.710  0.00  0.00    +0.000 A 
ATOM     11  C   UNL     1       6.862   4.476  15.967  0.00  0.00    +0.000 A 
ATOM     12  C   UNL     1       7.239   4.817  17.266  0.00  0.00    +0.000 A 
ATOM     13  C   UNL     1       6.333   4.672  18.319  0.00  0.00    +0.000 A 
ENDBRANCH   2   8
BRANCH   1  14
ATOM     14  N   UNL     1       4.980   1.867  20.087  0.00  0.00    +0.000 N 
ATOM     15  H   UNL     1       4.532   0.967  19.935  0.00  0.00    +0.000 HD
ATOM     16  H   UNL     1       5.264   1.863  21.071  0.00  0.00    +0.000 HD
ENDBRANCH   1  14
TORSDOF 2
ENDMDL
