MODEL 1
REMARK VINA RESULT:      -8.9      0.000      0.000
REMARK  Name = 
REMARK  4 active torsions:
REMARK  status: ('A' for Active; 'I' for Inactive)
REMARK    1  A    between atoms: C_1  and  O_2
REMARK    2  A    between atoms: O_2  and  C_3
REMARK    3  A    between atoms: C_8  and  N_9
REMARK    4  A    between atoms: C_19  and  C_20
REMARK                            x       y       z     vdW  Elec       q    Type
REMARK                         _______ _______ _______ _____ _____    ______ ____
ROOT
ATOM      1  C   UNL     1       0.017   9.847  21.196  0.00  0.00    +0.000 A 
ATOM      2  C   UNL     1       0.692   8.630  21.032  0.00  0.00    +0.000 A 
ATOM      3  C   UNL     1       1.422   8.310  19.889  0.00  0.00    +0.000 A 
ATOM      4  C   UNL     1       1.478   9.246  18.858  0.00  0.00    +0.000 A 
ATOM      5  C   UNL     1       0.793  10.469  19.001  0.00  0.00    +0.000 A 
ATOM      6  C   UNL     1       0.063  10.793  20.157  0.00  0.00    +0.000 A 
ATOM      7  C   UNL     1       2.184   8.949  17.558  0.00  0.00    +0.000 C 
ATOM      8  C   UNL     1       3.173   7.783  17.649  0.00  0.00    +0.000 C 
ATOM      9  C   UNL     1       2.538   6.597  18.386  0.00  0.00    +0.000 C 
ATOM     10  C   UNL     1       2.223   7.024  19.846  0.00  0.00    +0.000 C 
ATOM     11  C   UNL     1       1.610   5.857  20.665  0.00  0.00    +0.000 C 
ATOM     12  C   UNL     1       2.454   4.584  20.618  0.00  0.00    +0.000 C 
ATOM     13  C   UNL     1       2.733   4.186  19.176  0.00  0.00    +0.000 C 
ATOM     14  C   UNL     1       1.457   3.654  18.498  0.00  0.00    +0.000 C 
ATOM     15  C   UNL     1       3.809   3.140  18.975  0.00  0.00    +0.000 C 
ATOM     16  O   UNL     1       4.005   2.191  19.720  0.00  0.00    +0.000 OA
ATOM     17  C   UNL     1       4.596   3.407  17.704  0.00  0.00    +0.000 C 
ATOM     18  C   UNL     1       4.006   4.736  17.196  0.00  0.00    +0.000 C 
ATOM     19  C   UNL     1       3.440   5.363  18.466  0.00  0.00    +0.000 C 
ENDROOT
BRANCH   6  20
ATOM     20  N   UNL     1      -0.592  12.058  20.294  0.00  0.00    +0.000 N 
ATOM     21  C   UNL     1      -1.806  12.407  19.765  0.00  0.00    +0.000 C 
ATOM     22  N   UNL     1      -2.143  13.717  20.004  0.00  0.00    +0.000 N 
ATOM     23  O   UNL     1      -2.586  11.729  19.112  0.00  0.00    +0.000 OA
ATOM     24  H   UNL     1      -0.046  12.766  20.768  0.00  0.00    +0.000 HD
ATOM     25  H   UNL     1      -1.862  14.138  20.876  0.00  0.00    +0.000 HD
ATOM     26  H   UNL     1      -3.082  13.936  19.698  0.00  0.00    +0.000 HD
ENDBRANCH   6  20
BRANCH   1  28
ATOM     27  C   UNL     1      -0.084   9.544  23.546  0.00  0.00    +0.000 C 
ATOM     28  O   UNL     1      -0.672  10.118  22.363  0.00  0.00    +0.000 OA
ENDBRANCH   1  28
TORSDOF 2
ENDMDL
MODEL 2
REMARK VINA RESULT:      -8.7      1.019      1.100
REMARK  Name = 
REMARK  4 active torsions:
REMARK  status: ('A' for Active; 'I' for Inactive)
REMARK    1  A    between atoms: C_1  and  O_2
REMARK    2  A    between atoms: O_2  and  C_3
REMARK    3  A    between atoms: C_8  and  N_9
REMARK    4  A    between atoms: C_19  and  C_20
REMARK                            x       y       z     vdW  Elec       q    Type
REMARK                         _______ _______ _______ _____ _____    ______ ____
ROOT
ATOM      1  C   UNL     1       0.067   9.847  21.259  0.00  0.00    +0.000 A 
ATOM      2  C   UNL     1       0.726   8.623  21.078  0.00  0.00    +0.000 A 
ATOM      3  C   UNL     1       1.437   8.302  19.923  0.00  0.00    +0.000 A 
ATOM      4  C   UNL     1       1.490   9.245  18.897  0.00  0.00    +0.000 A 
ATOM      5  C   UNL     1       0.820  10.474  19.057  0.00  0.00    +0.000 A 
ATOM      6  C   UNL     1       0.110  10.799  20.225  0.00  0.00    +0.000 A 
ATOM      7  C   UNL     1       2.175   8.948  17.587  0.00  0.00    +0.000 C 
ATOM      8  C   UNL     1       3.153   7.770  17.656  0.00  0.00    +0.000 C 
ATOM      9  C   UNL     1       2.515   6.586  18.395  0.00  0.00    +0.000 C 
ATOM     10  C   UNL     1       2.224   7.008  19.862  0.00  0.00    +0.000 C 
ATOM     11  C   UNL     1       1.609   5.842  20.682  0.00  0.00    +0.000 C 
ATOM     12  C   UNL     1       2.438   4.561  20.615  0.00  0.00    +0.000 C 
ATOM     13  C   UNL     1       2.694   4.169  19.167  0.00  0.00    +0.000 C 
ATOM     14  C   UNL     1       1.402   3.655  18.504  0.00  0.00    +0.000 C 
ATOM     15  C   UNL     1       3.754   3.112  18.945  0.00  0.00    +0.000 C 
ATOM     16  O   UNL     1       3.951   2.157  19.681  0.00  0.00    +0.000 OA
ATOM     17  C   UNL     1       4.527   3.379  17.665  0.00  0.00    +0.000 C 
ATOM     18  C   UNL     1       3.945   4.717  17.174  0.00  0.00    +0.000 C 
ATOM     19  C   UNL     1       3.404   5.343  18.455  0.00  0.00    +0.000 C 
ENDROOT
BRANCH   6  20
ATOM     20  N   UNL     1      -0.529  12.070  20.378  0.00  0.00    +0.000 N 
ATOM     21  C   UNL     1      -0.040  13.149  21.064  0.00  0.00    +0.000 C 
ATOM     22  N   UNL     1      -0.912  14.209  21.099  0.00  0.00    +0.000 N 
ATOM     23  O   UNL     1       1.028  13.272  21.648  0.00  0.00    +0.000 OA
ATOM     24  H   UNL     1      -1.465  12.120  19.996  0.00  0.00    +0.000 HD
ATOM     25  H   UNL     1      -1.500  14.379  20.297  0.00  0.00    +0.000 HD
ATOM     26  H   UNL     1      -0.503  15.033  21.520  0.00  0.00    +0.000 HD
ENDBRANCH   6  20
BRANCH   1  28
ATOM     27  C   UNL     1      -0.034   9.489  23.601  0.00  0.00    +0.000 C 
ATOM     28  O   UNL     1      -0.603  10.117  22.436  0.00  0.00    +0.000 OA
ENDBRANCH   1  28
TORSDOF 2
ENDMDL
MODEL 3
REMARK VINA RESULT:      -8.5      3.661      8.016
REMARK  Name = 
REMARK  4 active torsions:
REMARK  status: ('A' for Active; 'I' for Inactive)
REMARK    1  A    between atoms: C_1  and  O_2
REMARK    2  A    between atoms: O_2  and  C_3
REMARK    3  A    between atoms: C_8  and  N_9
REMARK    4  A    between atoms: C_19  and  C_20
REMARK                            x       y       z     vdW  Elec       q    Type
REMARK                         _______ _______ _______ _____ _____    ______ ____
ROOT
ATOM      1  C   UNL     1       3.941   5.285  17.696  0.00  0.00    +0.000 A 
ATOM      2  C   UNL     1       3.429   6.581  17.844  0.00  0.00    +0.000 A 
ATOM      3  C   UNL     1       2.619   6.964  18.912  0.00  0.00    +0.000 A 
ATOM      4  C   UNL     1       2.300   6.008  19.875  0.00  0.00    +0.000 A 
ATOM      5  C   UNL     1       2.794   4.697  19.732  0.00  0.00    +0.000 A 
ATOM      6  C   UNL     1       3.616   4.314  18.659  0.00  0.00    +0.000 A 
ATOM      7  C   UNL     1       1.370   6.321  21.020  0.00  0.00    +0.000 C 
ATOM      8  C   UNL     1       1.194   7.821  21.278  0.00  0.00    +0.000 C 
ATOM      9  C   UNL     1       0.953   8.567  19.960  0.00  0.00    +0.000 C 
ATOM     10  C   UNL     1       2.212   8.417  19.061  0.00  0.00    +0.000 C 
ATOM     11  C   UNL     1       2.054   9.181  17.719  0.00  0.00    +0.000 C 
ATOM     12  C   UNL     1       1.665  10.647  17.908  0.00  0.00    +0.000 C 
ATOM     13  C   UNL     1       0.423  10.759  18.780  0.00  0.00    +0.000 C 
ATOM     14  C   UNL     1      -0.825  10.274  18.019  0.00  0.00    +0.000 C 
ATOM     15  C   UNL     1       0.108  12.141  19.310  0.00  0.00    +0.000 C 
ATOM     16  O   UNL     1       0.283  13.180  18.691  0.00  0.00    +0.000 OA
ATOM     17  C   UNL     1      -0.486  12.066  20.706  0.00  0.00    +0.000 C 
ATOM     18  C   UNL     1      -0.417  10.564  21.038  0.00  0.00    +0.000 C 
ATOM     19  C   UNL     1       0.705  10.067  20.134  0.00  0.00    +0.000 C 
ENDROOT
BRANCH   6  20
ATOM     20  N   UNL     1       4.138   2.985  18.558  0.00  0.00    +0.000 N 
ATOM     21  C   UNL     1       3.450   1.868  18.164  0.00  0.00    +0.000 C 
ATOM     22  N   UNL     1       4.197   0.719  18.237  0.00  0.00    +0.000 N 
ATOM     23  O   UNL     1       2.288   1.770  17.793  0.00  0.00    +0.000 OA
ATOM     24  H   UNL     1       5.089   2.879  18.888  0.00  0.00    +0.000 HD
ATOM     25  H   UNL     1       5.184   0.769  18.033  0.00  0.00    +0.000 HD
ATOM     26  H   UNL     1       3.714  -0.081  17.851  0.00  0.00    +0.000 HD
ENDBRANCH   6  20
BRANCH   1  28
ATOM     27  C   UNL     1       5.264   6.112  15.910  0.00  0.00    +0.000 C 
ATOM     28  O   UNL     1       4.758   4.970  16.627  0.00  0.00    +0.000 OA
ENDBRANCH   1  28
TORSDOF 2
ENDMDL
MODEL 4
REMARK VINA RESULT:      -8.3      1.069      1.163
REMARK  Name = 
REMARK  4 active torsions:
REMARK  status: ('A' for Active; 'I' for Inactive)
REMARK    1  A    between atoms: C_1  and  O_2
REMARK    2  A    between atoms: O_2  and  C_3
REMARK    3  A    between atoms: C_8  and  N_9
REMARK    4  A    between atoms: C_19  and  C_20
REMARK                            x       y       z     vdW  Elec       q    Type
REMARK                         _______ _______ _______ _____ _____    ______ ____
ROOT
ATOM      1  C   UNL     1       0.522  10.189  20.387  0.00  0.00    +0.000 A 
ATOM      2  C   UNL     1       0.988   8.879  20.565  0.00  0.00    +0.000 A 
ATOM      3  C   UNL     1       1.750   8.205  19.612  0.00  0.00    +0.000 A 
ATOM      4  C   UNL     1       2.058   8.866  18.424  0.00  0.00    +0.000 A 
ATOM      5  C   UNL     1       1.584  10.178  18.224  0.00  0.00    +0.000 A 
ATOM      6  C   UNL     1       0.821  10.859  19.188  0.00  0.00    +0.000 A 
ATOM      7  C   UNL     1       2.814   8.183  17.313  0.00  0.00    +0.000 C 
ATOM      8  C   UNL     1       3.576   6.933  17.765  0.00  0.00    +0.000 C 
ATOM      9  C   UNL     1       2.683   6.051  18.648  0.00  0.00    +0.000 C 
ATOM     10  C   UNL     1       2.319   6.838  19.938  0.00  0.00    +0.000 C 
ATOM     11  C   UNL     1       1.444   5.990  20.899  0.00  0.00    +0.000 C 
ATOM     12  C   UNL     1       2.057   4.628  21.222  0.00  0.00    +0.000 C 
ATOM     13  C   UNL     1       2.390   3.878  19.940  0.00  0.00    +0.000 C 
ATOM     14  C   UNL     1       1.105   3.404  19.235  0.00  0.00    +0.000 C 
ATOM     15  C   UNL     1       3.282   2.666  20.095  0.00  0.00    +0.000 C 
ATOM     16  O   UNL     1       3.246   1.891  21.040  0.00  0.00    +0.000 OA
ATOM     17  C   UNL     1       4.212   2.520  18.904  0.00  0.00    +0.000 C 
ATOM     18  C   UNL     1       3.907   3.773  18.063  0.00  0.00    +0.000 C 
ATOM     19  C   UNL     1       3.349   4.747  19.094  0.00  0.00    +0.000 C 
ENDROOT
BRANCH   6  20
ATOM     20  N   UNL     1       0.385  12.205  18.977  0.00  0.00    +0.000 N 
ATOM     21  C   UNL     1      -0.792  12.598  18.397  0.00  0.00    +0.000 C 
ATOM     22  N   UNL     1      -0.901  13.960  18.264  0.00  0.00    +0.000 N 
ATOM     23  O   UNL     1      -1.711  11.910  17.977  0.00  0.00    +0.000 OA
ATOM     24  H   UNL     1       1.066  12.913  19.222  0.00  0.00    +0.000 HD
ATOM     25  H   UNL     1      -0.499  14.550  18.977  0.00  0.00    +0.000 HD
ATOM     26  H   UNL     1      -1.812  14.244  17.928  0.00  0.00    +0.000 HD
ENDBRANCH   6  20
BRANCH   1  28
ATOM     27  C   UNL     1      -0.221  10.117  22.638  0.00  0.00    +0.000 C 
ATOM     28  O   UNL     1      -0.211  10.815  21.378  0.00  0.00    +0.000 OA
ENDBRANCH   1  28
TORSDOF 2
ENDMDL
MODEL 5
REMARK VINA RESULT:      -7.9      2.508      4.300
REMARK  Name = 
REMARK  4 active torsions:
REMARK  status: ('A' for Active; 'I' for Inactive)
REMARK    1  A    between atoms: C_1  and  O_2
REMARK    2  A    between atoms: O_2  and  C_3
REMARK    3  A    between atoms: C_8  and  N_9
REMARK    4  A    between atoms: C_19  and  C_20
REMARK                            x       y       z     vdW  Elec       q    Type
REMARK                         _______ _______ _______ _____ _____    ______ ____
ROOT
ATOM      1  C   UNL     1       1.311   8.972  19.667  0.00  0.00    +0.000 A 
ATOM      2  C   UNL     1       2.153   8.422  18.690  0.00  0.00    +0.000 A 
ATOM      3  C   UNL     1       2.573   7.093  18.705  0.00  0.00    +0.000 A 
ATOM      4  C   UNL     1       2.137   6.274  19.745  0.00  0.00    +0.000 A 
ATOM      5  C   UNL     1       1.302   6.816  20.743  0.00  0.00    +0.000 A 
ATOM      6  C   UNL     1       0.874   8.154  20.723  0.00  0.00    +0.000 A 
ATOM      7  C   UNL     1       2.604   4.847  19.876  0.00  0.00    +0.000 C 
ATOM      8  C   UNL     1       3.190   4.271  18.583  0.00  0.00    +0.000 C 
ATOM      9  C   UNL     1       4.165   5.269  17.944  0.00  0.00    +0.000 C 
ATOM     10  C   UNL     1       3.381   6.549  17.543  0.00  0.00    +0.000 C 
ATOM     11  C   UNL     1       4.301   7.593  16.855  0.00  0.00    +0.000 C 
ATOM     12  C   UNL     1       5.083   7.015  15.676  0.00  0.00    +0.000 C 
ATOM     13  C   UNL     1       5.849   5.773  16.105  0.00  0.00    +0.000 C 
ATOM     14  C   UNL     1       7.031   6.147  17.018  0.00  0.00    +0.000 C 
ATOM     15  C   UNL     1       6.408   4.921  14.986  0.00  0.00    +0.000 C 
ATOM     16  O   UNL     1       6.866   5.359  13.940  0.00  0.00    +0.000 OA
ATOM     17  C   UNL     1       6.355   3.447  15.345  0.00  0.00    +0.000 C 
ATOM     18  C   UNL     1       5.634   3.442  16.706  0.00  0.00    +0.000 C 
ATOM     19  C   UNL     1       4.845   4.746  16.677  0.00  0.00    +0.000 C 
ENDROOT
BRANCH   6  20
ATOM     20  N   UNL     1      -0.006   8.669  21.727  0.00  0.00    +0.000 N 
ATOM     21  C   UNL     1       0.361   9.311  22.880  0.00  0.00    +0.000 C 
ATOM     22  N   UNL     1      -0.704   9.627  23.686  0.00  0.00    +0.000 N 
ATOM     23  O   UNL     1       1.481   9.605  23.275  0.00  0.00    +0.000 OA
ATOM     24  H   UNL     1      -0.985   8.457  21.580  0.00  0.00    +0.000 HD
ATOM     25  H   UNL     1      -1.579   9.883  23.255  0.00  0.00    +0.000 HD
ATOM     26  H   UNL     1      -0.433  10.187  24.483  0.00  0.00    +0.000 HD
ENDBRANCH   6  20
BRANCH   1  28
ATOM     27  C   UNL     1      -0.081  10.550  18.573  0.00  0.00    +0.000 C 
ATOM     28  O   UNL     1       0.909  10.292  19.587  0.00  0.00    +0.000 OA
ENDBRANCH   1  28
TORSDOF 2
ENDMDL
MODEL 6
REMARK VINA RESULT:      -7.8      2.043      3.709
REMARK  Name = 
REMARK  4 active torsions:
REMARK  status: ('A' for Active; 'I' for Inactive)
REMARK    1  A    between atoms: C_1  and  O_2
REMARK    2  A    between atoms: O_2  and  C_3
REMARK    3  A    between atoms: C_8  and  N_9
REMARK    4  A    between atoms: C_19  and  C_20
REMARK                            x       y       z     vdW  Elec       q    Type
REMARK                         _______ _______ _______ _____ _____    ______ ____
ROOT
ATOM      1  C   UNL     1       0.936  10.041  19.447  0.00  0.00    +0.000 A 
ATOM      2  C   UNL     1       1.762   9.246  18.641  0.00  0.00    +0.000 A 
ATOM      3  C   UNL     1       2.083   7.925  18.948  0.00  0.00    +0.000 A 
ATOM      4  C   UNL     1       1.561   7.372  20.116  0.00  0.00    +0.000 A 
ATOM      5  C   UNL     1       0.741   8.163  20.945  0.00  0.00    +0.000 A 
ATOM      6  C   UNL     1       0.411   9.493  20.631  0.00  0.00    +0.000 A 
ATOM      7  C   UNL     1       1.919   5.975  20.558  0.00  0.00    +0.000 C 
ATOM      8  C   UNL     1       2.497   5.105  19.437  0.00  0.00    +0.000 C 
ATOM      9  C   UNL     1       3.559   5.882  18.647  0.00  0.00    +0.000 C 
ATOM     10  C   UNL     1       2.881   7.099  17.958  0.00  0.00    +0.000 C 
ATOM     11  C   UNL     1       3.892   7.913  17.108  0.00  0.00    +0.000 C 
ATOM     12  C   UNL     1       4.662   7.052  16.107  0.00  0.00    +0.000 C 
ATOM     13  C   UNL     1       5.324   5.879  16.815  0.00  0.00    +0.000 C 
ATOM     14  C   UNL     1       6.505   6.358  17.680  0.00  0.00    +0.000 C 
ATOM     15  C   UNL     1       5.850   4.778  15.920  0.00  0.00    +0.000 C 
ATOM     16  O   UNL     1       6.366   4.957  14.826  0.00  0.00    +0.000 OA
ATOM     17  C   UNL     1       5.680   3.418  16.574  0.00  0.00    +0.000 C 
ATOM     18  C   UNL     1       4.925   3.745  17.875  0.00  0.00    +0.000 C 
ATOM     19  C   UNL     1       4.233   5.062  17.545  0.00  0.00    +0.000 C 
ENDROOT
BRANCH   6  20
ATOM     20  N   UNL     1      -0.455  10.262  21.470  0.00  0.00    +0.000 N 
ATOM     21  C   UNL     1      -0.426  10.318  22.837  0.00  0.00    +0.000 C 
ATOM     22  N   UNL     1      -1.431  11.087  23.369  0.00  0.00    +0.000 N 
ATOM     23  O   UNL     1       0.342   9.768  23.615  0.00  0.00    +0.000 OA
ATOM     24  H   UNL     1      -1.200  10.742  20.979  0.00  0.00    +0.000 HD
ATOM     25  H   UNL     1      -1.733  11.907  22.864  0.00  0.00    +0.000 HD
ATOM     26  H   UNL     1      -1.341  11.203  24.370  0.00  0.00    +0.000 HD
ENDBRANCH   6  20
BRANCH   1  28
ATOM     27  C   UNL     1       1.780  12.143  18.746  0.00  0.00    +0.000 C 
ATOM     28  O   UNL     1       0.633  11.339  19.080  0.00  0.00    +0.000 OA
ENDBRANCH   1  28
TORSDOF 2
ENDMDL
MODEL 7
REMARK VINA RESULT:      -7.7      3.528      8.048
REMARK  Name = 
REMARK  4 active torsions:
REMARK  status: ('A' for Active; 'I' for Inactive)
REMARK    1  A    between atoms: C_1  and  O_2
REMARK    2  A    between atoms: O_2  and  C_3
REMARK    3  A    between atoms: C_8  and  N_9
REMARK    4  A    between atoms: C_19  and  C_20
REMARK                            x       y       z     vdW  Elec       q    Type
REMARK                         _______ _______ _______ _____ _____    ______ ____
ROOT
ATOM      1  C   UNL     1       3.251   5.520  17.911  0.00  0.00    +0.000 A 
ATOM      2  C   UNL     1       2.936   6.879  18.049  0.00  0.00    +0.000 A 
ATOM      3  C   UNL     1       2.246   7.396  19.144  0.00  0.00    +0.000 A 
ATOM      4  C   UNL     1       1.845   6.515  20.147  0.00  0.00    +0.000 A 
ATOM      5  C   UNL     1       2.141   5.143  20.017  0.00  0.00    +0.000 A 
ATOM      6  C   UNL     1       2.843   4.625  18.916  0.00  0.00    +0.000 A 
ATOM      7  C   UNL     1       1.030   6.980  21.328  0.00  0.00    +0.000 C 
ATOM      8  C   UNL     1       1.083   8.495  21.552  0.00  0.00    +0.000 C 
ATOM      9  C   UNL     1       0.881   9.241  20.227  0.00  0.00    +0.000 C 
ATOM     10  C   UNL     1       2.057   8.894  19.272  0.00  0.00    +0.000 C 
ATOM     11  C   UNL     1       1.938   9.646  17.919  0.00  0.00    +0.000 C 
ATOM     12  C   UNL     1       1.771  11.156  18.086  0.00  0.00    +0.000 C 
ATOM     13  C   UNL     1       0.605  11.461  19.015  0.00  0.00    +0.000 C 
ATOM     14  C   UNL     1      -0.737  11.144  18.330  0.00  0.00    +0.000 C 
ATOM     15  C   UNL     1       0.517  12.885  19.520  0.00  0.00    +0.000 C 
ATOM     16  O   UNL     1       0.805  13.876  18.865  0.00  0.00    +0.000 OA
ATOM     17  C   UNL     1      -0.007  12.924  20.945  0.00  0.00    +0.000 C 
ATOM     18  C   UNL     1      -0.135  11.435  21.315  0.00  0.00    +0.000 C 
ATOM     19  C   UNL     1       0.857  10.764  20.372  0.00  0.00    +0.000 C 
ENDROOT
BRANCH   6  20
ATOM     20  N   UNL     1       3.165   3.234  18.826  0.00  0.00    +0.000 N 
ATOM     21  C   UNL     1       4.331   2.640  19.230  0.00  0.00    +0.000 C 
ATOM     22  N   UNL     1       4.380   1.298  18.949  0.00  0.00    +0.000 N 
ATOM     23  O   UNL     1       5.307   3.145  19.769  0.00  0.00    +0.000 OA
ATOM     24  H   UNL     1       2.475   2.671  18.344  0.00  0.00    +0.000 HD
ATOM     25  H   UNL     1       3.528   0.760  19.000  0.00  0.00    +0.000 HD
ATOM     26  H   UNL     1       5.199   0.851  19.340  0.00  0.00    +0.000 HD
ENDBRANCH   6  20
BRANCH   1  28
ATOM     27  C   UNL     1       5.349   5.444  16.810  0.00  0.00    +0.000 C 
ATOM     28  O   UNL     1       3.958   5.070  16.813  0.00  0.00    +0.000 OA
ENDBRANCH   1  28
TORSDOF 2
ENDMDL
MODEL 8
REMARK VINA RESULT:      -7.5      3.368      7.572
REMARK  Name = 
REMARK  4 active torsions:
REMARK  status: ('A' for Active; 'I' for Inactive)
REMARK    1  A    between atoms: C_1  and  O_2
REMARK    2  A    between atoms: O_2  and  C_3
REMARK    3  A    between atoms: C_8  and  N_9
REMARK    4  A    between atoms: C_19  and  C_20
REMARK                            x       y       z     vdW  Elec       q    Type
REMARK                         _______ _______ _______ _____ _____    ______ ____
ROOT
ATOM      1  C   UNL     1       2.446   4.791  20.784  0.00  0.00    +0.000 A 
ATOM      2  C   UNL     1       1.707   5.979  20.850  0.00  0.00    +0.000 A 
ATOM      3  C   UNL     1       1.797   6.988  19.892  0.00  0.00    +0.000 A 
ATOM      4  C   UNL     1       2.669   6.805  18.820  0.00  0.00    +0.000 A 
ATOM      5  C   UNL     1       3.431   5.622  18.747  0.00  0.00    +0.000 A 
ATOM      6  C   UNL     1       3.334   4.603  19.709  0.00  0.00    +0.000 A 
ATOM      7  C   UNL     1       2.880   7.878  17.782  0.00  0.00    +0.000 C 
ATOM      8  C   UNL     1       1.768   8.932  17.751  0.00  0.00    +0.000 C 
ATOM      9  C   UNL     1       1.428   9.394  19.174  0.00  0.00    +0.000 C 
ATOM     10  C   UNL     1       0.870   8.185  19.974  0.00  0.00    +0.000 C 
ATOM     11  C   UNL     1       0.468   8.589  21.418  0.00  0.00    +0.000 C 
ATOM     12  C   UNL     1      -0.483   9.784  21.462  0.00  0.00    +0.000 C 
ATOM     13  C   UNL     1       0.098  10.954  20.682  0.00  0.00    +0.000 C 
ATOM     14  C   UNL     1       1.295  11.570  21.430  0.00  0.00    +0.000 C 
ATOM     15  C   UNL     1      -0.860  12.084  20.373  0.00  0.00    +0.000 C 
ATOM     16  O   UNL     1      -1.741  12.475  21.125  0.00  0.00    +0.000 OA
ATOM     17  C   UNL     1      -0.562  12.694  19.014  0.00  0.00    +0.000 C 
ATOM     18  C   UNL     1       0.566  11.800  18.467  0.00  0.00    +0.000 C 
ATOM     19  C   UNL     1       0.367  10.495  19.230  0.00  0.00    +0.000 C 
ENDROOT
BRANCH   6  20
ATOM     20  N   UNL     1       4.089   3.394  19.591  0.00  0.00    +0.000 N 
ATOM     21  C   UNL     1       3.697   2.248  18.952  0.00  0.00    +0.000 C 
ATOM     22  N   UNL     1       4.605   1.225  19.069  0.00  0.00    +0.000 N 
ATOM     23  O   UNL     1       2.665   2.024  18.335  0.00  0.00    +0.000 OA
ATOM     24  H   UNL     1       4.962   3.390  20.104  0.00  0.00    +0.000 HD
ATOM     25  H   UNL     1       5.589   1.450  19.085  0.00  0.00    +0.000 HD
ATOM     26  H   UNL     1       4.354   0.419  18.512  0.00  0.00    +0.000 HD
ENDBRANCH   6  20
BRANCH   1  28
ATOM     27  C   UNL     1       1.241   2.873  21.486  0.00  0.00    +0.000 C 
ATOM     28  O   UNL     1       2.298   3.815  21.751  0.00  0.00    +0.000 OA
ENDBRANCH   1  28
TORSDOF 2
ENDMDL
MODEL 9
REMARK VINA RESULT:      -7.4      1.890      3.263
REMARK  Name = 
REMARK  4 active torsions:
REMARK  status: ('A' for Active; 'I' for Inactive)
REMARK    1  A    between atoms: C_1  and  O_2
REMARK    2  A    between atoms: O_2  and  C_3
REMARK    3  A    between atoms: C_8  and  N_9
REMARK    4  A    between atoms: C_19  and  C_20
REMARK                            x       y       z     vdW  Elec       q    Type
REMARK                         _______ _______ _______ _____ _____    ______ ____
ROOT
ATOM      1  C   UNL     1       1.253  11.021  18.934  0.00  0.00    +0.000 A 
ATOM      2  C   UNL     1       1.849   9.842  18.465  0.00  0.00    +0.000 A 
ATOM      3  C   UNL     1       1.824   8.641  19.172  0.00  0.00    +0.000 A 
ATOM      4  C   UNL     1       1.178   8.615  20.407  0.00  0.00    +0.000 A 
ATOM      5  C   UNL     1       0.586   9.795  20.899  0.00  0.00    +0.000 A 
ATOM      6  C   UNL     1       0.606  11.004  20.182  0.00  0.00    +0.000 A 
ATOM      7  C   UNL     1       1.169   7.377  21.268  0.00  0.00    +0.000 C 
ATOM      8  C   UNL     1       1.506   6.093  20.502  0.00  0.00    +0.000 C 
ATOM      9  C   UNL     1       2.731   6.310  19.603  0.00  0.00    +0.000 C 
ATOM     10  C   UNL     1       2.385   7.385  18.535  0.00  0.00    +0.000 C 
ATOM     11  C   UNL     1       3.571   7.630  17.564  0.00  0.00    +0.000 C 
ATOM     12  C   UNL     1       4.096   6.346  16.925  0.00  0.00    +0.000 C 
ATOM     13  C   UNL     1       4.438   5.321  17.996  0.00  0.00    +0.000 C 
ATOM     14  C   UNL     1       5.701   5.739  18.771  0.00  0.00    +0.000 C 
ATOM     15  C   UNL     1       4.666   3.906  17.510  0.00  0.00    +0.000 C 
ATOM     16  O   UNL     1       5.211   3.611  16.456  0.00  0.00    +0.000 OA
ATOM     17  C   UNL     1       4.156   2.894  18.521  0.00  0.00    +0.000 C 
ATOM     18  C   UNL     1       3.508   3.775  19.605  0.00  0.00    +0.000 C 
ATOM     19  C   UNL     1       3.175   5.056  18.848  0.00  0.00    +0.000 C 
ENDROOT
BRANCH   6  20
ATOM     20  N   UNL     1      -0.036  12.178  20.686  0.00  0.00    +0.000 N 
ATOM     21  C   UNL     1       0.570  13.229  21.321  0.00  0.00    +0.000 C 
ATOM     22  N   UNL     1      -0.316  14.182  21.758  0.00  0.00    +0.000 N 
ATOM     23  O   UNL     1       1.757  13.404  21.560  0.00  0.00    +0.000 OA
ATOM     24  H   UNL     1      -1.046  12.169  20.618  0.00  0.00    +0.000 HD
ATOM     25  H   UNL     1      -1.139  14.369  21.203  0.00  0.00    +0.000 HD
ATOM     26  H   UNL     1       0.148  14.998  22.135  0.00  0.00    +0.000 HD
ENDBRANCH   6  20
BRANCH   1  28
ATOM     27  C   UNL     1       2.579  12.820  18.142  0.00  0.00    +0.000 C 
ATOM     28  O   UNL     1       1.290  12.177  18.178  0.00  0.00    +0.000 OA
ENDBRANCH   1  28
TORSDOF 2
ENDMDL
