MODEL 1
REMARK VINA RESULT:      -6.6      0.000      0.000
REMARK  Name = 
REMARK  13 active torsions:
REMARK  status: ('A' for Active; 'I' for Inactive)
REMARK    1  A    between atoms: C_1  and  C_2
REMARK    2  A    between atoms: C_2  and  O_3
REMARK    3  A    between atoms: O_3  and  C_4
REMARK    4  A    between atoms: C_4  and  C_6
REMARK    5  A    between atoms: C_8  and  O_9
REMARK    6  A    between atoms: N_11  and  S_12
REMARK    7  A    between atoms: S_12  and  C_15
REMARK    8  A    between atoms: C_18  and  S_19
REMARK    9  A    between atoms: S_19  and  N_22
REMARK   10  A    between atoms: N_22  and  C_23
REMARK   11  A    between atoms: N_22  and  C_25
REMARK   12  A    between atoms: C_23  and  C_24
REMARK   13  A    between atoms: C_25  and  C_26
REMARK                            x       y       z     vdW  Elec       q    Type
REMARK                         _______ _______ _______ _____ _____    ______ ____
ROOT
ATOM      1  S   UNL     1      -0.080  10.132  19.921  0.00  0.00    +0.000 S 
ATOM      2  O   UNL     1      -0.565   9.844  21.252  0.00  0.00    +0.000 OA
ATOM      3  O   UNL     1      -0.957  10.147  18.769  0.00  0.00    +0.000 OA
ENDROOT
BRANCH   1   8
ATOM      4  C   UNL     1      -0.813  13.484  20.894  0.00  0.00    +0.000 C 
ATOM      5  C   UNL     1      -0.618  14.283  19.603  0.00  0.00    +0.000 C 
ATOM      6  C   UNL     1      -0.314  13.400  18.395  0.00  0.00    +0.000 C 
ATOM      7  C   UNL     1       0.820  12.397  18.650  0.00  0.00    +0.000 C 
ATOM      8  N   UNL     1       0.674  11.652  19.936  0.00  0.00    +0.000 NA
ATOM      9  C   UNL     1       0.364  12.528  21.102  0.00  0.00    +0.000 C 
BRANCH   4  10
ATOM     10  C   UNL     1      -2.232  12.933  20.990  0.00  0.00    +0.000 C 
ATOM     11  O   UNL     1      -3.092  13.200  20.153  0.00  0.00    +0.000 OA
BRANCH  10  12
ATOM     12  O   UNL     1      -2.476  12.235  22.120  0.00  0.00    +0.000 OA
BRANCH  12  14
ATOM     13  C   UNL     1      -3.087  13.686  23.998  0.00  0.00    +0.000 C 
ATOM     14  C   UNL     1      -3.569  12.726  22.925  0.00  0.00    +0.000 C 
ENDBRANCH  12  14
ENDBRANCH  10  12
ENDBRANCH   4  10
BRANCH   6  15
ATOM     15  O   UNL     1      -1.501  12.757  17.946  0.00  0.00    +0.000 OA
ATOM     16  H   UNL     1      -2.181  12.770  18.652  0.00  0.00    +0.000 HD
ENDBRANCH   6  15
ENDBRANCH   1   8
BRANCH   1  17
ATOM     17  C   UNL     1       1.175   8.915  19.592  0.00  0.00    +0.000 A 
ATOM     18  C   UNL     1       1.815   8.813  18.358  0.00  0.00    +0.000 A 
ATOM     19  C   UNL     1       2.656   7.717  18.108  0.00  0.00    +0.000 A 
ATOM     20  C   UNL     1       2.869   6.743  19.098  0.00  0.00    +0.000 A 
ATOM     21  C   UNL     1       2.269   6.893  20.357  0.00  0.00    +0.000 A 
ATOM     22  C   UNL     1       1.438   7.986  20.609  0.00  0.00    +0.000 A 
BRANCH  20  23
ATOM     23  S   UNL     1       3.521   5.146  18.622  0.00  0.00    +0.000 S 
ATOM     24  O   UNL     1       3.680   5.196  17.179  0.00  0.00    +0.000 OA
ATOM     25  O   UNL     1       4.669   4.912  19.468  0.00  0.00    +0.000 OA
BRANCH  23  26
ATOM     26  N   UNL     1       2.346   3.900  18.958  0.00  0.00    +0.000 NA
BRANCH  26  27
ATOM     27  C   UNL     1       2.300   2.824  17.901  0.00  0.00    +0.000 C 
ATOM     28  C   UNL     1       3.376   1.755  18.054  0.00  0.00    +0.000 C 
ENDBRANCH  26  27
BRANCH  26  29
ATOM     29  C   UNL     1       2.622   3.268  20.314  0.00  0.00    +0.000 C 
ATOM     30  C   UNL     1       1.388   2.919  21.129  0.00  0.00    +0.000 C 
ENDBRANCH  26  29
ENDBRANCH  23  26
ENDBRANCH  20  23
ENDBRANCH   1  17
TORSDOF 10
ENDMDL
MODEL 2
REMARK VINA RESULT:      -6.5      2.064      8.657
REMARK  Name = 
REMARK  13 active torsions:
REMARK  status: ('A' for Active; 'I' for Inactive)
REMARK    1  A    between atoms: C_1  and  C_2
REMARK    2  A    between atoms: C_2  and  O_3
REMARK    3  A    between atoms: O_3  and  C_4
REMARK    4  A    between atoms: C_4  and  C_6
REMARK    5  A    between atoms: C_8  and  O_9
REMARK    6  A    between atoms: N_11  and  S_12
REMARK    7  A    between atoms: S_12  and  C_15
REMARK    8  A    between atoms: C_18  and  S_19
REMARK    9  A    between atoms: S_19  and  N_22
REMARK   10  A    between atoms: N_22  and  C_23
REMARK   11  A    between atoms: N_22  and  C_25
REMARK   12  A    between atoms: C_23  and  C_24
REMARK   13  A    between atoms: C_25  and  C_26
REMARK                            x       y       z     vdW  Elec       q    Type
REMARK                         _______ _______ _______ _____ _____    ______ ____
ROOT
ATOM      1  S   UNL     1       3.942   5.866  18.586  0.00  0.00    +0.000 S 
ATOM      2  O   UNL     1       3.898   5.194  19.865  0.00  0.00    +0.000 OA
ATOM      3  O   UNL     1       5.167   6.421  18.050  0.00  0.00    +0.000 OA
ENDROOT
BRANCH   1   8
ATOM      4  C   UNL     1       1.465   3.326  18.222  0.00  0.00    +0.000 C 
ATOM      5  C   UNL     1       2.272   2.094  17.805  0.00  0.00    +0.000 C 
ATOM      6  C   UNL     1       3.780   2.340  17.809  0.00  0.00    +0.000 C 
ATOM      7  C   UNL     1       4.187   3.606  17.040  0.00  0.00    +0.000 C 
ATOM      8  N   UNL     1       3.367   4.803  17.395  0.00  0.00    +0.000 NA
ATOM      9  C   UNL     1       1.899   4.541  17.400  0.00  0.00    +0.000 C 
BRANCH   4  10
ATOM     10  C   UNL     1       1.401   3.451  19.741  0.00  0.00    +0.000 C 
ATOM     11  O   UNL     1       1.024   4.482  20.293  0.00  0.00    +0.000 OA
BRANCH  10  12
ATOM     12  O   UNL     1       1.898   2.384  20.403  0.00  0.00    +0.000 OA
BRANCH  12  14
ATOM     13  C   UNL     1       0.993   2.183  22.672  0.00  0.00    +0.000 C 
ATOM     14  C   UNL     1       2.169   2.599  21.804  0.00  0.00    +0.000 C 
ENDBRANCH  12  14
ENDBRANCH  10  12
ENDBRANCH   4  10
BRANCH   6  15
ATOM     15  O   UNL     1       4.273   2.345  19.142  0.00  0.00    +0.000 OA
ATOM     16  H   UNL     1       3.806   3.025  19.673  0.00  0.00    +0.000 HD
ENDBRANCH   6  15
ENDBRANCH   1   8
BRANCH   1  17
ATOM     17  C   UNL     1       2.783   7.210  18.708  0.00  0.00    +0.000 A 
ATOM     18  C   UNL     1       2.586   8.126  17.677  0.00  0.00    +0.000 A 
ATOM     19  C   UNL     1       1.799   9.265  17.909  0.00  0.00    +0.000 A 
ATOM     20  C   UNL     1       1.196   9.470  19.162  0.00  0.00    +0.000 A 
ATOM     21  C   UNL     1       1.351   8.508  20.170  0.00  0.00    +0.000 A 
ATOM     22  C   UNL     1       2.128   7.371  19.938  0.00  0.00    +0.000 A 
BRANCH  20  23
ATOM     23  S   UNL     1       0.625  11.109  19.595  0.00  0.00    +0.000 S 
ATOM     24  O   UNL     1       0.187  11.025  20.978  0.00  0.00    +0.000 OA
ATOM     25  O   UNL     1       1.688  12.016  19.228  0.00  0.00    +0.000 OA
BRANCH  23  26
ATOM     26  N   UNL     1      -0.781  11.518  18.645  0.00  0.00    +0.000 NA
BRANCH  26  27
ATOM     27  C   UNL     1      -1.760  10.377  18.509  0.00  0.00    +0.000 C 
ATOM     28  C   UNL     1      -2.003   9.933  17.071  0.00  0.00    +0.000 C 
ENDBRANCH  26  27
BRANCH  26  29
ATOM     29  C   UNL     1      -1.489  12.725  19.244  0.00  0.00    +0.000 C 
ATOM     30  C   UNL     1      -2.873  12.450  19.806  0.00  0.00    +0.000 C 
ENDBRANCH  26  29
ENDBRANCH  23  26
ENDBRANCH  20  23
ENDBRANCH   1  17
TORSDOF 10
ENDMDL
MODEL 3
REMARK VINA RESULT:      -6.5      1.879      2.521
REMARK  Name = 
REMARK  13 active torsions:
REMARK  status: ('A' for Active; 'I' for Inactive)
REMARK    1  A    between atoms: C_1  and  C_2
REMARK    2  A    between atoms: C_2  and  O_3
REMARK    3  A    between atoms: O_3  and  C_4
REMARK    4  A    between atoms: C_4  and  C_6
REMARK    5  A    between atoms: C_8  and  O_9
REMARK    6  A    between atoms: N_11  and  S_12
REMARK    7  A    between atoms: S_12  and  C_15
REMARK    8  A    between atoms: C_18  and  S_19
REMARK    9  A    between atoms: S_19  and  N_22
REMARK   10  A    between atoms: N_22  and  C_23
REMARK   11  A    between atoms: N_22  and  C_25
REMARK   12  A    between atoms: C_23  and  C_24
REMARK   13  A    between atoms: C_25  and  C_26
REMARK                            x       y       z     vdW  Elec       q    Type
REMARK                         _______ _______ _______ _____ _____    ______ ____
ROOT
ATOM      1  S   UNL     1       0.302  10.013  19.406  0.00  0.00    +0.000 S 
ATOM      2  O   UNL     1      -0.349   9.626  20.637  0.00  0.00    +0.000 OA
ATOM      3  O   UNL     1      -0.429  10.163  18.164  0.00  0.00    +0.000 OA
ENDROOT
BRANCH   1   8
ATOM      4  C   UNL     1      -0.383  13.209  20.833  0.00  0.00    +0.000 C 
ATOM      5  C   UNL     1      -0.143  14.179  19.673  0.00  0.00    +0.000 C 
ATOM      6  C   UNL     1       0.168  13.469  18.357  0.00  0.00    +0.000 C 
ATOM      7  C   UNL     1       1.276  12.414  18.487  0.00  0.00    +0.000 C 
ATOM      8  N   UNL     1       1.086  11.497  19.651  0.00  0.00    +0.000 NA
ATOM      9  C   UNL     1       0.770  12.206  20.924  0.00  0.00    +0.000 C 
BRANCH   4  10
ATOM     10  C   UNL     1      -1.814  12.684  20.823  0.00  0.00    +0.000 C 
ATOM     11  O   UNL     1      -2.641  13.063  19.997  0.00  0.00    +0.000 OA
BRANCH  10  12
ATOM     12  O   UNL     1      -2.108  11.869  21.859  0.00  0.00    +0.000 OA
BRANCH  12  14
ATOM     13  C   UNL     1      -3.807  12.714  23.412  0.00  0.00    +0.000 C 
ATOM     14  C   UNL     1      -2.327  12.532  23.123  0.00  0.00    +0.000 C 
ENDBRANCH  12  14
ENDBRANCH  10  12
ENDBRANCH   4  10
BRANCH   6  15
ATOM     15  O   UNL     1      -1.022  12.926  17.799  0.00  0.00    +0.000 OA
ATOM     16  H   UNL     1      -0.800  12.278  17.096  0.00  0.00    +0.000 HD
ENDBRANCH   6  15
ENDBRANCH   1   8
BRANCH   1  17
ATOM     17  C   UNL     1       1.556   8.786  19.116  0.00  0.00    +0.000 A 
ATOM     18  C   UNL     1       2.281   8.721  17.927  0.00  0.00    +0.000 A 
ATOM     19  C   UNL     1       3.118   7.619  17.692  0.00  0.00    +0.000 A 
ATOM     20  C   UNL     1       3.244   6.602  18.653  0.00  0.00    +0.000 A 
ATOM     21  C   UNL     1       2.558   6.713  19.871  0.00  0.00    +0.000 A 
ATOM     22  C   UNL     1       1.730   7.812  20.109  0.00  0.00    +0.000 A 
BRANCH  20  23
ATOM     23  S   UNL     1       3.901   5.013  18.159  0.00  0.00    +0.000 S 
ATOM     24  O   UNL     1       4.425   4.406  19.370  0.00  0.00    +0.000 OA
ATOM     25  O   UNL     1       2.850   4.356  17.417  0.00  0.00    +0.000 OA
BRANCH  23  26
ATOM     26  N   UNL     1       5.255   5.241  17.081  0.00  0.00    +0.000 NA
BRANCH  26  27
ATOM     27  C   UNL     1       6.580   4.868  17.702  0.00  0.00    +0.000 C 
ATOM     28  C   UNL     1       7.426   6.063  18.127  0.00  0.00    +0.000 C 
ENDBRANCH  26  27
BRANCH  26  29
ATOM     29  C   UNL     1       5.052   4.440  15.804  0.00  0.00    +0.000 C 
ATOM     30  C   UNL     1       6.326   3.950  15.137  0.00  0.00    +0.000 C 
ENDBRANCH  26  29
ENDBRANCH  23  26
ENDBRANCH  20  23
ENDBRANCH   1  17
TORSDOF 10
ENDMDL
MODEL 4
REMARK VINA RESULT:      -6.5      2.250      9.178
REMARK  Name = 
REMARK  13 active torsions:
REMARK  status: ('A' for Active; 'I' for Inactive)
REMARK    1  A    between atoms: C_1  and  C_2
REMARK    2  A    between atoms: C_2  and  O_3
REMARK    3  A    between atoms: O_3  and  C_4
REMARK    4  A    between atoms: C_4  and  C_6
REMARK    5  A    between atoms: C_8  and  O_9
REMARK    6  A    between atoms: N_11  and  S_12
REMARK    7  A    between atoms: S_12  and  C_15
REMARK    8  A    between atoms: C_18  and  S_19
REMARK    9  A    between atoms: S_19  and  N_22
REMARK   10  A    between atoms: N_22  and  C_23
REMARK   11  A    between atoms: N_22  and  C_25
REMARK   12  A    between atoms: C_23  and  C_24
REMARK   13  A    between atoms: C_25  and  C_26
REMARK                            x       y       z     vdW  Elec       q    Type
REMARK                         _______ _______ _______ _____ _____    ______ ____
ROOT
ATOM      1  S   UNL     1       2.625   6.352  18.580  0.00  0.00    +0.000 S 
ATOM      2  O   UNL     1       4.028   6.504  18.269  0.00  0.00    +0.000 OA
ATOM      3  O   UNL     1       1.678   5.821  17.620  0.00  0.00    +0.000 OA
ENDROOT
BRANCH   1   8
ATOM      4  C   UNL     1       3.580   3.092  19.664  0.00  0.00    +0.000 C 
ATOM      5  C   UNL     1       2.248   2.428  20.023  0.00  0.00    +0.000 C 
ATOM      6  C   UNL     1       1.040   3.302  19.694  0.00  0.00    +0.000 C 
ATOM      7  C   UNL     1       1.159   4.730  20.245  0.00  0.00    +0.000 C 
ATOM      8  N   UNL     1       2.477   5.369  19.954  0.00  0.00    +0.000 NA
ATOM      9  C   UNL     1       3.645   4.497  20.268  0.00  0.00    +0.000 C 
BRANCH   4  10
ATOM     10  C   UNL     1       3.903   2.913  18.185  0.00  0.00    +0.000 C 
ATOM     11  O   UNL     1       3.393   2.021  17.511  0.00  0.00    +0.000 OA
BRANCH  10  12
ATOM     12  O   UNL     1       4.869   3.739  17.728  0.00  0.00    +0.000 OA
BRANCH  12  14
ATOM     13  C   UNL     1       5.438   5.010  15.711  0.00  0.00    +0.000 C 
ATOM     14  C   UNL     1       5.142   3.647  16.314  0.00  0.00    +0.000 C 
ENDBRANCH  12  14
ENDBRANCH  10  12
ENDBRANCH   4  10
BRANCH   6  15
ATOM     15  O   UNL     1       0.792   3.291  18.294  0.00  0.00    +0.000 OA
ATOM     16  H   UNL     1       0.699   4.208  17.959  0.00  0.00    +0.000 HD
ENDBRANCH   6  15
ENDBRANCH   1   8
BRANCH   1  17
ATOM     17  C   UNL     1       2.049   7.977  19.019  0.00  0.00    +0.000 A 
ATOM     18  C   UNL     1       1.482   8.262  20.259  0.00  0.00    +0.000 A 
ATOM     19  C   UNL     1       0.881   9.512  20.470  0.00  0.00    +0.000 A 
ATOM     20  C   UNL     1       0.871  10.479  19.450  0.00  0.00    +0.000 A 
ATOM     21  C   UNL     1       1.503  10.202  18.229  0.00  0.00    +0.000 A 
ATOM     22  C   UNL     1       2.107   8.960  18.020  0.00  0.00    +0.000 A 
BRANCH  20  23
ATOM     23  S   UNL     1      -0.289  11.837  19.548  0.00  0.00    +0.000 S 
ATOM     24  O   UNL     1      -0.371  12.187  20.956  0.00  0.00    +0.000 OA
ATOM     25  O   UNL     1       0.157  12.818  18.585  0.00  0.00    +0.000 OA
BRANCH  23  26
ATOM     26  N   UNL     1      -1.878  11.297  19.068  0.00  0.00    +0.000 NA
BRANCH  26  27
ATOM     27  C   UNL     1      -2.991  12.141  19.641  0.00  0.00    +0.000 C 
ATOM     28  C   UNL     1      -4.333  11.958  18.942  0.00  0.00    +0.000 C 
ENDBRANCH  26  27
BRANCH  26  29
ATOM     29  C   UNL     1      -1.989  11.273  17.551  0.00  0.00    +0.000 C 
ATOM     30  C   UNL     1      -1.970   9.890  16.923  0.00  0.00    +0.000 C 
ENDBRANCH  26  29
ENDBRANCH  23  26
ENDBRANCH  20  23
ENDBRANCH   1  17
TORSDOF 10
ENDMDL
MODEL 5
REMARK VINA RESULT:      -6.5      0.917      1.484
REMARK  Name = 
REMARK  13 active torsions:
REMARK  status: ('A' for Active; 'I' for Inactive)
REMARK    1  A    between atoms: C_1  and  C_2
REMARK    2  A    between atoms: C_2  and  O_3
REMARK    3  A    between atoms: O_3  and  C_4
REMARK    4  A    between atoms: C_4  and  C_6
REMARK    5  A    between atoms: C_8  and  O_9
REMARK    6  A    between atoms: N_11  and  S_12
REMARK    7  A    between atoms: S_12  and  C_15
REMARK    8  A    between atoms: C_18  and  S_19
REMARK    9  A    between atoms: S_19  and  N_22
REMARK   10  A    between atoms: N_22  and  C_23
REMARK   11  A    between atoms: N_22  and  C_25
REMARK   12  A    between atoms: C_23  and  C_24
REMARK   13  A    between atoms: C_25  and  C_26
REMARK                            x       y       z     vdW  Elec       q    Type
REMARK                         _______ _______ _______ _____ _____    ______ ____
ROOT
ATOM      1  S   UNL     1       0.227  10.533  20.248  0.00  0.00    +0.000 S 
ATOM      2  O   UNL     1       0.124  10.396  21.683  0.00  0.00    +0.000 OA
ATOM      3  O   UNL     1      -0.942  10.567  19.393  0.00  0.00    +0.000 OA
ENDROOT
BRANCH   1   8
ATOM      4  C   UNL     1      -0.057  14.045  20.799  0.00  0.00    +0.000 C 
ATOM      5  C   UNL     1      -0.040  14.633  19.386  0.00  0.00    +0.000 C 
ATOM      6  C   UNL     1      -0.031  13.563  18.296  0.00  0.00    +0.000 C 
ATOM      7  C   UNL     1       1.051  12.495  18.507  0.00  0.00    +0.000 C 
ATOM      8  N   UNL     1       1.085  11.954  19.900  0.00  0.00    +0.000 NA
ATOM      9  C   UNL     1       1.061  13.012  20.951  0.00  0.00    +0.000 C 
BRANCH   4  10
ATOM     10  C   UNL     1      -1.473  13.662  21.217  0.00  0.00    +0.000 C 
ATOM     11  O   UNL     1      -2.459  14.016  20.576  0.00  0.00    +0.000 OA
BRANCH  10  12
ATOM     12  O   UNL     1      -1.540  13.010  22.399  0.00  0.00    +0.000 OA
BRANCH  12  14
ATOM     13  C   UNL     1      -1.450  14.639  24.228  0.00  0.00    +0.000 C 
ATOM     14  C   UNL     1      -2.306  13.674  23.427  0.00  0.00    +0.000 C 
ENDBRANCH  12  14
ENDBRANCH  10  12
ENDBRANCH   4  10
BRANCH   6  15
ATOM     15  O   UNL     1      -1.325  12.990  18.158  0.00  0.00    +0.000 OA
ATOM     16  H   UNL     1      -1.873  13.534  17.553  0.00  0.00    +0.000 HD
ENDBRANCH   6  15
ENDBRANCH   1   8
BRANCH   1  17
ATOM     17  C   UNL     1       1.219   9.161  19.702  0.00  0.00    +0.000 A 
ATOM     18  C   UNL     1       1.652   9.026  18.385  0.00  0.00    +0.000 A 
ATOM     19  C   UNL     1       2.269   7.831  17.983  0.00  0.00    +0.000 A 
ATOM     20  C   UNL     1       2.470   6.789  18.903  0.00  0.00    +0.000 A 
ATOM     21  C   UNL     1       2.087   6.964  20.241  0.00  0.00    +0.000 A 
ATOM     22  C   UNL     1       1.479   8.155  20.644  0.00  0.00    +0.000 A 
BRANCH  20  23
ATOM     23  S   UNL     1       2.793   5.138  18.292  0.00  0.00    +0.000 S 
ATOM     24  O   UNL     1       1.580   4.723  17.610  0.00  0.00    +0.000 OA
ATOM     25  O   UNL     1       4.040   5.215  17.567  0.00  0.00    +0.000 OA
BRANCH  23  26
ATOM     26  N   UNL     1       3.019   4.043  19.633  0.00  0.00    +0.000 NA
BRANCH  26  27
ATOM     27  C   UNL     1       1.740   3.378  20.080  0.00  0.00    +0.000 C 
ATOM     28  C   UNL     1       1.740   2.947  21.542  0.00  0.00    +0.000 C 
ENDBRANCH  26  27
BRANCH  26  29
ATOM     29  C   UNL     1       4.046   2.979  19.275  0.00  0.00    +0.000 C 
ATOM     30  C   UNL     1       3.517   1.823  18.443  0.00  0.00    +0.000 C 
ENDBRANCH  26  29
ENDBRANCH  23  26
ENDBRANCH  20  23
ENDBRANCH   1  17
TORSDOF 10
ENDMDL
MODEL 6
REMARK VINA RESULT:      -6.5      2.122      9.425
REMARK  Name = 
REMARK  13 active torsions:
REMARK  status: ('A' for Active; 'I' for Inactive)
REMARK    1  A    between atoms: C_1  and  C_2
REMARK    2  A    between atoms: C_2  and  O_3
REMARK    3  A    between atoms: O_3  and  C_4
REMARK    4  A    between atoms: C_4  and  C_6
REMARK    5  A    between atoms: C_8  and  O_9
REMARK    6  A    between atoms: N_11  and  S_12
REMARK    7  A    between atoms: S_12  and  C_15
REMARK    8  A    between atoms: C_18  and  S_19
REMARK    9  A    between atoms: S_19  and  N_22
REMARK   10  A    between atoms: N_22  and  C_23
REMARK   11  A    between atoms: N_22  and  C_25
REMARK   12  A    between atoms: C_23  and  C_24
REMARK   13  A    between atoms: C_25  and  C_26
REMARK                            x       y       z     vdW  Elec       q    Type
REMARK                         _______ _______ _______ _____ _____    ______ ____
ROOT
ATOM      1  S   UNL     1       2.805   6.417  18.308  0.00  0.00    +0.000 S 
ATOM      2  O   UNL     1       3.864   6.732  17.376  0.00  0.00    +0.000 OA
ATOM      3  O   UNL     1       1.657   5.621  17.927  0.00  0.00    +0.000 OA
ENDROOT
BRANCH   1   8
ATOM      4  C   UNL     1       4.616   3.432  19.035  0.00  0.00    +0.000 C 
ATOM      5  C   UNL     1       3.732   2.717  20.060  0.00  0.00    +0.000 C 
ATOM      6  C   UNL     1       2.405   3.432  20.305  0.00  0.00    +0.000 C 
ATOM      7  C   UNL     1       2.572   4.928  20.607  0.00  0.00    +0.000 C 
ATOM      8  N   UNL     1       3.480   5.627  19.649  0.00  0.00    +0.000 NA
ATOM      9  C   UNL     1       4.765   4.909  19.411  0.00  0.00    +0.000 C 
BRANCH   4  10
ATOM     10  C   UNL     1       4.206   3.075  17.611  0.00  0.00    +0.000 C 
ATOM     11  O   UNL     1       3.649   2.014  17.341  0.00  0.00    +0.000 OA
BRANCH  10  12
ATOM     12  O   UNL     1       4.610   3.968  16.681  0.00  0.00    +0.000 OA
BRANCH  12  14
ATOM     13  C   UNL     1       6.976   4.519  16.351  0.00  0.00    +0.000 C 
ATOM     14  C   UNL     1       5.817   3.615  15.971  0.00  0.00    +0.000 C 
ENDBRANCH  12  14
ENDBRANCH  10  12
ENDBRANCH   4  10
BRANCH   6  15
ATOM     15  O   UNL     1       1.517   3.204  19.218  0.00  0.00    +0.000 OA
ATOM     16  H   UNL     1       1.079   4.043  18.958  0.00  0.00    +0.000 HD
ENDBRANCH   6  15
ENDBRANCH   1   8
BRANCH   1  17
ATOM     17  C   UNL     1       2.176   7.984  18.869  0.00  0.00    +0.000 A 
ATOM     18  C   UNL     1       1.649   8.166  20.146  0.00  0.00    +0.000 A 
ATOM     19  C   UNL     1       1.002   9.372  20.458  0.00  0.00    +0.000 A 
ATOM     20  C   UNL     1       0.906  10.396  19.500  0.00  0.00    +0.000 A 
ATOM     21  C   UNL     1       1.497  10.223  18.241  0.00  0.00    +0.000 A 
ATOM     22  C   UNL     1       2.147   9.026  17.932  0.00  0.00    +0.000 A 
BRANCH  20  23
ATOM     23  S   UNL     1      -0.309  11.690  19.729  0.00  0.00    +0.000 S 
ATOM     24  O   UNL     1       0.101  12.778  18.858  0.00  0.00    +0.000 OA
ATOM     25  O   UNL     1      -1.600  11.066  19.547  0.00  0.00    +0.000 OA
BRANCH  23  26
ATOM     26  N   UNL     1      -0.231  12.295  21.364  0.00  0.00    +0.000 NA
BRANCH  26  27
ATOM     27  C   UNL     1      -0.156  13.800  21.438  0.00  0.00    +0.000 C 
ATOM     28  C   UNL     1      -1.496  14.479  21.700  0.00  0.00    +0.000 C 
ENDBRANCH  26  27
BRANCH  26  29
ATOM     29  C   UNL     1      -1.431  11.808  22.163  0.00  0.00    +0.000 C 
ATOM     30  C   UNL     1      -1.140  10.692  23.152  0.00  0.00    +0.000 C 
ENDBRANCH  26  29
ENDBRANCH  23  26
ENDBRANCH  20  23
ENDBRANCH   1  17
TORSDOF 10
ENDMDL
MODEL 7
REMARK VINA RESULT:      -6.4      2.345      9.294
REMARK  Name = 
REMARK  13 active torsions:
REMARK  status: ('A' for Active; 'I' for Inactive)
REMARK    1  A    between atoms: C_1  and  C_2
REMARK    2  A    between atoms: C_2  and  O_3
REMARK    3  A    between atoms: O_3  and  C_4
REMARK    4  A    between atoms: C_4  and  C_6
REMARK    5  A    between atoms: C_8  and  O_9
REMARK    6  A    between atoms: N_11  and  S_12
REMARK    7  A    between atoms: S_12  and  C_15
REMARK    8  A    between atoms: C_18  and  S_19
REMARK    9  A    between atoms: S_19  and  N_22
REMARK   10  A    between atoms: N_22  and  C_23
REMARK   11  A    between atoms: N_22  and  C_25
REMARK   12  A    between atoms: C_23  and  C_24
REMARK   13  A    between atoms: C_25  and  C_26
REMARK                            x       y       z     vdW  Elec       q    Type
REMARK                         _______ _______ _______ _____ _____    ______ ____
ROOT
ATOM      1  S   UNL     1       2.842   6.799  18.450  0.00  0.00    +0.000 S 
ATOM      2  O   UNL     1       3.899   7.608  17.886  0.00  0.00    +0.000 OA
ATOM      3  O   UNL     1       1.995   5.958  17.628  0.00  0.00    +0.000 OA
ENDROOT
BRANCH   1   8
ATOM      4  C   UNL     1       5.341   4.265  18.670  0.00  0.00    +0.000 C 
ATOM      5  C   UNL     1       4.572   3.045  19.184  0.00  0.00    +0.000 C 
ATOM      6  C   UNL     1       3.069   3.294  19.299  0.00  0.00    +0.000 C 
ATOM      7  C   UNL     1       2.726   4.578  20.066  0.00  0.00    +0.000 C 
ATOM      8  N   UNL     1       3.513   5.765  19.615  0.00  0.00    +0.000 NA
ATOM      9  C   UNL     1       4.976   5.501  19.495  0.00  0.00    +0.000 C 
BRANCH   4  10
ATOM     10  C   UNL     1       5.279   4.352  17.149  0.00  0.00    +0.000 C 
ATOM     11  O   UNL     1       4.952   3.393  16.455  0.00  0.00    +0.000 OA
BRANCH  10  12
ATOM     12  O   UNL     1       5.722   5.525  16.647  0.00  0.00    +0.000 OA
BRANCH  12  14
ATOM     13  C   UNL     1       7.482   7.060  17.394  0.00  0.00    +0.000 C 
ATOM     14  C   UNL     1       7.148   5.734  16.732  0.00  0.00    +0.000 C 
ENDBRANCH  12  14
ENDBRANCH  10  12
ENDBRANCH   4  10
BRANCH   6  15
ATOM     15  O   UNL     1       2.467   3.266  18.011  0.00  0.00    +0.000 OA
ATOM     16  H   UNL     1       3.143   3.080  17.325  0.00  0.00    +0.000 HD
ENDBRANCH   6  15
ENDBRANCH   1   8
BRANCH   1  17
ATOM     17  C   UNL     1       1.766   7.934  19.297  0.00  0.00    +0.000 A 
ATOM     18  C   UNL     1       1.304   9.111  18.709  0.00  0.00    +0.000 A 
ATOM     19  C   UNL     1       0.615  10.047  19.494  0.00  0.00    +0.000 A 
ATOM     20  C   UNL     1       0.370   9.794  20.855  0.00  0.00    +0.000 A 
ATOM     21  C   UNL     1       0.784   8.577  21.417  0.00  0.00    +0.000 A 
ATOM     22  C   UNL     1       1.464   7.641  20.635  0.00  0.00    +0.000 A 
BRANCH  20  23
ATOM     23  S   UNL     1      -0.055  11.157  21.932  0.00  0.00    +0.000 S 
ATOM     24  O   UNL     1      -0.053  10.615  23.279  0.00  0.00    +0.000 OA
ATOM     25  O   UNL     1       0.840  12.238  21.587  0.00  0.00    +0.000 OA
BRANCH  23  26
ATOM     26  N   UNL     1      -1.686  11.687  21.603  0.00  0.00    +0.000 NA
BRANCH  26  27
ATOM     27  C   UNL     1      -2.357  12.323  22.796  0.00  0.00    +0.000 C 
ATOM     28  C   UNL     1      -3.831  12.648  22.581  0.00  0.00    +0.000 C 
ENDBRANCH  26  27
BRANCH  26  29
ATOM     29  C   UNL     1      -1.697  12.662  20.435  0.00  0.00    +0.000 C 
ATOM     30  C   UNL     1      -2.357  12.145  19.168  0.00  0.00    +0.000 C 
ENDBRANCH  26  29
ENDBRANCH  23  26
ENDBRANCH  20  23
ENDBRANCH   1  17
TORSDOF 10
ENDMDL
MODEL 8
REMARK VINA RESULT:      -6.4      1.849      9.416
REMARK  Name = 
REMARK  13 active torsions:
REMARK  status: ('A' for Active; 'I' for Inactive)
REMARK    1  A    between atoms: C_1  and  C_2
REMARK    2  A    between atoms: C_2  and  O_3
REMARK    3  A    between atoms: O_3  and  C_4
REMARK    4  A    between atoms: C_4  and  C_6
REMARK    5  A    between atoms: C_8  and  O_9
REMARK    6  A    between atoms: N_11  and  S_12
REMARK    7  A    between atoms: S_12  and  C_15
REMARK    8  A    between atoms: C_18  and  S_19
REMARK    9  A    between atoms: S_19  and  N_22
REMARK   10  A    between atoms: N_22  and  C_23
REMARK   11  A    between atoms: N_22  and  C_25
REMARK   12  A    between atoms: C_23  and  C_24
REMARK   13  A    between atoms: C_25  and  C_26
REMARK                            x       y       z     vdW  Elec       q    Type
REMARK                         _______ _______ _______ _____ _____    ______ ____
ROOT
ATOM      1  S   UNL     1       2.720   6.097  18.763  0.00  0.00    +0.000 S 
ATOM      2  O   UNL     1       4.147   6.255  18.598  0.00  0.00    +0.000 OA
ATOM      3  O   UNL     1       1.876   5.581  17.705  0.00  0.00    +0.000 OA
ENDROOT
BRANCH   1   8
ATOM      4  C   UNL     1       3.376   2.744  19.785  0.00  0.00    +0.000 C 
ATOM      5  C   UNL     1       1.983   2.175  20.068  0.00  0.00    +0.000 C 
ATOM      6  C   UNL     1       0.860   3.148  19.716  0.00  0.00    +0.000 C 
ATOM      7  C   UNL     1       1.063   4.547  20.315  0.00  0.00    +0.000 C 
ATOM      8  N   UNL     1       2.437   5.090  20.099  0.00  0.00    +0.000 NA
ATOM      9  C   UNL     1       3.521   4.123  20.434  0.00  0.00    +0.000 C 
BRANCH   4  10
ATOM     10  C   UNL     1       3.748   2.581  18.316  0.00  0.00    +0.000 C 
ATOM     11  O   UNL     1       3.212   1.740  17.598  0.00  0.00    +0.000 OA
BRANCH  10  12
ATOM     12  O   UNL     1       4.783   3.355  17.921  0.00  0.00    +0.000 OA
BRANCH  12  14
ATOM     13  C   UNL     1       6.167   4.079  16.033  0.00  0.00    +0.000 C 
ATOM     14  C   UNL     1       4.774   3.734  16.528  0.00  0.00    +0.000 C 
ENDBRANCH  12  14
ENDBRANCH  10  12
ENDBRANCH   4  10
BRANCH   6  15
ATOM     15  O   UNL     1       0.673   3.196  18.307  0.00  0.00    +0.000 OA
ATOM     16  H   UNL     1       0.869   4.096  17.970  0.00  0.00    +0.000 HD
ENDBRANCH   6  15
ENDBRANCH   1   8
BRANCH   1  17
ATOM     17  C   UNL     1       2.099   7.713  19.169  0.00  0.00    +0.000 A 
ATOM     18  C   UNL     1       1.630   8.039  20.441  0.00  0.00    +0.000 A 
ATOM     19  C   UNL     1       0.984   9.269  20.641  0.00  0.00    +0.000 A 
ATOM     20  C   UNL     1       0.830  10.174  19.577  0.00  0.00    +0.000 A 
ATOM     21  C   UNL     1       1.364   9.860  18.319  0.00  0.00    +0.000 A 
ATOM     22  C   UNL     1       2.013   8.640  18.120  0.00  0.00    +0.000 A 
BRANCH  20  23
ATOM     23  S   UNL     1      -0.388  11.477  19.713  0.00  0.00    +0.000 S 
ATOM     24  O   UNL     1      -1.069  11.519  18.431  0.00  0.00    +0.000 OA
ATOM     25  O   UNL     1      -1.135  11.206  20.919  0.00  0.00    +0.000 OA
BRANCH  23  26
ATOM     26  N   UNL     1       0.409  13.017  19.911  0.00  0.00    +0.000 NA
BRANCH  26  27
ATOM     27  C   UNL     1       0.855  13.629  18.605  0.00  0.00    +0.000 C 
ATOM     28  C   UNL     1       2.336  13.435  18.300  0.00  0.00    +0.000 C 
ENDBRANCH  26  27
BRANCH  26  29
ATOM     29  C   UNL     1      -0.502  13.992  20.643  0.00  0.00    +0.000 C 
ATOM     30  C   UNL     1      -0.887  15.233  19.856  0.00  0.00    +0.000 C 
ENDBRANCH  26  29
ENDBRANCH  23  26
ENDBRANCH  20  23
ENDBRANCH   1  17
TORSDOF 10
ENDMDL
MODEL 9
REMARK VINA RESULT:      -6.4      2.099      9.164
REMARK  Name = 
REMARK  13 active torsions:
REMARK  status: ('A' for Active; 'I' for Inactive)
REMARK    1  A    between atoms: C_1  and  C_2
REMARK    2  A    between atoms: C_2  and  O_3
REMARK    3  A    between atoms: O_3  and  C_4
REMARK    4  A    between atoms: C_4  and  C_6
REMARK    5  A    between atoms: C_8  and  O_9
REMARK    6  A    between atoms: N_11  and  S_12
REMARK    7  A    between atoms: S_12  and  C_15
REMARK    8  A    between atoms: C_18  and  S_19
REMARK    9  A    between atoms: S_19  and  N_22
REMARK   10  A    between atoms: N_22  and  C_23
REMARK   11  A    between atoms: N_22  and  C_25
REMARK   12  A    between atoms: C_23  and  C_24
REMARK   13  A    between atoms: C_25  and  C_26
REMARK                            x       y       z     vdW  Elec       q    Type
REMARK                         _______ _______ _______ _____ _____    ______ ____
ROOT
ATOM      1  S   UNL     1       2.516   6.071  19.495  0.00  0.00    +0.000 S 
ATOM      2  O   UNL     1       1.426   5.264  19.994  0.00  0.00    +0.000 OA
ATOM      3  O   UNL     1       3.813   6.095  20.139  0.00  0.00    +0.000 OA
ENDROOT
BRANCH   1   8
ATOM      4  C   UNL     1       3.572   3.216  17.636  0.00  0.00    +0.000 C 
ATOM      5  C   UNL     1       4.825   3.707  16.906  0.00  0.00    +0.000 C 
ATOM      6  C   UNL     1       5.228   5.126  17.301  0.00  0.00    +0.000 C 
ATOM      7  C   UNL     1       4.067   6.127  17.226  0.00  0.00    +0.000 C 
ATOM      8  N   UNL     1       2.819   5.636  17.883  0.00  0.00    +0.000 NA
ATOM      9  C   UNL     1       2.447   4.245  17.496  0.00  0.00    +0.000 C 
BRANCH   4  10
ATOM     10  C   UNL     1       3.917   2.689  19.025  0.00  0.00    +0.000 C 
ATOM     11  O   UNL     1       5.078   2.593  19.415  0.00  0.00    +0.000 OA
BRANCH  10  12
ATOM     12  O   UNL     1       2.851   2.240  19.722  0.00  0.00    +0.000 OA
BRANCH  12  14
ATOM     13  C   UNL     1       1.515   2.533  21.756  0.00  0.00    +0.000 C 
ATOM     14  C   UNL     1       2.905   2.469  21.147  0.00  0.00    +0.000 C 
ENDBRANCH  12  14
ENDBRANCH  10  12
ENDBRANCH   4  10
BRANCH   6  15
ATOM     15  O   UNL     1       5.845   5.122  18.583  0.00  0.00    +0.000 OA
ATOM     16  H   UNL     1       6.460   5.883  18.665  0.00  0.00    +0.000 HD
ENDBRANCH   6  15
ENDBRANCH   1   8
BRANCH   1  17
ATOM     17  C   UNL     1       1.916   7.745  19.495  0.00  0.00    +0.000 A 
ATOM     18  C   UNL     1       1.423   8.366  20.642  0.00  0.00    +0.000 A 
ATOM     19  C   UNL     1       0.795   9.616  20.531  0.00  0.00    +0.000 A 
ATOM     20  C   UNL     1       0.683  10.249  19.282  0.00  0.00    +0.000 A 
ATOM     21  C   UNL     1       1.241   9.643  18.147  0.00  0.00    +0.000 A 
ATOM     22  C   UNL     1       1.872   8.402  18.256  0.00  0.00    +0.000 A 
BRANCH  20  23
ATOM     23  S   UNL     1      -0.514  11.563  19.075  0.00  0.00    +0.000 S 
ATOM     24  O   UNL     1      -1.245  11.246  17.861  0.00  0.00    +0.000 OA
ATOM     25  O   UNL     1      -1.215  11.670  20.334  0.00  0.00    +0.000 OA
BRANCH  23  26
ATOM     26  N   UNL     1       0.309  13.076  18.790  0.00  0.00    +0.000 NA
BRANCH  26  27
ATOM     27  C   UNL     1      -0.391  14.260  19.410  0.00  0.00    +0.000 C 
ATOM     28  C   UNL     1      -0.158  15.576  18.676  0.00  0.00    +0.000 C 
ENDBRANCH  26  27
BRANCH  26  29
ATOM     29  C   UNL     1       1.738  13.004  19.308  0.00  0.00    +0.000 C 
ATOM     30  C   UNL     1       2.817  13.248  18.267  0.00  0.00    +0.000 C 
ENDBRANCH  26  29
ENDBRANCH  23  26
ENDBRANCH  20  23
ENDBRANCH   1  17
TORSDOF 10
ENDMDL
