MODEL 1
REMARK VINA RESULT:      -7.6      0.000      0.000
REMARK  Name = 
REMARK  2 active torsions:
REMARK  status: ('A' for Active; 'I' for Inactive)
REMARK    1  A    between atoms: C_1  and  N_2
REMARK    2  A    between atoms: C_8  and  C_10
REMARK                            x       y       z     vdW  Elec       q    Type
REMARK                         _______ _______ _______ _____ _____    ______ ____
ROOT
ATOM      1  C   UNL     1       2.431   3.545  21.566  0.00  0.00    +0.000 C 
ATOM      2  N   UNL     1       2.035   3.952  20.224  0.00  0.00    +0.000 N 
ATOM      3  C   UNL     1       1.788   2.967  19.267  0.00  0.00    +0.000 C 
ATOM      4  O   UNL     1       1.893   1.759  19.489  0.00  0.00    +0.000 OA
ATOM      5  C   UNL     1       1.307   3.451  17.922  0.00  0.00    +0.000 C 
ATOM      6  C   UNL     1       2.482   4.010  17.142  0.00  0.00    +0.000 C 
ATOM      7  N   UNL     1       3.303   4.989  17.861  0.00  0.00    +0.000 N 
ATOM      8  C   UNL     1       4.648   5.131  17.498  0.00  0.00    +0.000 C 
ATOM      9  O   UNL     1       5.115   4.481  16.557  0.00  0.00    +0.000 OA
ATOM     10  C   UNL     1       2.611   5.859  18.741  0.00  0.00    +0.000 A 
ATOM     11  C   UNL     1       2.555   7.229  18.458  0.00  0.00    +0.000 A 
ATOM     12  C   UNL     1       1.939   8.102  19.347  0.00  0.00    +0.000 A 
ATOM     13  C   UNL     1       1.387   7.616  20.532  0.00  0.00    +0.000 A 
ATOM     14  C   UNL     1       1.439   6.250  20.825  0.00  0.00    +0.000 A 
ATOM     15  C   UNL     1       2.019   5.352  19.922  0.00  0.00    +0.000 A 
ENDROOT
BRANCH   8  16
ATOM     16  C   UNL     1       5.533   6.116  18.292  0.00  0.00    +0.000 C 
ATOM     17  C   UNL     1       6.491   5.427  19.280  0.00  0.00    +0.000 C 
ATOM     18  C   UNL     1       7.852   5.691  18.733  0.00  0.00    +0.000 C 
ATOM     19  C   UNL     1       7.820   6.533  17.698  0.00  0.00    +0.000 C 
ATOM     20  C   UNL     1       6.432   6.988  17.389  0.00  0.00    +0.000 C 
ENDBRANCH   8  16
TORSDOF 1
ENDMDL
MODEL 2
REMARK VINA RESULT:      -7.5      1.296      1.510
REMARK  Name = 
REMARK  2 active torsions:
REMARK  status: ('A' for Active; 'I' for Inactive)
REMARK    1  A    between atoms: C_1  and  N_2
REMARK    2  A    between atoms: C_8  and  C_10
REMARK                            x       y       z     vdW  Elec       q    Type
REMARK                         _______ _______ _______ _____ _____    ______ ____
ROOT
ATOM      1  C   UNL     1       4.298   2.074  20.804  0.00  0.00    +0.000 C 
ATOM      2  N   UNL     1       3.499   2.578  19.694  0.00  0.00    +0.000 N 
ATOM      3  C   UNL     1       3.387   1.802  18.540  0.00  0.00    +0.000 C 
ATOM      4  O   UNL     1       3.936   0.708  18.397  0.00  0.00    +0.000 OA
ATOM      5  C   UNL     1       2.484   2.344  17.459  0.00  0.00    +0.000 C 
ATOM      6  C   UNL     1       3.198   3.460  16.722  0.00  0.00    +0.000 C 
ATOM      7  N   UNL     1       3.785   4.499  17.574  0.00  0.00    +0.000 N 
ATOM      8  C   UNL     1       4.888   5.216  17.093  0.00  0.00    +0.000 C 
ATOM      9  O   UNL     1       5.321   5.010  15.956  0.00  0.00    +0.000 OA
ATOM     10  C   UNL     1       3.059   4.830  18.746  0.00  0.00    +0.000 A 
ATOM     11  C   UNL     1       2.487   6.102  18.869  0.00  0.00    +0.000 A 
ATOM     12  C   UNL     1       1.832   6.464  20.040  0.00  0.00    +0.000 A 
ATOM     13  C   UNL     1       1.754   5.563  21.102  0.00  0.00    +0.000 A 
ATOM     14  C   UNL     1       2.322   4.291  20.990  0.00  0.00    +0.000 A 
ATOM     15  C   UNL     1       2.950   3.896  19.803  0.00  0.00    +0.000 A 
ENDROOT
BRANCH   8  16
ATOM     16  C   UNL     1       5.548   6.268  18.010  0.00  0.00    +0.000 C 
ATOM     17  C   UNL     1       6.454   5.660  19.096  0.00  0.00    +0.000 C 
ATOM     18  C   UNL     1       7.830   6.097  18.728  0.00  0.00    +0.000 C 
ATOM     19  C   UNL     1       7.825   6.964  17.713  0.00  0.00    +0.000 C 
ATOM     20  C   UNL     1       6.440   7.267  17.244  0.00  0.00    +0.000 C 
ENDBRANCH   8  16
TORSDOF 1
ENDMDL
MODEL 3
REMARK VINA RESULT:      -7.0      1.836      5.182
REMARK  Name = 
REMARK  2 active torsions:
REMARK  status: ('A' for Active; 'I' for Inactive)
REMARK    1  A    between atoms: C_1  and  N_2
REMARK    2  A    between atoms: C_8  and  C_10
REMARK                            x       y       z     vdW  Elec       q    Type
REMARK                         _______ _______ _______ _____ _____    ______ ____
ROOT
ATOM      1  C   UNL     1       5.581   5.461  15.058  0.00  0.00    +0.000 C 
ATOM      2  N   UNL     1       5.801   5.745  16.471  0.00  0.00    +0.000 N 
ATOM      3  C   UNL     1       6.977   5.295  17.071  0.00  0.00    +0.000 C 
ATOM      4  O   UNL     1       7.847   4.658  16.475  0.00  0.00    +0.000 OA
ATOM      5  C   UNL     1       7.180   5.688  18.514  0.00  0.00    +0.000 C 
ATOM      6  C   UNL     1       6.312   4.813  19.397  0.00  0.00    +0.000 C 
ATOM      7  N   UNL     1       4.903   4.726  19.004  0.00  0.00    +0.000 N 
ATOM      8  C   UNL     1       4.178   3.580  19.356  0.00  0.00    +0.000 C 
ATOM      9  O   UNL     1       4.705   2.688  20.028  0.00  0.00    +0.000 OA
ATOM     10  C   UNL     1       4.331   5.905  18.465  0.00  0.00    +0.000 A 
ATOM     11  C   UNL     1       3.319   6.568  19.169  0.00  0.00    +0.000 A 
ATOM     12  C   UNL     1       2.701   7.686  18.621  0.00  0.00    +0.000 A 
ATOM     13  C   UNL     1       3.081   8.142  17.359  0.00  0.00    +0.000 A 
ATOM     14  C   UNL     1       4.089   7.487  16.646  0.00  0.00    +0.000 A 
ATOM     15  C   UNL     1       4.749   6.385  17.201  0.00  0.00    +0.000 A 
ENDROOT
BRANCH   8  16
ATOM     16  C   UNL     1       2.711   3.456  18.891  0.00  0.00    +0.000 C 
ATOM     17  C   UNL     1       2.307   2.023  18.499  0.00  0.00    +0.000 C 
ATOM     18  C   UNL     1       1.312   1.615  19.531  0.00  0.00    +0.000 C 
ATOM     19  C   UNL     1       0.986   2.627  20.338  0.00  0.00    +0.000 C 
ATOM     20  C   UNL     1       1.694   3.888  19.969  0.00  0.00    +0.000 C 
ENDBRANCH   8  16
TORSDOF 1
ENDMDL
MODEL 4
REMARK VINA RESULT:      -6.5      7.091      9.375
REMARK  Name = 
REMARK  2 active torsions:
REMARK  status: ('A' for Active; 'I' for Inactive)
REMARK    1  A    between atoms: C_1  and  N_2
REMARK    2  A    between atoms: C_8  and  C_10
REMARK                            x       y       z     vdW  Elec       q    Type
REMARK                         _______ _______ _______ _____ _____    ______ ____
ROOT
ATOM      1  C   UNL     1      -2.524  12.834  23.307  0.00  0.00    +0.000 C 
ATOM      2  N   UNL     1      -1.257  12.735  22.593  0.00  0.00    +0.000 N 
ATOM      3  C   UNL     1      -0.593  13.910  22.238  0.00  0.00    +0.000 C 
ATOM      4  O   UNL     1      -1.021  15.038  22.486  0.00  0.00    +0.000 OA
ATOM      5  C   UNL     1       0.750  13.739  21.570  0.00  0.00    +0.000 C 
ATOM      6  C   UNL     1       0.542  13.337  20.123  0.00  0.00    +0.000 C 
ATOM      7  N   UNL     1      -0.368  12.208  19.910  0.00  0.00    +0.000 N 
ATOM      8  C   UNL     1      -1.052  12.118  18.691  0.00  0.00    +0.000 C 
ATOM      9  O   UNL     1      -0.850  12.946  17.797  0.00  0.00    +0.000 OA
ATOM     10  C   UNL     1      -0.333  11.183  20.889  0.00  0.00    +0.000 A 
ATOM     11  C   UNL     1       0.130   9.909  20.541  0.00  0.00    +0.000 A 
ATOM     12  C   UNL     1       0.105   8.877  21.472  0.00  0.00    +0.000 A 
ATOM     13  C   UNL     1      -0.394   9.107  22.754  0.00  0.00    +0.000 A 
ATOM     14  C   UNL     1      -0.860  10.375  23.112  0.00  0.00    +0.000 A 
ATOM     15  C   UNL     1      -0.805  11.435  22.199  0.00  0.00    +0.000 A 
ENDROOT
BRANCH   8  16
ATOM     16  C   UNL     1      -2.059  10.966  18.485  0.00  0.00    +0.000 C 
ATOM     17  C   UNL     1      -3.486  11.443  18.165  0.00  0.00    +0.000 C 
ATOM     18  C   UNL     1      -3.724  11.008  16.759  0.00  0.00    +0.000 C 
ATOM     19  C   UNL     1      -2.732  10.242  16.299  0.00  0.00    +0.000 C 
ATOM     20  C   UNL     1      -1.672  10.022  17.327  0.00  0.00    +0.000 C 
ENDBRANCH   8  16
TORSDOF 1
ENDMDL
MODEL 5
REMARK VINA RESULT:      -6.2      5.448      8.074
REMARK  Name = 
REMARK  2 active torsions:
REMARK  status: ('A' for Active; 'I' for Inactive)
REMARK    1  A    between atoms: C_1  and  N_2
REMARK    2  A    between atoms: C_8  and  C_10
REMARK                            x       y       z     vdW  Elec       q    Type
REMARK                         _______ _______ _______ _____ _____    ______ ____
ROOT
ATOM      1  C   UNL     1      -0.483   8.699  22.151  0.00  0.00    +0.000 C 
ATOM      2  N   UNL     1       0.271   9.706  21.415  0.00  0.00    +0.000 N 
ATOM      3  C   UNL     1       0.286  11.017  21.893  0.00  0.00    +0.000 C 
ATOM      4  O   UNL     1      -0.313  11.381  22.907  0.00  0.00    +0.000 OA
ATOM      5  C   UNL     1       1.147  11.994  21.131  0.00  0.00    +0.000 C 
ATOM      6  C   UNL     1       0.437  12.395  19.852  0.00  0.00    +0.000 C 
ATOM      7  N   UNL     1      -0.058  11.284  19.034  0.00  0.00    +0.000 N 
ATOM      8  C   UNL     1      -1.157  11.507  18.195  0.00  0.00    +0.000 C 
ATOM      9  O   UNL     1      -1.663  12.631  18.111  0.00  0.00    +0.000 OA
ATOM     10  C   UNL     1       0.746  10.117  19.013  0.00  0.00    +0.000 A 
ATOM     11  C   UNL     1       1.374   9.731  17.823  0.00  0.00    +0.000 A 
ATOM     12  C   UNL     1       2.109   8.553  17.770  0.00  0.00    +0.000 A 
ATOM     13  C   UNL     1       2.211   7.744  18.901  0.00  0.00    +0.000 A 
ATOM     14  C   UNL     1       1.588   8.119  20.094  0.00  0.00    +0.000 A 
ATOM     15  C   UNL     1       0.877   9.322  20.176  0.00  0.00    +0.000 A 
ENDROOT
BRANCH   8  16
ATOM     16  C   UNL     1      -1.721  10.325  17.378  0.00  0.00    +0.000 C 
ATOM     17  C   UNL     1      -2.893   9.602  18.066  0.00  0.00    +0.000 C 
ATOM     18  C   UNL     1      -4.074   9.890  17.204  0.00  0.00    +0.000 C 
ATOM     19  C   UNL     1      -3.730  10.521  16.080  0.00  0.00    +0.000 C 
ATOM     20  C   UNL     1      -2.256  10.745  15.993  0.00  0.00    +0.000 C 
ENDBRANCH   8  16
TORSDOF 1
ENDMDL
MODEL 6
REMARK VINA RESULT:      -5.9      8.423     11.138
REMARK  Name = 
REMARK  2 active torsions:
REMARK  status: ('A' for Active; 'I' for Inactive)
REMARK    1  A    between atoms: C_1  and  N_2
REMARK    2  A    between atoms: C_8  and  C_10
REMARK                            x       y       z     vdW  Elec       q    Type
REMARK                         _______ _______ _______ _____ _____    ______ ____
ROOT
ATOM      1  C   UNL     1       9.012  10.599  18.211  0.00  0.00    +0.000 C 
ATOM      2  N   UNL     1       9.657  11.618  19.029  0.00  0.00    +0.000 N 
ATOM      3  C   UNL     1       9.653  11.467  20.416  0.00  0.00    +0.000 C 
ATOM      4  O   UNL     1       9.124  10.518  20.998  0.00  0.00    +0.000 OA
ATOM      5  C   UNL     1      10.402  12.515  21.202  0.00  0.00    +0.000 C 
ATOM      6  C   UNL     1       9.571  13.782  21.267  0.00  0.00    +0.000 C 
ATOM      7  N   UNL     1       9.060  14.264  19.981  0.00  0.00    +0.000 N 
ATOM      8  C   UNL     1       7.886  15.028  19.970  0.00  0.00    +0.000 C 
ATOM      9  O   UNL     1       7.325  15.330  21.028  0.00  0.00    +0.000 OA
ATOM     10  C   UNL     1       9.912  14.082  18.862  0.00  0.00    +0.000 A 
ATOM     11  C   UNL     1      10.455  15.199  18.217  0.00  0.00    +0.000 A 
ATOM     12  C   UNL     1      11.235  15.038  17.078  0.00  0.00    +0.000 A 
ATOM     13  C   UNL     1      11.468  13.762  16.568  0.00  0.00    +0.000 A 
ATOM     14  C   UNL     1      10.929  12.640  17.203  0.00  0.00    +0.000 A 
ATOM     15  C   UNL     1      10.175  12.781  18.373  0.00  0.00    +0.000 A 
ENDROOT
BRANCH   8  16
ATOM     16  C   UNL     1       7.310  15.487  18.613  0.00  0.00    +0.000 C 
ATOM     17  C   UNL     1       6.509  14.395  17.882  0.00  0.00    +0.000 C 
ATOM     18  C   UNL     1       5.103  14.890  17.887  0.00  0.00    +0.000 C 
ATOM     19  C   UNL     1       5.013  16.134  18.362  0.00  0.00    +0.000 C 
ATOM     20  C   UNL     1       6.348  16.688  18.737  0.00  0.00    +0.000 C 
ENDBRANCH   8  16
TORSDOF 1
ENDMDL
MODEL 7
REMARK VINA RESULT:      -5.8      2.541      5.943
REMARK  Name = 
REMARK  2 active torsions:
REMARK  status: ('A' for Active; 'I' for Inactive)
REMARK    1  A    between atoms: C_1  and  N_2
REMARK    2  A    between atoms: C_8  and  C_10
REMARK                            x       y       z     vdW  Elec       q    Type
REMARK                         _______ _______ _______ _____ _____    ______ ____
ROOT
ATOM      1  C   UNL     1       8.242   4.267  18.064  0.00  0.00    +0.000 C 
ATOM      2  N   UNL     1       7.491   5.335  17.416  0.00  0.00    +0.000 N 
ATOM      3  C   UNL     1       7.484   6.602  18.001  0.00  0.00    +0.000 C 
ATOM      4  O   UNL     1       8.074   6.873  19.049  0.00  0.00    +0.000 OA
ATOM      5  C   UNL     1       6.754   7.681  17.241  0.00  0.00    +0.000 C 
ATOM      6  C   UNL     1       5.260   7.507  17.436  0.00  0.00    +0.000 C 
ATOM      7  N   UNL     1       4.747   6.158  17.179  0.00  0.00    +0.000 N 
ATOM      8  C   UNL     1       3.579   5.749  17.837  0.00  0.00    +0.000 C 
ATOM      9  O   UNL     1       2.970   6.528  18.575  0.00  0.00    +0.000 OA
ATOM     10  C   UNL     1       5.371   5.441  16.128  0.00  0.00    +0.000 A 
ATOM     11  C   UNL     1       4.641   5.128  14.975  0.00  0.00    +0.000 A 
ATOM     12  C   UNL     1       5.220   4.367  13.966  0.00  0.00    +0.000 A 
ATOM     13  C   UNL     1       6.527   3.901  14.107  0.00  0.00    +0.000 A 
ATOM     14  C   UNL     1       7.264   4.206  15.254  0.00  0.00    +0.000 A 
ATOM     15  C   UNL     1       6.711   5.005  16.261  0.00  0.00    +0.000 A 
ENDROOT
BRANCH   8  16
ATOM     16  C   UNL     1       3.069   4.308  17.618  0.00  0.00    +0.000 C 
ATOM     17  C   UNL     1       3.627   3.295  18.633  0.00  0.00    +0.000 C 
ATOM     18  C   UNL     1       2.445   2.876  19.439  0.00  0.00    +0.000 C 
ATOM     19  C   UNL     1       1.306   3.369  18.948  0.00  0.00    +0.000 C 
ATOM     20  C   UNL     1       1.534   4.186  17.719  0.00  0.00    +0.000 C 
ENDBRANCH   8  16
TORSDOF 1
ENDMDL
MODEL 8
REMARK VINA RESULT:      -5.8      9.934     11.397
REMARK  Name = 
REMARK  2 active torsions:
REMARK  status: ('A' for Active; 'I' for Inactive)
REMARK    1  A    between atoms: C_1  and  N_2
REMARK    2  A    between atoms: C_8  and  C_10
REMARK                            x       y       z     vdW  Elec       q    Type
REMARK                         _______ _______ _______ _____ _____    ______ ____
ROOT
ATOM      1  C   UNL     1       7.583  16.335  21.487  0.00  0.00    +0.000 C 
ATOM      2  N   UNL     1       7.373  16.114  20.062  0.00  0.00    +0.000 N 
ATOM      3  C   UNL     1       6.253  15.389  19.653  0.00  0.00    +0.000 C 
ATOM      4  O   UNL     1       5.427  14.911  20.433  0.00  0.00    +0.000 OA
ATOM      5  C   UNL     1       6.051  15.261  18.163  0.00  0.00    +0.000 C 
ATOM      6  C   UNL     1       7.011  14.222  17.615  0.00  0.00    +0.000 C 
ATOM      7  N   UNL     1       8.413  14.395  18.006  0.00  0.00    +0.000 N 
ATOM      8  C   UNL     1       9.241  13.266  18.050  0.00  0.00    +0.000 C 
ATOM      9  O   UNL     1       8.808  12.159  17.716  0.00  0.00    +0.000 OA
ATOM     10  C   UNL     1       8.870  15.732  18.119  0.00  0.00    +0.000 A 
ATOM     11  C   UNL     1       9.838  16.210  17.228  0.00  0.00    +0.000 A 
ATOM     12  C   UNL     1      10.345  17.496  17.369  0.00  0.00    +0.000 A 
ATOM     13  C   UNL     1       9.899  18.310  18.410  0.00  0.00    +0.000 A 
ATOM     14  C   UNL     1       8.934  17.843  19.307  0.00  0.00    +0.000 A 
ATOM     15  C   UNL     1       8.384  16.565  19.154  0.00  0.00    +0.000 A 
ENDROOT
BRANCH   8  16
ATOM     16  C   UNL     1      10.702  13.432  18.520  0.00  0.00    +0.000 C 
ATOM     17  C   UNL     1      10.880  13.295  20.043  0.00  0.00    +0.000 C 
ATOM     18  C   UNL     1      11.670  12.044  20.220  0.00  0.00    +0.000 C 
ATOM     19  C   UNL     1      12.088  11.548  19.053  0.00  0.00    +0.000 C 
ATOM     20  C   UNL     1      11.661  12.395  17.900  0.00  0.00    +0.000 C 
ENDBRANCH   8  16
TORSDOF 1
ENDMDL
MODEL 9
REMARK VINA RESULT:      -5.8      7.316     10.360
REMARK  Name = 
REMARK  2 active torsions:
REMARK  status: ('A' for Active; 'I' for Inactive)
REMARK    1  A    between atoms: C_1  and  N_2
REMARK    2  A    between atoms: C_8  and  C_10
REMARK                            x       y       z     vdW  Elec       q    Type
REMARK                         _______ _______ _______ _____ _____    ______ ____
ROOT
ATOM      1  C   UNL     1       0.644   9.951  19.748  0.00  0.00    +0.000 C 
ATOM      2  N   UNL     1       0.032  11.153  19.195  0.00  0.00    +0.000 N 
ATOM      3  C   UNL     1       0.783  12.327  19.143  0.00  0.00    +0.000 C 
ATOM      4  O   UNL     1       1.944  12.413  19.548  0.00  0.00    +0.000 OA
ATOM      5  C   UNL     1       0.119  13.514  18.489  0.00  0.00    +0.000 C 
ATOM      6  C   UNL     1      -0.886  14.118  19.451  0.00  0.00    +0.000 C 
ATOM      7  N   UNL     1      -1.831  13.169  20.048  0.00  0.00    +0.000 N 
ATOM      8  C   UNL     1      -2.385  13.473  21.299  0.00  0.00    +0.000 C 
ATOM      9  O   UNL     1      -2.121  14.541  21.858  0.00  0.00    +0.000 OA
ATOM     10  C   UNL     1      -2.261  12.106  19.215  0.00  0.00    +0.000 A 
ATOM     11  C   UNL     1      -3.600  12.039  18.815  0.00  0.00    +0.000 A 
ATOM     12  C   UNL     1      -4.050  10.966  18.054  0.00  0.00    +0.000 A 
ATOM     13  C   UNL     1      -3.168   9.946  17.699  0.00  0.00    +0.000 A 
ATOM     14  C   UNL     1      -1.829  10.002  18.094  0.00  0.00    +0.000 A 
ATOM     15  C   UNL     1      -1.351  11.095  18.826  0.00  0.00    +0.000 A 
ENDROOT
BRANCH   8  16
ATOM     16  C   UNL     1      -3.333  12.449  21.960  0.00  0.00    +0.000 C 
ATOM     17  C   UNL     1      -2.896  12.026  23.374  0.00  0.00    +0.000 C 
ATOM     18  C   UNL     1      -3.947  12.577  24.275  0.00  0.00    +0.000 C 
ATOM     19  C   UNL     1      -4.967  13.100  23.592  0.00  0.00    +0.000 C 
ATOM     20  C   UNL     1      -4.777  12.972  22.117  0.00  0.00    +0.000 C 
ENDBRANCH   8  16
TORSDOF 1
ENDMDL
