MODEL 1
REMARK VINA RESULT:      -9.3      0.000      0.000
REMARK  Name = 
REMARK  5 active torsions:
REMARK  status: ('A' for Active; 'I' for Inactive)
REMARK    1  A    between atoms: N_15  and  C_16
REMARK    2  A    between atoms: C_20  and  C_21
REMARK    3  A    between atoms: C_21  and  C_22
REMARK    4  A    between atoms: C_22  and  C_23
REMARK    5  A    between atoms: C_26  and  O_27
REMARK                            x       y       z     vdW  Elec       q    Type
REMARK                         _______ _______ _______ _____ _____    ______ ____
ROOT
ATOM      1  C   UNL     1       1.458   8.375  20.237  0.00  0.00    +0.000 A 
ATOM      2  C   UNL     1       1.339   8.477  21.628  0.00  0.00    +0.000 A 
ATOM      3  C   UNL     1       0.716   9.583  22.210  0.00  0.00    +0.000 A 
ATOM      4  C   UNL     1       0.150  10.576  21.411  0.00  0.00    +0.000 A 
ATOM      5  C   UNL     1       0.197  10.474  20.017  0.00  0.00    +0.000 A 
ATOM      6  C   UNL     1       0.898   9.395  19.451  0.00  0.00    +0.000 A 
ENDROOT
BRANCH   1  21
ATOM      7  O   UNL     1       1.356   5.493  20.973  0.00  0.00    +0.000 OA
ATOM      8  C   UNL     1       1.979   5.961  20.040  0.00  0.00    +0.000 C 
ATOM      9  C   UNL     1       2.739   5.133  19.094  0.00  0.00    +0.000 A 
ATOM     10  C   UNL     1       2.887   3.758  19.006  0.00  0.00    +0.000 A 
ATOM     11 CL   UNL     1       2.063   2.709  20.103  0.00  0.00    +0.000 Cl
ATOM     12  C   UNL     1       3.709   3.249  17.980  0.00  0.00    +0.000 A 
ATOM     13 CL   UNL     1       3.915   1.527  17.816  0.00  0.00    +0.000 Cl
ATOM     14  C   UNL     1       4.365   4.130  17.081  0.00  0.00    +0.000 A 
ATOM     15 CL   UNL     1       5.407   3.488  15.840  0.00  0.00    +0.000 Cl
ATOM     16  C   UNL     1       4.178   5.520  17.183  0.00  0.00    +0.000 A 
ATOM     17 CL   UNL     1       4.967   6.616  16.105  0.00  0.00    +0.000 Cl
ATOM     18  C   UNL     1       3.344   5.990  18.189  0.00  0.00    +0.000 A 
ATOM     19  C   UNL     1       2.921   7.351  18.519  0.00  0.00    +0.000 C 
ATOM     20  O   UNL     1       3.291   8.328  17.897  0.00  0.00    +0.000 OA
ATOM     21  N   UNL     1       2.104   7.265  19.625  0.00  0.00    +0.000 N 
ENDBRANCH   1  21
BRANCH   5  22
ATOM     22  C   UNL     1      -0.475  11.534  19.165  0.00  0.00    +0.000 C 
BRANCH  22  23
ATOM     23  C   UNL     1      -2.011  11.494  19.192  0.00  0.00    +0.000 C 
BRANCH  23  24
ATOM     24  C   UNL     1      -2.613  11.109  17.865  0.00  0.00    +0.000 A 
ATOM     25  C   UNL     1      -1.939  10.215  17.020  0.00  0.00    +0.000 A 
ATOM     26  C   UNL     1      -2.502   9.826  15.804  0.00  0.00    +0.000 A 
ATOM     27  C   UNL     1      -3.740  10.338  15.432  0.00  0.00    +0.000 A 
ATOM     28  C   UNL     1      -4.416  11.236  16.250  0.00  0.00    +0.000 A 
ATOM     29  C   UNL     1      -3.853  11.624  17.466  0.00  0.00    +0.000 A 
BRANCH  27  30
ATOM     30  O   UNL     1      -4.334   9.975  14.260  0.00  0.00    +0.000 OA
ATOM     31  H   UNL     1      -4.233  10.704  13.627  0.00  0.00    +0.000 HD
ENDBRANCH  27  30
ENDBRANCH  23  24
ENDBRANCH  22  23
ENDBRANCH   5  22
TORSDOF 5
ENDMDL
MODEL 2
REMARK VINA RESULT:      -9.3      0.148      2.427
REMARK  Name = 
REMARK  5 active torsions:
REMARK  status: ('A' for Active; 'I' for Inactive)
REMARK    1  A    between atoms: N_15  and  C_16
REMARK    2  A    between atoms: C_20  and  C_21
REMARK    3  A    between atoms: C_21  and  C_22
REMARK    4  A    between atoms: C_22  and  C_23
REMARK    5  A    between atoms: C_26  and  O_27
REMARK                            x       y       z     vdW  Elec       q    Type
REMARK                         _______ _______ _______ _____ _____    ______ ____
ROOT
ATOM      1  C   UNL     1       1.498   8.285  20.199  0.00  0.00    +0.000 A 
ATOM      2  C   UNL     1       1.463   8.365  21.596  0.00  0.00    +0.000 A 
ATOM      3  C   UNL     1       0.899   9.473  22.233  0.00  0.00    +0.000 A 
ATOM      4  C   UNL     1       0.307  10.491  21.485  0.00  0.00    +0.000 A 
ATOM      5  C   UNL     1       0.270  10.413  20.089  0.00  0.00    +0.000 A 
ATOM      6  C   UNL     1       0.914   9.330  19.465  0.00  0.00    +0.000 A 
ENDROOT
BRANCH   1  21
ATOM      7  O   UNL     1       3.253   8.239  17.795  0.00  0.00    +0.000 OA
ATOM      8  C   UNL     1       2.895   7.263  18.427  0.00  0.00    +0.000 C 
ATOM      9  C   UNL     1       3.342   5.900  18.110  0.00  0.00    +0.000 A 
ATOM     10  C   UNL     1       4.222   5.435  17.146  0.00  0.00    +0.000 A 
ATOM     11 CL   UNL     1       5.040   6.531  16.092  0.00  0.00    +0.000 Cl
ATOM     12  C   UNL     1       4.443   4.044  17.074  0.00  0.00    +0.000 A 
ATOM     13 CL   UNL     1       5.552   3.408  15.890  0.00  0.00    +0.000 Cl
ATOM     14  C   UNL     1       3.771   3.163  17.959  0.00  0.00    +0.000 A 
ATOM     15 CL   UNL     1       4.025   1.443  17.833  0.00  0.00    +0.000 Cl
ATOM     16  C   UNL     1       2.899   3.668  18.941  0.00  0.00    +0.000 A 
ATOM     17 CL   UNL     1       2.064   2.617  20.030  0.00  0.00    +0.000 Cl
ATOM     18  C   UNL     1       2.720   5.043  19.003  0.00  0.00    +0.000 A 
ATOM     19  C   UNL     1       1.931   5.862  19.924  0.00  0.00    +0.000 C 
ATOM     20  O   UNL     1       1.266   5.389  20.826  0.00  0.00    +0.000 OA
ATOM     21  N   UNL     1       2.083   7.174  19.532  0.00  0.00    +0.000 N 
ENDBRANCH   1  21
BRANCH   5  22
ATOM     22  C   UNL     1      -0.429  11.501  19.296  0.00  0.00    +0.000 C 
BRANCH  22  23
ATOM     23  C   UNL     1      -1.963  11.440  19.345  0.00  0.00    +0.000 C 
BRANCH  23  24
ATOM     24  C   UNL     1      -2.581  11.085  18.016  0.00  0.00    +0.000 A 
ATOM     25  C   UNL     1      -1.887  10.261  17.116  0.00  0.00    +0.000 A 
ATOM     26  C   UNL     1      -2.463   9.899  15.898  0.00  0.00    +0.000 A 
ATOM     27  C   UNL     1      -3.733  10.366  15.579  0.00  0.00    +0.000 A 
ATOM     28  C   UNL     1      -4.429  11.195  16.452  0.00  0.00    +0.000 A 
ATOM     29  C   UNL     1      -3.853  11.556  17.670  0.00  0.00    +0.000 A 
BRANCH  27  30
ATOM     30  O   UNL     1      -4.339  10.027  14.406  0.00  0.00    +0.000 OA
ATOM     31  H   UNL     1      -4.992  10.712  14.190  0.00  0.00    +0.000 HD
ENDBRANCH  27  30
ENDBRANCH  23  24
ENDBRANCH  22  23
ENDBRANCH   5  22
TORSDOF 5
ENDMDL
MODEL 3
REMARK VINA RESULT:      -8.9      0.957      2.774
REMARK  Name = 
REMARK  5 active torsions:
REMARK  status: ('A' for Active; 'I' for Inactive)
REMARK    1  A    between atoms: N_15  and  C_16
REMARK    2  A    between atoms: C_20  and  C_21
REMARK    3  A    between atoms: C_21  and  C_22
REMARK    4  A    between atoms: C_22  and  C_23
REMARK    5  A    between atoms: C_26  and  O_27
REMARK                            x       y       z     vdW  Elec       q    Type
REMARK                         _______ _______ _______ _____ _____    ______ ____
ROOT
ATOM      1  C   UNL     1       1.448   8.315  20.297  0.00  0.00    +0.000 A 
ATOM      2  C   UNL     1       1.504   8.421  21.692  0.00  0.00    +0.000 A 
ATOM      3  C   UNL     1       0.938   9.518  22.346  0.00  0.00    +0.000 A 
ATOM      4  C   UNL     1       0.255  10.495  21.623  0.00  0.00    +0.000 A 
ATOM      5  C   UNL     1       0.127  10.388  20.235  0.00  0.00    +0.000 A 
ATOM      6  C   UNL     1       0.773   9.320  19.587  0.00  0.00    +0.000 A 
ENDROOT
BRANCH   1  21
ATOM      7  O   UNL     1       3.196   8.308  17.888  0.00  0.00    +0.000 OA
ATOM      8  C   UNL     1       2.842   7.323  18.505  0.00  0.00    +0.000 C 
ATOM      9  C   UNL     1       3.289   5.965  18.165  0.00  0.00    +0.000 A 
ATOM     10  C   UNL     1       4.167   5.516  17.191  0.00  0.00    +0.000 A 
ATOM     11 CL   UNL     1       4.980   6.630  16.153  0.00  0.00    +0.000 Cl
ATOM     12  C   UNL     1       4.389   4.127  17.097  0.00  0.00    +0.000 A 
ATOM     13 CL   UNL     1       5.496   3.512  15.900  0.00  0.00    +0.000 Cl
ATOM     14  C   UNL     1       3.721   3.231  17.970  0.00  0.00    +0.000 A 
ATOM     15 CL   UNL     1       3.977   1.514  17.816  0.00  0.00    +0.000 Cl
ATOM     16  C   UNL     1       2.851   3.719  18.962  0.00  0.00    +0.000 A 
ATOM     17 CL   UNL     1       2.020   2.651  20.036  0.00  0.00    +0.000 Cl
ATOM     18  C   UNL     1       2.671   5.093  19.046  0.00  0.00    +0.000 A 
ATOM     19  C   UNL     1       1.883   5.897  19.982  0.00  0.00    +0.000 C 
ATOM     20  O   UNL     1       1.222   5.408  20.878  0.00  0.00    +0.000 OA
ATOM     21  N   UNL     1       2.033   7.215  19.611  0.00  0.00    +0.000 N 
ENDBRANCH   1  21
BRANCH   5  22
ATOM     22  C   UNL     1      -0.668  11.431  19.472  0.00  0.00    +0.000 C 
BRANCH  22  23
ATOM     23  C   UNL     1      -1.108  10.995  18.067  0.00  0.00    +0.000 C 
BRANCH  23  24
ATOM     24  C   UNL     1      -2.574  11.235  17.808  0.00  0.00    +0.000 A 
ATOM     25  C   UNL     1      -3.392  11.751  18.824  0.00  0.00    +0.000 A 
ATOM     26  C   UNL     1      -4.743  12.008  18.585  0.00  0.00    +0.000 A 
ATOM     27  C   UNL     1      -5.275  11.742  17.329  0.00  0.00    +0.000 A 
ATOM     28  C   UNL     1      -4.483  11.217  16.314  0.00  0.00    +0.000 A 
ATOM     29  C   UNL     1      -3.132  10.962  16.553  0.00  0.00    +0.000 A 
BRANCH  27  30
ATOM     30  O   UNL     1      -6.586  11.990  17.047  0.00  0.00    +0.000 OA
ATOM     31  H   UNL     1      -6.654  12.255  16.115  0.00  0.00    +0.000 HD
ENDBRANCH  27  30
ENDBRANCH  23  24
ENDBRANCH  22  23
ENDBRANCH   5  22
TORSDOF 5
ENDMDL
MODEL 4
REMARK VINA RESULT:      -8.9      5.207      9.258
REMARK  Name = 
REMARK  5 active torsions:
REMARK  status: ('A' for Active; 'I' for Inactive)
REMARK    1  A    between atoms: N_15  and  C_16
REMARK    2  A    between atoms: C_20  and  C_21
REMARK    3  A    between atoms: C_21  and  C_22
REMARK    4  A    between atoms: C_22  and  C_23
REMARK    5  A    between atoms: C_26  and  O_27
REMARK                            x       y       z     vdW  Elec       q    Type
REMARK                         _______ _______ _______ _____ _____    ______ ____
ROOT
ATOM      1  C   UNL     1       0.843   9.638  19.281  0.00  0.00    +0.000 A 
ATOM      2  C   UNL     1       1.467   9.609  18.028  0.00  0.00    +0.000 A 
ATOM      3  C   UNL     1       2.329   8.564  17.686  0.00  0.00    +0.000 A 
ATOM      4  C   UNL     1       2.534   7.502  18.565  0.00  0.00    +0.000 A 
ATOM      5  C   UNL     1       1.879   7.469  19.800  0.00  0.00    +0.000 A 
ATOM      6  C   UNL     1       1.079   8.568  20.159  0.00  0.00    +0.000 A 
ENDROOT
BRANCH   1  21
ATOM      7  O   UNL     1      -1.953  10.183  18.417  0.00  0.00    +0.000 OA
ATOM      8  C   UNL     1      -1.313  10.855  19.203  0.00  0.00    +0.000 C 
ATOM      9  C   UNL     1      -1.873  12.026  19.892  0.00  0.00    +0.000 A 
ATOM     10  C   UNL     1      -3.146  12.575  19.860  0.00  0.00    +0.000 A 
ATOM     11 CL   UNL     1      -4.401  11.844  18.927  0.00  0.00    +0.000 Cl
ATOM     12  C   UNL     1      -3.382  13.731  20.631  0.00  0.00    +0.000 A 
ATOM     13 CL   UNL     1      -4.968  14.452  20.638  0.00  0.00    +0.000 Cl
ATOM     14  C   UNL     1      -2.339  14.307  21.401  0.00  0.00    +0.000 A 
ATOM     15 CL   UNL     1      -2.636  15.758  22.320  0.00  0.00    +0.000 Cl
ATOM     16  C   UNL     1      -1.064  13.713  21.431  0.00  0.00    +0.000 A 
ATOM     17 CL   UNL     1       0.226  14.396  22.356  0.00  0.00    +0.000 Cl
ATOM     18  C   UNL     1      -0.868  12.563  20.680  0.00  0.00    +0.000 A 
ATOM     19  C   UNL     1       0.308  11.702  20.541  0.00  0.00    +0.000 C 
ATOM     20  O   UNL     1       1.357  11.919  21.116  0.00  0.00    +0.000 OA
ATOM     21  N   UNL     1      -0.025  10.701  19.656  0.00  0.00    +0.000 N 
ENDBRANCH   1  21
BRANCH   5  22
ATOM     22  C   UNL     1       2.070   6.276  20.718  0.00  0.00    +0.000 C 
BRANCH  22  23
ATOM     23  C   UNL     1       1.197   5.061  20.375  0.00  0.00    +0.000 C 
BRANCH  23  24
ATOM     24  C   UNL     1       1.973   3.939  19.733  0.00  0.00    +0.000 A 
ATOM     25  C   UNL     1       3.119   3.428  20.362  0.00  0.00    +0.000 A 
ATOM     26  C   UNL     1       3.826   2.368  19.794  0.00  0.00    +0.000 A 
ATOM     27  C   UNL     1       3.389   1.824  18.592  0.00  0.00    +0.000 A 
ATOM     28  C   UNL     1       2.265   2.327  17.948  0.00  0.00    +0.000 A 
ATOM     29  C   UNL     1       1.557   3.385  18.517  0.00  0.00    +0.000 A 
BRANCH  27  30
ATOM     30  O   UNL     1       4.042   0.779  18.008  0.00  0.00    +0.000 OA
ATOM     31  H   UNL     1       3.942  -0.001  18.577  0.00  0.00    +0.000 HD
ENDBRANCH  27  30
ENDBRANCH  23  24
ENDBRANCH  22  23
ENDBRANCH   5  22
TORSDOF 5
ENDMDL
MODEL 5
REMARK VINA RESULT:      -8.8      0.953      1.216
REMARK  Name = 
REMARK  5 active torsions:
REMARK  status: ('A' for Active; 'I' for Inactive)
REMARK    1  A    between atoms: N_15  and  C_16
REMARK    2  A    between atoms: C_20  and  C_21
REMARK    3  A    between atoms: C_21  and  C_22
REMARK    4  A    between atoms: C_22  and  C_23
REMARK    5  A    between atoms: C_26  and  O_27
REMARK                            x       y       z     vdW  Elec       q    Type
REMARK                         _______ _______ _______ _____ _____    ______ ____
ROOT
ATOM      1  C   UNL     1       1.490   8.297  20.276  0.00  0.00    +0.000 A 
ATOM      2  C   UNL     1       1.426   8.411  21.670  0.00  0.00    +0.000 A 
ATOM      3  C   UNL     1       0.808   9.512  22.267  0.00  0.00    +0.000 A 
ATOM      4  C   UNL     1       0.190  10.485  21.483  0.00  0.00    +0.000 A 
ATOM      5  C   UNL     1       0.182  10.370  20.090  0.00  0.00    +0.000 A 
ATOM      6  C   UNL     1       0.879   9.298  19.505  0.00  0.00    +0.000 A 
ENDROOT
BRANCH   1  21
ATOM      7  O   UNL     1       1.368   5.404  20.968  0.00  0.00    +0.000 OA
ATOM      8  C   UNL     1       1.996   5.883  20.044  0.00  0.00    +0.000 C 
ATOM      9  C   UNL     1       2.754   5.065  19.087  0.00  0.00    +0.000 A 
ATOM     10  C   UNL     1       2.893   3.691  18.977  0.00  0.00    +0.000 A 
ATOM     11 CL   UNL     1       2.061   2.629  20.055  0.00  0.00    +0.000 Cl
ATOM     12  C   UNL     1       3.714   3.193  17.945  0.00  0.00    +0.000 A 
ATOM     13 CL   UNL     1       3.910   1.472  17.755  0.00  0.00    +0.000 Cl
ATOM     14  C   UNL     1       4.378   4.083  17.062  0.00  0.00    +0.000 A 
ATOM     15 CL   UNL     1       5.420   3.455  15.814  0.00  0.00    +0.000 Cl
ATOM     16  C   UNL     1       4.199   5.473  17.185  0.00  0.00    +0.000 A 
ATOM     17 CL   UNL     1       4.999   6.581  16.127  0.00  0.00    +0.000 Cl
ATOM     18  C   UNL     1       3.366   5.932  18.196  0.00  0.00    +0.000 A 
ATOM     19  C   UNL     1       2.950   7.291  18.547  0.00  0.00    +0.000 C 
ATOM     20  O   UNL     1       3.329   8.275  17.941  0.00  0.00    +0.000 OA
ATOM     21  N   UNL     1       2.130   7.192  19.649  0.00  0.00    +0.000 N 
ENDBRANCH   1  21
BRANCH   5  22
ATOM     22  C   UNL     1      -0.545  11.409  19.256  0.00  0.00    +0.000 C 
BRANCH  22  23
ATOM     23  C   UNL     1      -1.078  10.889  17.913  0.00  0.00    +0.000 C 
BRANCH  23  24
ATOM     24  C   UNL     1      -2.541  11.191  17.703  0.00  0.00    +0.000 A 
ATOM     25  C   UNL     1      -3.123  11.001  16.441  0.00  0.00    +0.000 A 
ATOM     26  C   UNL     1      -4.482  11.245  16.243  0.00  0.00    +0.000 A 
ATOM     27  C   UNL     1      -5.258  11.684  17.310  0.00  0.00    +0.000 A 
ATOM     28  C   UNL     1      -4.695  11.891  18.564  0.00  0.00    +0.000 A 
ATOM     29  C   UNL     1      -3.336  11.646  18.762  0.00  0.00    +0.000 A 
BRANCH  27  30
ATOM     30  O   UNL     1      -6.593  11.922  17.165  0.00  0.00    +0.000 OA
ATOM     31  H   UNL     1      -7.037  11.077  16.987  0.00  0.00    +0.000 HD
ENDBRANCH  27  30
ENDBRANCH  23  24
ENDBRANCH  22  23
ENDBRANCH   5  22
TORSDOF 5
ENDMDL
MODEL 6
REMARK VINA RESULT:      -8.8      5.201      9.356
REMARK  Name = 
REMARK  5 active torsions:
REMARK  status: ('A' for Active; 'I' for Inactive)
REMARK    1  A    between atoms: N_15  and  C_16
REMARK    2  A    between atoms: C_20  and  C_21
REMARK    3  A    between atoms: C_21  and  C_22
REMARK    4  A    between atoms: C_22  and  C_23
REMARK    5  A    between atoms: C_26  and  O_27
REMARK                            x       y       z     vdW  Elec       q    Type
REMARK                         _______ _______ _______ _____ _____    ______ ____
ROOT
ATOM      1  C   UNL     1       0.911   9.553  19.416  0.00  0.00    +0.000 A 
ATOM      2  C   UNL     1       1.542   9.562  18.166  0.00  0.00    +0.000 A 
ATOM      3  C   UNL     1       2.401   8.525  17.795  0.00  0.00    +0.000 A 
ATOM      4  C   UNL     1       2.597   7.434  18.640  0.00  0.00    +0.000 A 
ATOM      5  C   UNL     1       1.935   7.363  19.869  0.00  0.00    +0.000 A 
ATOM      6  C   UNL     1       1.138   8.454  20.260  0.00  0.00    +0.000 A 
ENDROOT
BRANCH   1  21
ATOM      7  O   UNL     1       1.438  11.817  21.274  0.00  0.00    +0.000 OA
ATOM      8  C   UNL     1       0.395  11.619  20.682  0.00  0.00    +0.000 C 
ATOM      9  C   UNL     1      -0.755  12.529  20.765  0.00  0.00    +0.000 A 
ATOM     10  C   UNL     1      -0.911  13.736  21.429  0.00  0.00    +0.000 A 
ATOM     11 CL   UNL     1       0.395  14.431  22.319  0.00  0.00    +0.000 Cl
ATOM     12  C   UNL     1      -2.160  14.382  21.333  0.00  0.00    +0.000 A 
ATOM     13 CL   UNL     1      -2.405  15.908  22.136  0.00  0.00    +0.000 Cl
ATOM     14  C   UNL     1      -3.216  13.799  20.585  0.00  0.00    +0.000 A 
ATOM     15 CL   UNL     1      -4.766  14.591  20.505  0.00  0.00    +0.000 Cl
ATOM     16  C   UNL     1      -3.019  12.584  19.903  0.00  0.00    +0.000 A 
ATOM     17 CL   UNL     1      -4.287  11.849  18.988  0.00  0.00    +0.000 Cl
ATOM     18  C   UNL     1      -1.771  11.983  19.998  0.00  0.00    +0.000 A 
ATOM     19  C   UNL     1      -1.249  10.763  19.380  0.00  0.00    +0.000 C 
ATOM     20  O   UNL     1      -1.915  10.058  18.645  0.00  0.00    +0.000 OA
ATOM     21  N   UNL     1       0.046  10.607  19.820  0.00  0.00    +0.000 N 
ENDBRANCH   1  21
BRANCH   5  22
ATOM     22  C   UNL     1       2.116   6.141  20.750  0.00  0.00    +0.000 C 
BRANCH  22  23
ATOM     23  C   UNL     1       1.239   4.941  20.362  0.00  0.00    +0.000 C 
BRANCH  23  24
ATOM     24  C   UNL     1       2.028   3.805  19.760  0.00  0.00    +0.000 A 
ATOM     25  C   UNL     1       1.617   3.229  18.549  0.00  0.00    +0.000 A 
ATOM     26  C   UNL     1       2.358   2.200  17.966  0.00  0.00    +0.000 A 
ATOM     27  C   UNL     1       3.508   1.744  18.600  0.00  0.00    +0.000 A 
ATOM     28  C   UNL     1       3.922   2.294  19.808  0.00  0.00    +0.000 A 
ATOM     29  C   UNL     1       3.182   3.324  20.390  0.00  0.00    +0.000 A 
BRANCH  27  30
ATOM     30  O   UNL     1       4.269   0.750  18.060  0.00  0.00    +0.000 OA
ATOM     31  H   UNL     1       3.783   0.366  17.312  0.00  0.00    +0.000 HD
ENDBRANCH  27  30
ENDBRANCH  23  24
ENDBRANCH  22  23
ENDBRANCH   5  22
TORSDOF 5
ENDMDL
MODEL 7
REMARK VINA RESULT:      -8.6      2.060      2.742
REMARK  Name = 
REMARK  5 active torsions:
REMARK  status: ('A' for Active; 'I' for Inactive)
REMARK    1  A    between atoms: N_15  and  C_16
REMARK    2  A    between atoms: C_20  and  C_21
REMARK    3  A    between atoms: C_21  and  C_22
REMARK    4  A    between atoms: C_22  and  C_23
REMARK    5  A    between atoms: C_26  and  O_27
REMARK                            x       y       z     vdW  Elec       q    Type
REMARK                         _______ _______ _______ _____ _____    ______ ____
ROOT
ATOM      1  C   UNL     1       0.820   9.657  19.257  0.00  0.00    +0.000 A 
ATOM      2  C   UNL     1       0.926  10.512  20.361  0.00  0.00    +0.000 A 
ATOM      3  C   UNL     1       0.105  11.636  20.472  0.00  0.00    +0.000 A 
ATOM      4  C   UNL     1      -0.875  11.893  19.515  0.00  0.00    +0.000 A 
ATOM      5  C   UNL     1      -1.049  11.026  18.431  0.00  0.00    +0.000 A 
ATOM      6  C   UNL     1      -0.160   9.945  18.294  0.00  0.00    +0.000 A 
ENDROOT
BRANCH   1  21
ATOM      7  O   UNL     1       1.153   7.325  21.076  0.00  0.00    +0.000 OA
ATOM      8  C   UNL     1       1.728   7.481  20.016  0.00  0.00    +0.000 C 
ATOM      9  C   UNL     1       2.647   6.483  19.453  0.00  0.00    +0.000 A 
ATOM     10  C   UNL     1       3.016   5.228  19.912  0.00  0.00    +0.000 A 
ATOM     11 CL   UNL     1       2.330   4.578  21.357  0.00  0.00    +0.000 Cl
ATOM     12  C   UNL     1       3.948   4.497  19.147  0.00  0.00    +0.000 A 
ATOM     13 CL   UNL     1       4.433   2.908  19.672  0.00  0.00    +0.000 Cl
ATOM     14  C   UNL     1       4.488   5.044  17.956  0.00  0.00    +0.000 A 
ATOM     15 CL   UNL     1       5.666   4.143  17.041  0.00  0.00    +0.000 Cl
ATOM     16  C   UNL     1       4.077   6.312  17.504  0.00  0.00    +0.000 A 
ATOM     17 CL   UNL     1       4.721   7.006  16.059  0.00  0.00    +0.000 Cl
ATOM     18  C   UNL     1       3.141   6.998  18.266  0.00  0.00    +0.000 A 
ATOM     19  C   UNL     1       2.492   8.291  18.043  0.00  0.00    +0.000 C 
ATOM     20  O   UNL     1       2.725   8.989  17.075  0.00  0.00    +0.000 OA
ATOM     21  N   UNL     1       1.658   8.517  19.116  0.00  0.00    +0.000 N 
ENDBRANCH   1  21
BRANCH   5  22
ATOM     22  C   UNL     1      -2.158  11.290  17.431  0.00  0.00    +0.000 C 
BRANCH  22  23
ATOM     23  C   UNL     1      -3.509  10.656  17.795  0.00  0.00    +0.000 C 
BRANCH  23  24
ATOM     24  C   UNL     1      -4.578  11.677  18.095  0.00  0.00    +0.000 A 
ATOM     25  C   UNL     1      -4.672  12.239  19.376  0.00  0.00    +0.000 A 
ATOM     26  C   UNL     1      -5.636  13.209  19.655  0.00  0.00    +0.000 A 
ATOM     27  C   UNL     1      -6.509  13.611  18.651  0.00  0.00    +0.000 A 
ATOM     28  C   UNL     1      -6.439  13.054  17.379  0.00  0.00    +0.000 A 
ATOM     29  C   UNL     1      -5.474  12.086  17.100  0.00  0.00    +0.000 A 
BRANCH  27  30
ATOM     30  O   UNL     1      -7.457  14.565  18.876  0.00  0.00    +0.000 OA
ATOM     31  H   UNL     1      -8.231  14.363  18.326  0.00  0.00    +0.000 HD
ENDBRANCH  27  30
ENDBRANCH  23  24
ENDBRANCH  22  23
ENDBRANCH   5  22
TORSDOF 5
ENDMDL
MODEL 8
REMARK VINA RESULT:      -8.5      2.305      2.933
REMARK  Name = 
REMARK  5 active torsions:
REMARK  status: ('A' for Active; 'I' for Inactive)
REMARK    1  A    between atoms: N_15  and  C_16
REMARK    2  A    between atoms: C_20  and  C_21
REMARK    3  A    between atoms: C_21  and  C_22
REMARK    4  A    between atoms: C_22  and  C_23
REMARK    5  A    between atoms: C_26  and  O_27
REMARK                            x       y       z     vdW  Elec       q    Type
REMARK                         _______ _______ _______ _____ _____    ______ ____
ROOT
ATOM      1  C   UNL     1       0.821   9.499  19.162  0.00  0.00    +0.000 A 
ATOM      2  C   UNL     1       1.095  10.568  20.023  0.00  0.00    +0.000 A 
ATOM      3  C   UNL     1       0.239  11.671  20.085  0.00  0.00    +0.000 A 
ATOM      4  C   UNL     1      -0.935  11.696  19.333  0.00  0.00    +0.000 A 
ATOM      5  C   UNL     1      -1.270  10.617  18.509  0.00  0.00    +0.000 A 
ATOM      6  C   UNL     1      -0.357   9.554  18.399  0.00  0.00    +0.000 A 
ENDROOT
BRANCH   1  21
ATOM      7  O   UNL     1       1.135   7.204  21.031  0.00  0.00    +0.000 OA
ATOM      8  C   UNL     1       1.746   7.356  19.991  0.00  0.00    +0.000 C 
ATOM      9  C   UNL     1       2.707   6.370  19.480  0.00  0.00    +0.000 A 
ATOM     10  C   UNL     1       3.086   5.131  19.973  0.00  0.00    +0.000 A 
ATOM     11 CL   UNL     1       2.360   4.489  21.402  0.00  0.00    +0.000 Cl
ATOM     12  C   UNL     1       4.061   4.408  19.256  0.00  0.00    +0.000 A 
ATOM     13 CL   UNL     1       4.561   2.839  19.825  0.00  0.00    +0.000 Cl
ATOM     14  C   UNL     1       4.634   4.949  18.076  0.00  0.00    +0.000 A 
ATOM     15 CL   UNL     1       5.865   4.060  17.221  0.00  0.00    +0.000 Cl
ATOM     16  C   UNL     1       4.213   6.199  17.589  0.00  0.00    +0.000 A 
ATOM     17 CL   UNL     1       4.896   6.884  16.157  0.00  0.00    +0.000 Cl
ATOM     18  C   UNL     1       3.234   6.877  18.303  0.00  0.00    +0.000 A 
ATOM     19  C   UNL     1       2.566   8.151  18.035  0.00  0.00    +0.000 C 
ATOM     20  O   UNL     1       2.821   8.839  17.064  0.00  0.00    +0.000 OA
ATOM     21  N   UNL     1       1.688   8.375  19.071  0.00  0.00    +0.000 N 
ENDBRANCH   1  21
BRANCH   5  22
ATOM     22  C   UNL     1      -2.580  10.638  17.743  0.00  0.00    +0.000 C 
BRANCH  22  23
ATOM     23  C   UNL     1      -3.408  11.917  17.931  0.00  0.00    +0.000 C 
BRANCH  23  24
ATOM     24  C   UNL     1      -4.624  11.711  18.798  0.00  0.00    +0.000 A 
ATOM     25  C   UNL     1      -5.591  10.760  18.436  0.00  0.00    +0.000 A 
ATOM     26  C   UNL     1      -6.703  10.537  19.248  0.00  0.00    +0.000 A 
ATOM     27  C   UNL     1      -6.851  11.270  20.420  0.00  0.00    +0.000 A 
ATOM     28  C   UNL     1      -5.910  12.226  20.786  0.00  0.00    +0.000 A 
ATOM     29  C   UNL     1      -4.797  12.448  19.975  0.00  0.00    +0.000 A 
BRANCH  27  30
ATOM     30  O   UNL     1      -7.915  11.076  21.249  0.00  0.00    +0.000 OA
ATOM     31  H   UNL     1      -8.712  10.970  20.705  0.00  0.00    +0.000 HD
ENDBRANCH  27  30
ENDBRANCH  23  24
ENDBRANCH  22  23
ENDBRANCH   5  22
TORSDOF 5
ENDMDL
MODEL 9
REMARK VINA RESULT:      -8.5      5.495      9.310
REMARK  Name = 
REMARK  5 active torsions:
REMARK  status: ('A' for Active; 'I' for Inactive)
REMARK    1  A    between atoms: N_15  and  C_16
REMARK    2  A    between atoms: C_20  and  C_21
REMARK    3  A    between atoms: C_21  and  C_22
REMARK    4  A    between atoms: C_22  and  C_23
REMARK    5  A    between atoms: C_26  and  O_27
REMARK                            x       y       z     vdW  Elec       q    Type
REMARK                         _______ _______ _______ _____ _____    ______ ____
ROOT
ATOM      1  C   UNL     1       0.008  11.528  19.038  0.00  0.00    +0.000 A 
ATOM      2  C   UNL     1       1.015  12.486  18.871  0.00  0.00    +0.000 A 
ATOM      3  C   UNL     1       2.263  12.126  18.357  0.00  0.00    +0.000 A 
ATOM      4  C   UNL     1       2.505  10.816  17.946  0.00  0.00    +0.000 A 
ATOM      5  C   UNL     1       1.501   9.847  18.042  0.00  0.00    +0.000 A 
ATOM      6  C   UNL     1       0.280  10.211  18.636  0.00  0.00    +0.000 A 
ENDROOT
BRANCH   1  21
ATOM      7  O   UNL     1      -2.613  11.803  17.654  0.00  0.00    +0.000 OA
ATOM      8  C   UNL     1      -2.424  11.960  18.845  0.00  0.00    +0.000 C 
ATOM      9  C   UNL     1      -3.507  12.259  19.791  0.00  0.00    +0.000 A 
ATOM     10  C   UNL     1      -4.874  12.380  19.598  0.00  0.00    +0.000 A 
ATOM     11 CL   UNL     1      -5.572  12.122  18.040  0.00  0.00    +0.000 Cl
ATOM     12  C   UNL     1      -5.671  12.695  20.717  0.00  0.00    +0.000 A 
ATOM     13 CL   UNL     1      -7.397  12.843  20.531  0.00  0.00    +0.000 Cl
ATOM     14  C   UNL     1      -5.077  12.888  21.991  0.00  0.00    +0.000 A 
ATOM     15 CL   UNL     1      -6.071  13.314  23.358  0.00  0.00    +0.000 Cl
ATOM     16  C   UNL     1      -3.688  12.737  22.160  0.00  0.00    +0.000 A 
ATOM     17 CL   UNL     1      -2.938  12.971  23.698  0.00  0.00    +0.000 Cl
ATOM     18  C   UNL     1      -2.933  12.404  21.044  0.00  0.00    +0.000 A 
ATOM     19  C   UNL     1      -1.501  12.137  20.906  0.00  0.00    +0.000 C 
ATOM     20  O   UNL     1      -0.726  12.189  21.842  0.00  0.00    +0.000 OA
ATOM     21  N   UNL     1      -1.263  11.871  19.575  0.00  0.00    +0.000 N 
ENDBRANCH   1  21
BRANCH   5  22
ATOM     22  C   UNL     1       1.765   8.442  17.536  0.00  0.00    +0.000 C 
BRANCH  22  23
ATOM     23  C   UNL     1       2.809   7.658  18.345  0.00  0.00    +0.000 C 
BRANCH  23  24
ATOM     24  C   UNL     1       2.284   6.347  18.871  0.00  0.00    +0.000 A 
ATOM     25  C   UNL     1       2.007   6.199  20.239  0.00  0.00    +0.000 A 
ATOM     26  C   UNL     1       1.490   5.001  20.732  0.00  0.00    +0.000 A 
ATOM     27  C   UNL     1       1.255   3.948  19.855  0.00  0.00    +0.000 A 
ATOM     28  C   UNL     1       1.538   4.071  18.500  0.00  0.00    +0.000 A 
ATOM     29  C   UNL     1       2.054   5.270  18.007  0.00  0.00    +0.000 A 
BRANCH  27  30
ATOM     30  O   UNL     1       0.739   2.764  20.291  0.00  0.00    +0.000 OA
ATOM     31  H   UNL     1       1.476   2.164  20.493  0.00  0.00    +0.000 HD
ENDBRANCH  27  30
ENDBRANCH  23  24
ENDBRANCH  22  23
ENDBRANCH   5  22
TORSDOF 5
ENDMDL
