MODEL 1
REMARK VINA RESULT:      -7.3      0.000      0.000
REMARK  Name = 
REMARK  6 active torsions:
REMARK  status: ('A' for Active; 'I' for Inactive)
REMARK    1  A    between atoms: C_1  and  O_2
REMARK    2  A    between atoms: O_2  and  C_3
REMARK    3  A    between atoms: C_7  and  N_8
REMARK    4  A    between atoms: N_11  and  C_12
REMARK    5  A    between atoms: C_13  and  C_14
REMARK    6  A    between atoms: C_14  and  O_15
REMARK                            x       y       z     vdW  Elec       q    Type
REMARK                         _______ _______ _______ _____ _____    ______ ____
ROOT
ATOM      1  N   UNL     1       1.053   9.240  18.821  0.00  0.00    +0.000 N 
ATOM      2  C   UNL     1       1.703   8.766  17.575  0.00  0.00    +0.000 C 
ATOM      3  C   UNL     1       3.158   8.132  17.800  0.00  0.00    +0.000 C 
ATOM      4  N   UNL     1       3.363   7.160  18.953  0.00  0.00    +0.000 N 
ATOM      5  C   UNL     1       2.477   7.593  20.122  0.00  0.00    +0.000 C 
ATOM      6  C   UNL     1       1.036   8.104  19.790  0.00  0.00    +0.000 C 
ENDROOT
BRANCH   4   7
ATOM      7  C   UNL     1       3.588   5.768  18.739  0.00  0.00    +0.000 A 
ATOM      8  C   UNL     1       4.678   5.405  18.030  0.00  0.00    +0.000 A 
ATOM      9  C   UNL     1       5.410   4.622  19.057  0.00  0.00    +0.000 A 
ATOM     10  O   UNL     1       6.222   5.118  19.833  0.00  0.00    +0.000 OA
ATOM     11  O   UNL     1       4.991   3.325  19.138  0.00  0.00    +0.000 OA
ATOM     12  C   UNL     1       3.582   3.265  19.127  0.00  0.00    +0.000 A 
ATOM     13  C   UNL     1       3.099   1.945  19.113  0.00  0.00    +0.000 A 
ATOM     14  C   UNL     1       1.733   1.726  19.046  0.00  0.00    +0.000 A 
ATOM     15  C   UNL     1       0.895   2.851  19.037  0.00  0.00    +0.000 A 
ATOM     16  C   UNL     1       1.395   4.203  19.037  0.00  0.00    +0.000 A 
ATOM     17  C   UNL     1       2.772   4.456  19.058  0.00  0.00    +0.000 A 
BRANCH   8  18
ATOM     18  C   UNL     1       4.642   4.786  16.651  0.00  0.00    +0.000 C 
BRANCH  18  19
ATOM     19  O   UNL     1       5.701   3.822  16.456  0.00  0.00    +0.000 OA
ATOM     20  H   UNL     1       5.918   3.426  17.317  0.00  0.00    +0.000 HD
ENDBRANCH  18  19
ENDBRANCH   8  18
ENDBRANCH   4   7
BRANCH   1  25
ATOM     21  C   UNL     1      -2.200  11.027  17.901  0.00  0.00    +0.000 A 
ATOM     22  C   UNL     1      -2.328  11.908  18.971  0.00  0.00    +0.000 A 
ATOM     23  C   UNL     1      -1.366  11.930  19.951  0.00  0.00    +0.000 A 
ATOM     24  C   UNL     1      -0.258  11.038  19.881  0.00  0.00    +0.000 A 
ATOM     25  C   UNL     1      -0.099  10.088  18.833  0.00  0.00    +0.000 A 
ATOM     26  C   UNL     1      -1.079  10.121  17.832  0.00  0.00    +0.000 A 
BRANCH  21  28
ATOM     27  C   UNL     1      -2.949  10.929  15.627  0.00  0.00    +0.000 C 
ATOM     28  O   UNL     1      -3.224  11.153  16.997  0.00  0.00    +0.000 OA
ENDBRANCH  21  28
ENDBRANCH   1  25
TORSDOF 5
ENDMDL
MODEL 2
REMARK VINA RESULT:      -7.2      2.229      8.392
REMARK  Name = 
REMARK  6 active torsions:
REMARK  status: ('A' for Active; 'I' for Inactive)
REMARK    1  A    between atoms: C_1  and  O_2
REMARK    2  A    between atoms: O_2  and  C_3
REMARK    3  A    between atoms: C_7  and  N_8
REMARK    4  A    between atoms: N_11  and  C_12
REMARK    5  A    between atoms: C_13  and  C_14
REMARK    6  A    between atoms: C_14  and  O_15
REMARK                            x       y       z     vdW  Elec       q    Type
REMARK                         _______ _______ _______ _____ _____    ______ ____
ROOT
ATOM      1  N   UNL     1       2.426   7.518  18.660  0.00  0.00    +0.000 N 
ATOM      2  C   UNL     1       1.736   7.609  19.969  0.00  0.00    +0.000 C 
ATOM      3  C   UNL     1       1.643   9.099  20.553  0.00  0.00    +0.000 C 
ATOM      4  N   UNL     1       1.238  10.229  19.618  0.00  0.00    +0.000 N 
ATOM      5  C   UNL     1       1.801   9.938  18.226  0.00  0.00    +0.000 C 
ATOM      6  C   UNL     1       1.749   8.458  17.718  0.00  0.00    +0.000 C 
ENDROOT
BRANCH   4   7
ATOM      7  C   UNL     1      -0.022  10.889  19.726  0.00  0.00    +0.000 A 
ATOM      8  C   UNL     1      -0.245  11.649  20.819  0.00  0.00    +0.000 A 
ATOM      9  C   UNL     1      -0.428  12.977  20.181  0.00  0.00    +0.000 A 
ATOM     10  O   UNL     1       0.496  13.757  19.968  0.00  0.00    +0.000 OA
ATOM     11  O   UNL     1      -1.702  13.185  19.736  0.00  0.00    +0.000 OA
ATOM     12  C   UNL     1      -2.174  12.042  19.055  0.00  0.00    +0.000 A 
ATOM     13  C   UNL     1      -3.516  12.169  18.658  0.00  0.00    +0.000 A 
ATOM     14  C   UNL     1      -4.137  11.105  18.026  0.00  0.00    +0.000 A 
ATOM     15  C   UNL     1      -3.367   9.958  17.777  0.00  0.00    +0.000 A 
ATOM     16  C   UNL     1      -1.994   9.828  18.199  0.00  0.00    +0.000 A 
ATOM     17  C   UNL     1      -1.354  10.869  18.881  0.00  0.00    +0.000 A 
BRANCH   8  18
ATOM     18  C   UNL     1      -1.236  11.317  21.911  0.00  0.00    +0.000 C 
BRANCH  18  19
ATOM     19  O   UNL     1      -0.587  11.047  23.175  0.00  0.00    +0.000 OA
ATOM     20  H   UNL     1       0.123  10.401  23.024  0.00  0.00    +0.000 HD
ENDBRANCH  18  19
ENDBRANCH   8  18
ENDBRANCH   4   7
BRANCH   1  25
ATOM     21  C   UNL     1       2.700   3.865  17.564  0.00  0.00    +0.000 A 
ATOM     22  C   UNL     1       3.956   3.864  16.964  0.00  0.00    +0.000 A 
ATOM     23  C   UNL     1       4.698   5.020  16.939  0.00  0.00    +0.000 A 
ATOM     24  C   UNL     1       4.171   6.216  17.506  0.00  0.00    +0.000 A 
ATOM     25  C   UNL     1       2.877   6.284  18.093  0.00  0.00    +0.000 A 
ATOM     26  C   UNL     1       2.166   5.078  18.134  0.00  0.00    +0.000 A 
BRANCH  21  28
ATOM     27  C   UNL     1       1.207   2.283  18.569  0.00  0.00    +0.000 C 
ATOM     28  O   UNL     1       2.106   2.630  17.531  0.00  0.00    +0.000 OA
ENDBRANCH  21  28
ENDBRANCH   1  25
TORSDOF 5
ENDMDL
MODEL 3
REMARK VINA RESULT:      -7.1      2.107      8.508
REMARK  Name = 
REMARK  6 active torsions:
REMARK  status: ('A' for Active; 'I' for Inactive)
REMARK    1  A    between atoms: C_1  and  O_2
REMARK    2  A    between atoms: O_2  and  C_3
REMARK    3  A    between atoms: C_7  and  N_8
REMARK    4  A    between atoms: N_11  and  C_12
REMARK    5  A    between atoms: C_13  and  C_14
REMARK    6  A    between atoms: C_14  and  O_15
REMARK                            x       y       z     vdW  Elec       q    Type
REMARK                         _______ _______ _______ _____ _____    ______ ____
ROOT
ATOM      1  N   UNL     1       2.517   7.494  18.729  0.00  0.00    +0.000 N 
ATOM      2  C   UNL     1       1.768   7.571  20.007  0.00  0.00    +0.000 C 
ATOM      3  C   UNL     1       1.607   9.060  20.578  0.00  0.00    +0.000 C 
ATOM      4  N   UNL     1       1.211  10.173  19.620  0.00  0.00    +0.000 N 
ATOM      5  C   UNL     1       1.841   9.892  18.255  0.00  0.00    +0.000 C 
ATOM      6  C   UNL     1       1.854   8.410  17.754  0.00  0.00    +0.000 C 
ENDROOT
BRANCH   4   7
ATOM      7  C   UNL     1      -0.072  10.796  19.670  0.00  0.00    +0.000 A 
ATOM      8  C   UNL     1      -0.360  11.564  20.742  0.00  0.00    +0.000 A 
ATOM      9  C   UNL     1      -0.557  12.877  20.079  0.00  0.00    +0.000 A 
ATOM     10  O   UNL     1       0.352  13.682  19.891  0.00  0.00    +0.000 OA
ATOM     11  O   UNL     1      -1.818  13.041  19.582  0.00  0.00    +0.000 OA
ATOM     12  C   UNL     1      -2.229  11.876  18.900  0.00  0.00    +0.000 A 
ATOM     13  C   UNL     1      -3.558  11.957  18.450  0.00  0.00    +0.000 A 
ATOM     14  C   UNL     1      -4.122  10.866  17.810  0.00  0.00    +0.000 A 
ATOM     15  C   UNL     1      -3.310   9.740  17.607  0.00  0.00    +0.000 A 
ATOM     16  C   UNL     1      -1.951   9.656  18.084  0.00  0.00    +0.000 A 
ATOM     17  C   UNL     1      -1.369  10.726  18.775  0.00  0.00    +0.000 A 
BRANCH   8  18
ATOM     18  C   UNL     1      -1.382  11.216  21.801  0.00  0.00    +0.000 C 
BRANCH  18  19
ATOM     19  O   UNL     1      -0.794  10.516  22.920  0.00  0.00    +0.000 OA
ATOM     20  H   UNL     1      -0.303   9.749  22.579  0.00  0.00    +0.000 HD
ENDBRANCH  18  19
ENDBRANCH   8  18
ENDBRANCH   4   7
BRANCH   1  25
ATOM     21  C   UNL     1       4.762   4.837  17.141  0.00  0.00    +0.000 A 
ATOM     22  C   UNL     1       3.883   3.760  17.067  0.00  0.00    +0.000 A 
ATOM     23  C   UNL     1       2.589   3.908  17.505  0.00  0.00    +0.000 A 
ATOM     24  C   UNL     1       2.160   5.151  18.051  0.00  0.00    +0.000 A 
ATOM     25  C   UNL     1       3.028   6.271  18.190  0.00  0.00    +0.000 A 
ATOM     26  C   UNL     1       4.328   6.095  17.698  0.00  0.00    +0.000 A 
BRANCH  21  28
ATOM     27  C   UNL     1       7.137   4.766  17.449  0.00  0.00    +0.000 C 
ATOM     28  O   UNL     1       6.000   4.534  16.637  0.00  0.00    +0.000 OA
ENDBRANCH  21  28
ENDBRANCH   1  25
TORSDOF 5
ENDMDL
MODEL 4
REMARK VINA RESULT:      -7.0      0.956      1.669
REMARK  Name = 
REMARK  6 active torsions:
REMARK  status: ('A' for Active; 'I' for Inactive)
REMARK    1  A    between atoms: C_1  and  O_2
REMARK    2  A    between atoms: O_2  and  C_3
REMARK    3  A    between atoms: C_7  and  N_8
REMARK    4  A    between atoms: N_11  and  C_12
REMARK    5  A    between atoms: C_13  and  C_14
REMARK    6  A    between atoms: C_14  and  O_15
REMARK                            x       y       z     vdW  Elec       q    Type
REMARK                         _______ _______ _______ _____ _____    ______ ____
ROOT
ATOM      1  N   UNL     1       1.057   9.255  18.830  0.00  0.00    +0.000 N 
ATOM      2  C   UNL     1       1.689   8.768  17.581  0.00  0.00    +0.000 C 
ATOM      3  C   UNL     1       3.144   8.129  17.794  0.00  0.00    +0.000 C 
ATOM      4  N   UNL     1       3.358   7.166  18.952  0.00  0.00    +0.000 N 
ATOM      5  C   UNL     1       2.489   7.612  20.128  0.00  0.00    +0.000 C 
ATOM      6  C   UNL     1       1.046   8.127  19.809  0.00  0.00    +0.000 C 
ENDROOT
BRANCH   4   7
ATOM      7  C   UNL     1       3.575   5.770  18.747  0.00  0.00    +0.000 A 
ATOM      8  C   UNL     1       4.659   5.396  18.036  0.00  0.00    +0.000 A 
ATOM      9  C   UNL     1       5.391   4.616  19.064  0.00  0.00    +0.000 A 
ATOM     10  O   UNL     1       6.209   5.113  19.834  0.00  0.00    +0.000 OA
ATOM     11  O   UNL     1       4.965   3.322  19.156  0.00  0.00    +0.000 OA
ATOM     12  C   UNL     1       3.555   3.271  19.152  0.00  0.00    +0.000 A 
ATOM     13  C   UNL     1       3.065   1.954  19.150  0.00  0.00    +0.000 A 
ATOM     14  C   UNL     1       1.697   1.741  19.090  0.00  0.00    +0.000 A 
ATOM     15  C   UNL     1       0.865   2.871  19.077  0.00  0.00    +0.000 A 
ATOM     16  C   UNL     1       1.373   4.220  19.065  0.00  0.00    +0.000 A 
ATOM     17  C   UNL     1       2.752   4.465  19.078  0.00  0.00    +0.000 A 
BRANCH   8  18
ATOM     18  C   UNL     1       4.613   4.768  16.661  0.00  0.00    +0.000 C 
BRANCH  18  19
ATOM     19  O   UNL     1       5.675   3.808  16.462  0.00  0.00    +0.000 OA
ATOM     20  H   UNL     1       6.195   4.082  15.688  0.00  0.00    +0.000 HD
ENDBRANCH  18  19
ENDBRANCH   8  18
ENDBRANCH   4   7
BRANCH   1  25
ATOM     21  C   UNL     1      -1.599  11.814  19.842  0.00  0.00    +0.000 A 
ATOM     22  C   UNL     1      -2.483  11.711  18.773  0.00  0.00    +0.000 A 
ATOM     23  C   UNL     1      -2.228  10.815  17.763  0.00  0.00    +0.000 A 
ATOM     24  C   UNL     1      -1.051  10.014  17.803  0.00  0.00    +0.000 A 
ATOM     25  C   UNL     1      -0.092  10.109  18.850  0.00  0.00    +0.000 A 
ATOM     26  C   UNL     1      -0.404  11.005  19.880  0.00  0.00    +0.000 A 
BRANCH  21  28
ATOM     27  C   UNL     1      -3.380  12.750  21.143  0.00  0.00    +0.000 C 
ATOM     28  O   UNL     1      -2.013  12.729  20.775  0.00  0.00    +0.000 OA
ENDBRANCH  21  28
ENDBRANCH   1  25
TORSDOF 5
ENDMDL
MODEL 5
REMARK VINA RESULT:      -7.0      2.512      4.042
REMARK  Name = 
REMARK  6 active torsions:
REMARK  status: ('A' for Active; 'I' for Inactive)
REMARK    1  A    between atoms: C_1  and  O_2
REMARK    2  A    between atoms: O_2  and  C_3
REMARK    3  A    between atoms: C_7  and  N_8
REMARK    4  A    between atoms: N_11  and  C_12
REMARK    5  A    between atoms: C_13  and  C_14
REMARK    6  A    between atoms: C_14  and  O_15
REMARK                            x       y       z     vdW  Elec       q    Type
REMARK                         _______ _______ _______ _____ _____    ______ ____
ROOT
ATOM      1  N   UNL     1       1.279   8.772  19.727  0.00  0.00    +0.000 N 
ATOM      2  C   UNL     1       1.852   7.750  20.635  0.00  0.00    +0.000 C 
ATOM      3  C   UNL     1       1.766   6.253  20.067  0.00  0.00    +0.000 C 
ATOM      4  N   UNL     1       2.141   5.998  18.615  0.00  0.00    +0.000 N 
ATOM      5  C   UNL     1       1.720   7.208  17.780  0.00  0.00    +0.000 C 
ATOM      6  C   UNL     1       1.943   8.629  18.397  0.00  0.00    +0.000 C 
ENDROOT
BRANCH   4   7
ATOM      7  C   UNL     1       3.326   5.291  18.251  0.00  0.00    +0.000 A 
ATOM      8  C   UNL     1       3.469   4.025  18.699  0.00  0.00    +0.000 A 
ATOM      9  C   UNL     1       3.511   3.293  17.408  0.00  0.00    +0.000 A 
ATOM     10  O   UNL     1       2.509   2.859  16.845  0.00  0.00    +0.000 OA
ATOM     11  O   UNL     1       4.756   3.271  16.847  0.00  0.00    +0.000 OA
ATOM     12  C   UNL     1       5.344   4.552  16.912  0.00  0.00    +0.000 A 
ATOM     13  C   UNL     1       6.665   4.561  16.433  0.00  0.00    +0.000 A 
ATOM     14  C   UNL     1       7.394   5.738  16.485  0.00  0.00    +0.000 A 
ATOM     15  C   UNL     1       6.749   6.880  16.981  0.00  0.00    +0.000 A 
ATOM     16  C   UNL     1       5.398   6.862  17.485  0.00  0.00    +0.000 A 
ATOM     17  C   UNL     1       4.652   5.677  17.488  0.00  0.00    +0.000 A 
BRANCH   8  18
ATOM     18  C   UNL     1       4.489   3.585  19.723  0.00  0.00    +0.000 C 
BRANCH  18  19
ATOM     19  O   UNL     1       4.896   2.211  19.535  0.00  0.00    +0.000 OA
ATOM     20  H   UNL     1       5.223   2.109  18.625  0.00  0.00    +0.000 HD
ENDBRANCH  18  19
ENDBRANCH   8  18
ENDBRANCH   4   7
BRANCH   1  25
ATOM     21  C   UNL     1       0.081  11.836  21.677  0.00  0.00    +0.000 A 
ATOM     22  C   UNL     1       0.398  12.856  20.784  0.00  0.00    +0.000 A 
ATOM     23  C   UNL     1       0.966  12.546  19.572  0.00  0.00    +0.000 A 
ATOM     24  C   UNL     1       1.248  11.189  19.245  0.00  0.00    +0.000 A 
ATOM     25  C   UNL     1       0.986  10.112  20.137  0.00  0.00    +0.000 A 
ATOM     26  C   UNL     1       0.372  10.462  21.346  0.00  0.00    +0.000 A 
BRANCH  21  28
ATOM     27  C   UNL     1      -1.833  11.920  23.114  0.00  0.00    +0.000 C 
ATOM     28  O   UNL     1      -0.504  12.310  22.822  0.00  0.00    +0.000 OA
ENDBRANCH  21  28
ENDBRANCH   1  25
TORSDOF 5
ENDMDL
MODEL 6
REMARK VINA RESULT:      -7.0      2.937      9.392
REMARK  Name = 
REMARK  6 active torsions:
REMARK  status: ('A' for Active; 'I' for Inactive)
REMARK    1  A    between atoms: C_1  and  O_2
REMARK    2  A    between atoms: O_2  and  C_3
REMARK    3  A    between atoms: C_7  and  N_8
REMARK    4  A    between atoms: N_11  and  C_12
REMARK    5  A    between atoms: C_13  and  C_14
REMARK    6  A    between atoms: C_14  and  O_15
REMARK                            x       y       z     vdW  Elec       q    Type
REMARK                         _______ _______ _______ _____ _____    ______ ____
ROOT
ATOM      1  N   UNL     1       1.082   8.750  20.883  0.00  0.00    +0.000 N 
ATOM      2  C   UNL     1      -0.060   8.660  21.825  0.00  0.00    +0.000 C 
ATOM      3  C   UNL     1      -0.323  10.004  22.659  0.00  0.00    +0.000 C 
ATOM      4  N   UNL     1      -0.294  11.337  21.928  0.00  0.00    +0.000 N 
ATOM      5  C   UNL     1       0.756  11.265  20.818  0.00  0.00    +0.000 C 
ATOM      6  C   UNL     1       0.857   9.934  20.001  0.00  0.00    +0.000 C 
ENDROOT
BRANCH   4   7
ATOM      7  C   UNL     1      -1.474  12.108  21.708  0.00  0.00    +0.000 A 
ATOM      8  C   UNL     1      -1.460  13.016  20.710  0.00  0.00    +0.000 A 
ATOM      9  C   UNL     1      -2.533  12.470  19.843  0.00  0.00    +0.000 A 
ATOM     10  O   UNL     1      -2.330  11.653  18.949  0.00  0.00    +0.000 OA
ATOM     11  O   UNL     1      -3.783  12.865  20.228  0.00  0.00    +0.000 OA
ATOM     12  C   UNL     1      -3.923  12.746  21.626  0.00  0.00    +0.000 A 
ATOM     13  C   UNL     1      -5.161  13.229  22.085  0.00  0.00    +0.000 A 
ATOM     14  C   UNL     1      -5.424  13.229  23.445  0.00  0.00    +0.000 A 
ATOM     15  C   UNL     1      -4.441  12.701  24.297  0.00  0.00    +0.000 A 
ATOM     16  C   UNL     1      -3.168  12.219  23.822  0.00  0.00    +0.000 A 
ATOM     17  C   UNL     1      -2.856  12.249  22.458  0.00  0.00    +0.000 A 
BRANCH   8  18
ATOM     18  C   UNL     1      -1.490  14.515  20.908  0.00  0.00    +0.000 C 
BRANCH  18  19
ATOM     19  O   UNL     1      -1.954  15.213  19.731  0.00  0.00    +0.000 OA
ATOM     20  H   UNL     1      -2.809  15.626  19.935  0.00  0.00    +0.000 HD
ENDBRANCH  18  19
ENDBRANCH   8  18
ENDBRANCH   4   7
BRANCH   1  25
ATOM     21  C   UNL     1       2.954   6.443  18.476  0.00  0.00    +0.000 A 
ATOM     22  C   UNL     1       2.752   5.209  19.085  0.00  0.00    +0.000 A 
ATOM     23  C   UNL     1       2.008   5.132  20.237  0.00  0.00    +0.000 A 
ATOM     24  C   UNL     1       1.466   6.317  20.813  0.00  0.00    +0.000 A 
ATOM     25  C   UNL     1       1.677   7.609  20.257  0.00  0.00    +0.000 A 
ATOM     26  C   UNL     1       2.409   7.643  19.063  0.00  0.00    +0.000 A 
BRANCH  21  28
ATOM     27  C   UNL     1       4.364   5.126  17.055  0.00  0.00    +0.000 C 
ATOM     28  O   UNL     1       3.690   6.342  17.323  0.00  0.00    +0.000 OA
ENDBRANCH  21  28
ENDBRANCH   1  25
TORSDOF 5
ENDMDL
MODEL 7
REMARK VINA RESULT:      -7.0      2.334      8.960
REMARK  Name = 
REMARK  6 active torsions:
REMARK  status: ('A' for Active; 'I' for Inactive)
REMARK    1  A    between atoms: C_1  and  O_2
REMARK    2  A    between atoms: O_2  and  C_3
REMARK    3  A    between atoms: C_7  and  N_8
REMARK    4  A    between atoms: N_11  and  C_12
REMARK    5  A    between atoms: C_13  and  C_14
REMARK    6  A    between atoms: C_14  and  O_15
REMARK                            x       y       z     vdW  Elec       q    Type
REMARK                         _______ _______ _______ _____ _____    ______ ____
ROOT
ATOM      1  N   UNL     1       1.818   8.029  20.069  0.00  0.00    +0.000 N 
ATOM      2  C   UNL     1       1.014   8.295  21.286  0.00  0.00    +0.000 C 
ATOM      3  C   UNL     1       1.038   9.827  21.760  0.00  0.00    +0.000 C 
ATOM      4  N   UNL     1       0.866  10.919  20.715  0.00  0.00    +0.000 N 
ATOM      5  C   UNL     1       1.528  10.462  19.414  0.00  0.00    +0.000 C 
ATOM      6  C   UNL     1       1.355   8.963  19.000  0.00  0.00    +0.000 C 
ENDROOT
BRANCH   4   7
ATOM      7  C   UNL     1      -0.312  11.720  20.642  0.00  0.00    +0.000 A 
ATOM      8  C   UNL     1      -0.374  12.667  19.682  0.00  0.00    +0.000 A 
ATOM      9  C   UNL     1      -1.540  12.177  18.904  0.00  0.00    +0.000 A 
ATOM     10  O   UNL     1      -1.442  11.392  17.964  0.00  0.00    +0.000 OA
ATOM     11  O   UNL     1      -2.736  12.579  19.424  0.00  0.00    +0.000 OA
ATOM     12  C   UNL     1      -2.743  12.406  20.825  0.00  0.00    +0.000 A 
ATOM     13  C   UNL     1      -3.918  12.894  21.421  0.00  0.00    +0.000 A 
ATOM     14  C   UNL     1      -4.048  12.845  22.799  0.00  0.00    +0.000 A 
ATOM     15  C   UNL     1      -3.000  12.264  23.529  0.00  0.00    +0.000 A 
ATOM     16  C   UNL     1      -1.789  11.778  22.914  0.00  0.00    +0.000 A 
ATOM     17  C   UNL     1      -1.611  11.857  21.528  0.00  0.00    +0.000 A 
BRANCH   8  18
ATOM     18  C   UNL     1      -0.352  14.157  19.939  0.00  0.00    +0.000 C 
BRANCH  18  19
ATOM     19  O   UNL     1      -0.867  14.913  18.821  0.00  0.00    +0.000 OA
ATOM     20  H   UNL     1      -0.805  14.362  18.022  0.00  0.00    +0.000 HD
ENDBRANCH  18  19
ENDBRANCH   8  18
ENDBRANCH   4   7
BRANCH   1  25
ATOM     21  C   UNL     1       2.586   4.284  19.951  0.00  0.00    +0.000 A 
ATOM     22  C   UNL     1       2.991   4.141  18.628  0.00  0.00    +0.000 A 
ATOM     23  C   UNL     1       3.032   5.241  17.806  0.00  0.00    +0.000 A 
ATOM     24  C   UNL     1       2.639   6.516  18.305  0.00  0.00    +0.000 A 
ATOM     25  C   UNL     1       2.176   6.713  19.636  0.00  0.00    +0.000 A 
ATOM     26  C   UNL     1       2.184   5.576  20.454  0.00  0.00    +0.000 A 
BRANCH  21  28
ATOM     27  C   UNL     1       1.540   2.763  21.478  0.00  0.00    +0.000 C 
ATOM     28  O   UNL     1       2.631   3.101  20.641  0.00  0.00    +0.000 OA
ENDBRANCH  21  28
ENDBRANCH   1  25
TORSDOF 5
ENDMDL
MODEL 8
REMARK VINA RESULT:      -7.0      3.010      9.553
REMARK  Name = 
REMARK  6 active torsions:
REMARK  status: ('A' for Active; 'I' for Inactive)
REMARK    1  A    between atoms: C_1  and  O_2
REMARK    2  A    between atoms: O_2  and  C_3
REMARK    3  A    between atoms: C_7  and  N_8
REMARK    4  A    between atoms: N_11  and  C_12
REMARK    5  A    between atoms: C_13  and  C_14
REMARK    6  A    between atoms: C_14  and  O_15
REMARK                            x       y       z     vdW  Elec       q    Type
REMARK                         _______ _______ _______ _____ _____    ______ ____
ROOT
ATOM      1  N   UNL     1       1.046   9.083  20.685  0.00  0.00    +0.000 N 
ATOM      2  C   UNL     1      -0.061   8.886  21.652  0.00  0.00    +0.000 C 
ATOM      3  C   UNL     1      -0.379  10.177  22.547  0.00  0.00    +0.000 C 
ATOM      4  N   UNL     1      -0.451  11.539  21.872  0.00  0.00    +0.000 N 
ATOM      5  C   UNL     1       0.568  11.574  20.732  0.00  0.00    +0.000 C 
ATOM      6  C   UNL     1       0.725  10.285  19.858  0.00  0.00    +0.000 C 
ENDROOT
BRANCH   4   7
ATOM      7  C   UNL     1      -1.681  12.244  21.716  0.00  0.00    +0.000 A 
ATOM      8  C   UNL     1      -1.769  13.148  20.717  0.00  0.00    +0.000 A 
ATOM      9  C   UNL     1      -2.857  12.543  19.910  0.00  0.00    +0.000 A 
ATOM     10  O   UNL     1      -2.658  11.735  19.007  0.00  0.00    +0.000 OA
ATOM     11  O   UNL     1      -4.103  12.872  20.361  0.00  0.00    +0.000 OA
ATOM     12  C   UNL     1      -4.162  12.750  21.766  0.00  0.00    +0.000 A 
ATOM     13  C   UNL     1      -5.396  13.168  22.291  0.00  0.00    +0.000 A 
ATOM     14  C   UNL     1      -5.585  13.159  23.663  0.00  0.00    +0.000 A 
ATOM     15  C   UNL     1      -4.532  12.687  24.460  0.00  0.00    +0.000 A 
ATOM     16  C   UNL     1      -3.262  12.272  23.918  0.00  0.00    +0.000 A 
ATOM     17  C   UNL     1      -3.026  12.314  22.539  0.00  0.00    +0.000 A 
BRANCH   8  18
ATOM     18  C   UNL     1      -1.869  14.644  20.916  0.00  0.00    +0.000 C 
BRANCH  18  19
ATOM     19  O   UNL     1      -1.735  15.371  19.675  0.00  0.00    +0.000 OA
ATOM     20  H   UNL     1      -1.633  14.729  18.952  0.00  0.00    +0.000 HD
ENDBRANCH  18  19
ENDBRANCH   8  18
ENDBRANCH   4   7
BRANCH   1  25
ATOM     21  C   UNL     1       2.634   5.719  19.801  0.00  0.00    +0.000 A 
ATOM     22  C   UNL     1       3.058   5.963  18.498  0.00  0.00    +0.000 A 
ATOM     23  C   UNL     1       2.849   7.198  17.935  0.00  0.00    +0.000 A 
ATOM     24  C   UNL     1       2.181   8.214  18.677  0.00  0.00    +0.000 A 
ATOM     25  C   UNL     1       1.689   8.006  19.996  0.00  0.00    +0.000 A 
ATOM     26  C   UNL     1       1.954   6.747  20.550  0.00  0.00    +0.000 A 
BRANCH  21  28
ATOM     27  C   UNL     1       2.077   3.810  21.138  0.00  0.00    +0.000 C 
ATOM     28  O   UNL     1       2.945   4.452  20.222  0.00  0.00    +0.000 OA
ENDBRANCH  21  28
ENDBRANCH   1  25
TORSDOF 5
ENDMDL
MODEL 9
REMARK VINA RESULT:      -6.9      2.869      8.796
REMARK  Name = 
REMARK  6 active torsions:
REMARK  status: ('A' for Active; 'I' for Inactive)
REMARK    1  A    between atoms: C_1  and  O_2
REMARK    2  A    between atoms: O_2  and  C_3
REMARK    3  A    between atoms: C_7  and  N_8
REMARK    4  A    between atoms: N_11  and  C_12
REMARK    5  A    between atoms: C_13  and  C_14
REMARK    6  A    between atoms: C_14  and  O_15
REMARK                            x       y       z     vdW  Elec       q    Type
REMARK                         _______ _______ _______ _____ _____    ______ ____
ROOT
ATOM      1  N   UNL     1       2.087   7.460  18.859  0.00  0.00    +0.000 N 
ATOM      2  C   UNL     1       2.174   8.552  17.859  0.00  0.00    +0.000 C 
ATOM      3  C   UNL     1       0.923   9.554  17.879  0.00  0.00    +0.000 C 
ATOM      4  N   UNL     1       0.405  10.053  19.219  0.00  0.00    +0.000 N 
ATOM      5  C   UNL     1       0.566   8.937  20.253  0.00  0.00    +0.000 C 
ATOM      6  C   UNL     1       1.877   8.083  20.200  0.00  0.00    +0.000 C 
ENDROOT
BRANCH   4   7
ATOM      7  C   UNL     1       0.568  11.407  19.639  0.00  0.00    +0.000 A 
ATOM      8  C   UNL     1      -0.482  12.015  20.231  0.00  0.00    +0.000 A 
ATOM      9  C   UNL     1       0.098  12.298  21.568  0.00  0.00    +0.000 A 
ATOM     10  O   UNL     1       0.030  11.515  22.512  0.00  0.00    +0.000 OA
ATOM     11  O   UNL     1       0.827  13.452  21.601  0.00  0.00    +0.000 OA
ATOM     12  C   UNL     1       1.671  13.528  20.473  0.00  0.00    +0.000 A 
ATOM     13  C   UNL     1       2.375  14.743  20.410  0.00  0.00    +0.000 A 
ATOM     14  C   UNL     1       3.204  14.988  19.327  0.00  0.00    +0.000 A 
ATOM     15  C   UNL     1       3.328  13.977  18.362  0.00  0.00    +0.000 A 
ATOM     16  C   UNL     1       2.592  12.739  18.424  0.00  0.00    +0.000 A 
ATOM     17  C   UNL     1       1.712  12.482  19.482  0.00  0.00    +0.000 A 
BRANCH   8  18
ATOM     18  C   UNL     1      -1.278  13.147  19.621  0.00  0.00    +0.000 C 
BRANCH  18  19
ATOM     19  O   UNL     1      -1.417  13.008  18.189  0.00  0.00    +0.000 OA
ATOM     20  H   UNL     1      -1.971  13.737  17.862  0.00  0.00    +0.000 HD
ENDBRANCH  18  19
ENDBRANCH   8  18
ENDBRANCH   4   7
BRANCH   1  25
ATOM     21  C   UNL     1       3.675   4.061  19.599  0.00  0.00    +0.000 A 
ATOM     22  C   UNL     1       4.745   4.073  18.709  0.00  0.00    +0.000 A 
ATOM     23  C   UNL     1       4.952   5.169  17.908  0.00  0.00    +0.000 A 
ATOM     24  C   UNL     1       4.059   6.277  17.974  0.00  0.00    +0.000 A 
ATOM     25  C   UNL     1       2.925   6.301  18.834  0.00  0.00    +0.000 A 
ATOM     26  C   UNL     1       2.769   5.183  19.662  0.00  0.00    +0.000 A 
BRANCH  21  28
ATOM     27  C   UNL     1       2.589   2.761  21.293  0.00  0.00    +0.000 C 
ATOM     28  O   UNL     1       3.628   2.911  20.343  0.00  0.00    +0.000 OA
ENDBRANCH  21  28
ENDBRANCH   1  25
TORSDOF 5
ENDMDL
