MODEL 1
REMARK VINA RESULT:      -6.6      0.000      0.000
REMARK  Name = 
REMARK  17 active torsions:
REMARK  status: ('A' for Active; 'I' for Inactive)
REMARK    1  A    between atoms: C_1  and  C_2
REMARK    2  A    between atoms: C_2  and  C_3
REMARK    3  A    between atoms: C_3  and  C_4
REMARK    4  A    between atoms: C_4  and  C_5
REMARK    5  A    between atoms: C_5  and  C_6
REMARK    6  A    between atoms: C_6  and  C_7
REMARK    7  A    between atoms: C_7  and  C_8
REMARK    8  A    between atoms: C_8  and  C_9
REMARK    9  A    between atoms: C_9  and  C_10
REMARK   10  A    between atoms: C_10  and  C_11
REMARK   11  A    between atoms: C_11  and  C_12
REMARK   12  A    between atoms: C_12  and  C_13
REMARK   13  A    between atoms: C_13  and  C_14
REMARK   14  A    between atoms: C_14  and  O_16
REMARK   15  A    between atoms: O_16  and  C_17
REMARK   16  A    between atoms: C_29  and  C_30
REMARK   17  A    between atoms: C_30  and  O_31
REMARK                            x       y       z     vdW  Elec       q    Type
REMARK                         _______ _______ _______ _____ _____    ______ ____
ROOT
ATOM      1  C   UNL     1       6.918   6.151  17.304  0.00  0.00    +0.000 C 
ATOM      2  C   UNL     1       5.713   6.010  18.210  0.00  0.00    +0.000 C 
ATOM      3  O   UNL     1       5.637   4.714  18.859  0.00  0.00    +0.000 OA
ATOM      4  C   UNL     1       4.324   4.348  18.815  0.00  0.00    +0.000 A 
ATOM      5  N   UNL     1       3.833   3.445  19.590  0.00  0.00    +0.000 NA
ATOM      6  C   UNL     1       2.481   3.236  19.463  0.00  0.00    +0.000 A 
ATOM      7  N   UNL     1       1.975   2.321  20.210  0.00  0.00    +0.000 NA
ATOM      8  C   UNL     1       1.658   4.060  18.541  0.00  0.00    +0.000 A 
ATOM      9  C   UNL     1       2.295   4.944  17.766  0.00  0.00    +0.000 A 
ATOM     10  N   UNL     1       3.652   5.075  17.872  0.00  0.00    +0.000 N 
ATOM     11  C   UNL     1       4.524   6.033  17.253  0.00  0.00    +0.000 C 
ATOM     12  O   UNL     1       4.980   5.598  15.961  0.00  0.00    +0.000 OA
ATOM     13  C   UNL     1       6.428   5.534  15.988  0.00  0.00    +0.000 C 
ATOM     14  H   UNL     1       2.779   1.952  20.731  0.00  0.00    +0.000 HD
ENDROOT
BRANCH  13  15
ATOM     15  C   UNL     1       6.880   4.078  15.819  0.00  0.00    +0.000 C 
BRANCH  15  16
ATOM     16  O   UNL     1       6.226   3.485  14.698  0.00  0.00    +0.000 OA
ATOM     17  H   UNL     1       6.021   2.571  14.979  0.00  0.00    +0.000 HD
ENDBRANCH  15  16
ENDBRANCH  13  15
BRANCH   1  18
ATOM     18  O   UNL     1       7.235   7.542  17.043  0.00  0.00    +0.000 OA
BRANCH  18  19
ATOM     19  C   UNL     1       7.992   8.134  18.006  0.00  0.00    +0.000 C 
ATOM     20  O   UNL     1       8.635   7.539  18.858  0.00  0.00    +0.000 OA
BRANCH  19  21
ATOM     21  C   UNL     1       7.992   9.623  17.847  0.00  0.00    +0.000 C 
BRANCH  21  22
ATOM     22  C   UNL     1       9.087  10.204  18.733  0.00  0.00    +0.000 C 
BRANCH  22  23
ATOM     23  C   UNL     1      10.033  11.139  17.988  0.00  0.00    +0.000 C 
BRANCH  23  24
ATOM     24  C   UNL     1      11.365  11.314  18.713  0.00  0.00    +0.000 C 
BRANCH  24  25
ATOM     25  C   UNL     1      11.758  12.783  18.780  0.00  0.00    +0.000 C 
BRANCH  25  26
ATOM     26  C   UNL     1      11.857  13.371  17.379  0.00  0.00    +0.000 C 
BRANCH  26  27
ATOM     27  C   UNL     1      11.269  14.771  17.341  0.00  0.00    +0.000 C 
BRANCH  27  28
ATOM     28  C   UNL     1       9.804  14.753  17.760  0.00  0.00    +0.000 C 
BRANCH  28  29
ATOM     29  C   UNL     1       9.531  15.859  18.772  0.00  0.00    +0.000 C 
BRANCH  29  30
ATOM     30  C   UNL     1       9.364  15.283  20.174  0.00  0.00    +0.000 C 
BRANCH  30  31
ATOM     31  C   UNL     1       8.501  14.026  20.137  0.00  0.00    +0.000 C 
BRANCH  31  33
ATOM     32  C   UNL     1       9.591  12.417  21.722  0.00  0.00    +0.000 C 
ATOM     33  C   UNL     1       8.428  13.370  21.512  0.00  0.00    +0.000 C 
ENDBRANCH  31  33
ENDBRANCH  30  31
ENDBRANCH  29  30
ENDBRANCH  28  29
ENDBRANCH  27  28
ENDBRANCH  26  27
ENDBRANCH  25  26
ENDBRANCH  24  25
ENDBRANCH  23  24
ENDBRANCH  22  23
ENDBRANCH  21  22
ENDBRANCH  19  21
ENDBRANCH  18  19
ENDBRANCH   1  18
TORSDOF 16
ENDMDL
MODEL 2
REMARK VINA RESULT:      -6.3      1.116      1.753
REMARK  Name = 
REMARK  17 active torsions:
REMARK  status: ('A' for Active; 'I' for Inactive)
REMARK    1  A    between atoms: C_1  and  C_2
REMARK    2  A    between atoms: C_2  and  C_3
REMARK    3  A    between atoms: C_3  and  C_4
REMARK    4  A    between atoms: C_4  and  C_5
REMARK    5  A    between atoms: C_5  and  C_6
REMARK    6  A    between atoms: C_6  and  C_7
REMARK    7  A    between atoms: C_7  and  C_8
REMARK    8  A    between atoms: C_8  and  C_9
REMARK    9  A    between atoms: C_9  and  C_10
REMARK   10  A    between atoms: C_10  and  C_11
REMARK   11  A    between atoms: C_11  and  C_12
REMARK   12  A    between atoms: C_12  and  C_13
REMARK   13  A    between atoms: C_13  and  C_14
REMARK   14  A    between atoms: C_14  and  O_16
REMARK   15  A    between atoms: O_16  and  C_17
REMARK   16  A    between atoms: C_29  and  C_30
REMARK   17  A    between atoms: C_30  and  O_31
REMARK                            x       y       z     vdW  Elec       q    Type
REMARK                         _______ _______ _______ _____ _____    ______ ____
ROOT
ATOM      1  C   UNL     1       6.860   5.643  17.072  0.00  0.00    +0.000 C 
ATOM      2  C   UNL     1       5.936   5.646  18.272  0.00  0.00    +0.000 C 
ATOM      3  O   UNL     1       5.778   4.333  18.872  0.00  0.00    +0.000 OA
ATOM      4  C   UNL     1       4.455   4.219  19.182  0.00  0.00    +0.000 A 
ATOM      5  N   UNL     1       4.016   3.357  20.031  0.00  0.00    +0.000 NA
ATOM      6  C   UNL     1       2.666   3.410  20.278  0.00  0.00    +0.000 A 
ATOM      7  N   UNL     1       2.204   2.541  21.104  0.00  0.00    +0.000 NA
ATOM      8  C   UNL     1       1.809   4.449  19.650  0.00  0.00    +0.000 A 
ATOM      9  C   UNL     1       2.382   5.266  18.758  0.00  0.00    +0.000 A 
ATOM     10  N   UNL     1       3.715   5.137  18.488  0.00  0.00    +0.000 N 
ATOM     11  C   UNL     1       4.565   5.970  17.685  0.00  0.00    +0.000 C 
ATOM     12  O   UNL     1       4.566   5.573  16.303  0.00  0.00    +0.000 OA
ATOM     13  C   UNL     1       5.925   5.244  15.925  0.00  0.00    +0.000 C 
ATOM     14  H   UNL     1       3.028   1.988  21.368  0.00  0.00    +0.000 HD
ENDROOT
BRANCH  13  15
ATOM     15  C   UNL     1       6.016   3.751  15.586  0.00  0.00    +0.000 C 
BRANCH  15  16
ATOM     16  O   UNL     1       6.391   3.575  14.220  0.00  0.00    +0.000 OA
ATOM     17  H   UNL     1       6.593   4.475  13.896  0.00  0.00    +0.000 HD
ENDBRANCH  15  16
ENDBRANCH  13  15
BRANCH   1  18
ATOM     18  O   UNL     1       7.368   6.971  16.782  0.00  0.00    +0.000 OA
BRANCH  18  19
ATOM     19  C   UNL     1       7.898   7.615  17.856  0.00  0.00    +0.000 C 
ATOM     20  O   UNL     1       8.386   7.066  18.833  0.00  0.00    +0.000 OA
BRANCH  19  21
ATOM     21  C   UNL     1       7.870   9.099  17.659  0.00  0.00    +0.000 C 
BRANCH  21  22
ATOM     22  C   UNL     1       8.791   9.742  18.687  0.00  0.00    +0.000 C 
BRANCH  22  23
ATOM     23  C   UNL     1       9.658  10.853  18.108  0.00  0.00    +0.000 C 
BRANCH  23  24
ATOM     24  C   UNL     1       8.872  12.141  17.876  0.00  0.00    +0.000 C 
BRANCH  24  25
ATOM     25  C   UNL     1       9.788  13.356  17.937  0.00  0.00    +0.000 C 
BRANCH  25  26
ATOM     26  C   UNL     1      11.160  12.960  18.468  0.00  0.00    +0.000 C 
BRANCH  26  27
ATOM     27  C   UNL     1      11.457  13.679  19.773  0.00  0.00    +0.000 C 
BRANCH  27  28
ATOM     28  C   UNL     1      10.532  13.191  20.881  0.00  0.00    +0.000 C 
BRANCH  28  29
ATOM     29  C   UNL     1       9.882  14.376  21.586  0.00  0.00    +0.000 C 
BRANCH  29  30
ATOM     30  C   UNL     1       8.381  14.410  21.320  0.00  0.00    +0.000 C 
BRANCH  30  31
ATOM     31  C   UNL     1       8.029  15.562  20.385  0.00  0.00    +0.000 C 
BRANCH  31  33
ATOM     32  C   UNL     1       5.571  15.109  20.175  0.00  0.00    +0.000 C 
ATOM     33  C   UNL     1       6.897  15.175  19.439  0.00  0.00    +0.000 C 
ENDBRANCH  31  33
ENDBRANCH  30  31
ENDBRANCH  29  30
ENDBRANCH  28  29
ENDBRANCH  27  28
ENDBRANCH  26  27
ENDBRANCH  25  26
ENDBRANCH  24  25
ENDBRANCH  23  24
ENDBRANCH  22  23
ENDBRANCH  21  22
ENDBRANCH  19  21
ENDBRANCH  18  19
ENDBRANCH   1  18
TORSDOF 16
ENDMDL
MODEL 3
REMARK VINA RESULT:      -6.3      5.967      8.432
REMARK  Name = 
REMARK  17 active torsions:
REMARK  status: ('A' for Active; 'I' for Inactive)
REMARK    1  A    between atoms: C_1  and  C_2
REMARK    2  A    between atoms: C_2  and  C_3
REMARK    3  A    between atoms: C_3  and  C_4
REMARK    4  A    between atoms: C_4  and  C_5
REMARK    5  A    between atoms: C_5  and  C_6
REMARK    6  A    between atoms: C_6  and  C_7
REMARK    7  A    between atoms: C_7  and  C_8
REMARK    8  A    between atoms: C_8  and  C_9
REMARK    9  A    between atoms: C_9  and  C_10
REMARK   10  A    between atoms: C_10  and  C_11
REMARK   11  A    between atoms: C_11  and  C_12
REMARK   12  A    between atoms: C_12  and  C_13
REMARK   13  A    between atoms: C_13  and  C_14
REMARK   14  A    between atoms: C_14  and  O_16
REMARK   15  A    between atoms: O_16  and  C_17
REMARK   16  A    between atoms: C_29  and  C_30
REMARK   17  A    between atoms: C_30  and  O_31
REMARK                            x       y       z     vdW  Elec       q    Type
REMARK                         _______ _______ _______ _____ _____    ______ ____
ROOT
ATOM      1  C   UNL     1       2.181   6.184  19.077  0.00  0.00    +0.000 C 
ATOM      2  C   UNL     1       3.592   6.500  18.626  0.00  0.00    +0.000 C 
ATOM      3  O   UNL     1       3.770   6.384  17.190  0.00  0.00    +0.000 OA
ATOM      4  C   UNL     1       4.979   5.777  17.009  0.00  0.00    +0.000 A 
ATOM      5  N   UNL     1       5.618   5.830  15.893  0.00  0.00    +0.000 NA
ATOM      6  C   UNL     1       6.848   5.220  15.892  0.00  0.00    +0.000 A 
ATOM      7  N   UNL     1       7.492   5.240  14.780  0.00  0.00    +0.000 NA
ATOM      8  C   UNL     1       7.408   4.613  17.127  0.00  0.00    +0.000 A 
ATOM      9  C   UNL     1       6.628   4.594  18.214  0.00  0.00    +0.000 A 
ATOM     10  N   UNL     1       5.381   5.151  18.157  0.00  0.00    +0.000 N 
ATOM     11  C   UNL     1       4.432   5.367  19.212  0.00  0.00    +0.000 C 
ATOM     12  O   UNL     1       3.574   4.231  19.412  0.00  0.00    +0.000 OA
ATOM     13  C   UNL     1       2.203   4.657  19.214  0.00  0.00    +0.000 C 
ATOM     14  H   UNL     1       6.861   5.731  14.137  0.00  0.00    +0.000 HD
ENDROOT
BRANCH  13  15
ATOM     15  C   UNL     1       1.618   3.950  17.985  0.00  0.00    +0.000 C 
BRANCH  15  16
ATOM     16  O   UNL     1       2.660   3.338  17.224  0.00  0.00    +0.000 OA
ATOM     17  H   UNL     1       3.113   4.078  16.774  0.00  0.00    +0.000 HD
ENDBRANCH  15  16
ENDBRANCH  13  15
BRANCH   1  18
ATOM     18  O   UNL     1       1.900   6.737  20.388  0.00  0.00    +0.000 OA
BRANCH  18  19
ATOM     19  C   UNL     1       1.672   8.078  20.393  0.00  0.00    +0.000 C 
ATOM     20  O   UNL     1       1.454   8.756  19.399  0.00  0.00    +0.000 OA
BRANCH  19  21
ATOM     21  C   UNL     1       1.656   8.614  21.791  0.00  0.00    +0.000 C 
BRANCH  21  22
ATOM     22  C   UNL     1       0.728   9.821  21.835  0.00  0.00    +0.000 C 
BRANCH  22  23
ATOM     23  C   UNL     1      -0.616   9.525  22.491  0.00  0.00    +0.000 C 
BRANCH  23  24
ATOM     24  C   UNL     1      -1.193  10.743  23.208  0.00  0.00    +0.000 C 
BRANCH  24  25
ATOM     25  C   UNL     1      -1.575  11.829  22.212  0.00  0.00    +0.000 C 
BRANCH  25  26
ATOM     26  C   UNL     1      -0.829  13.120  22.522  0.00  0.00    +0.000 C 
BRANCH  26  27
ATOM     27  C   UNL     1       0.213  13.407  21.454  0.00  0.00    +0.000 C 
BRANCH  27  28
ATOM     28  C   UNL     1      -0.451  13.877  20.165  0.00  0.00    +0.000 C 
BRANCH  28  29
ATOM     29  C   UNL     1      -0.066  12.961  19.009  0.00  0.00    +0.000 C 
BRANCH  29  30
ATOM     30  C   UNL     1      -1.297  12.272  18.429  0.00  0.00    +0.000 C 
BRANCH  30  31
ATOM     31  C   UNL     1      -1.210  10.763  18.630  0.00  0.00    +0.000 C 
BRANCH  31  33
ATOM     32  C   UNL     1      -3.203   9.742  17.501  0.00  0.00    +0.000 C 
ATOM     33  C   UNL     1      -1.713  10.016  17.400  0.00  0.00    +0.000 C 
ENDBRANCH  31  33
ENDBRANCH  30  31
ENDBRANCH  29  30
ENDBRANCH  28  29
ENDBRANCH  27  28
ENDBRANCH  26  27
ENDBRANCH  25  26
ENDBRANCH  24  25
ENDBRANCH  23  24
ENDBRANCH  22  23
ENDBRANCH  21  22
ENDBRANCH  19  21
ENDBRANCH  18  19
ENDBRANCH   1  18
TORSDOF 16
ENDMDL
MODEL 4
REMARK VINA RESULT:      -6.3      6.052      9.079
REMARK  Name = 
REMARK  17 active torsions:
REMARK  status: ('A' for Active; 'I' for Inactive)
REMARK    1  A    between atoms: C_1  and  C_2
REMARK    2  A    between atoms: C_2  and  C_3
REMARK    3  A    between atoms: C_3  and  C_4
REMARK    4  A    between atoms: C_4  and  C_5
REMARK    5  A    between atoms: C_5  and  C_6
REMARK    6  A    between atoms: C_6  and  C_7
REMARK    7  A    between atoms: C_7  and  C_8
REMARK    8  A    between atoms: C_8  and  C_9
REMARK    9  A    between atoms: C_9  and  C_10
REMARK   10  A    between atoms: C_10  and  C_11
REMARK   11  A    between atoms: C_11  and  C_12
REMARK   12  A    between atoms: C_12  and  C_13
REMARK   13  A    between atoms: C_13  and  C_14
REMARK   14  A    between atoms: C_14  and  O_16
REMARK   15  A    between atoms: O_16  and  C_17
REMARK   16  A    between atoms: C_29  and  C_30
REMARK   17  A    between atoms: C_30  and  O_31
REMARK                            x       y       z     vdW  Elec       q    Type
REMARK                         _______ _______ _______ _____ _____    ______ ____
ROOT
ATOM      1  C   UNL     1       2.196   6.444  19.120  0.00  0.00    +0.000 C 
ATOM      2  C   UNL     1       3.614   6.693  18.651  0.00  0.00    +0.000 C 
ATOM      3  O   UNL     1       3.777   6.531  17.218  0.00  0.00    +0.000 OA
ATOM      4  C   UNL     1       4.960   5.874  17.046  0.00  0.00    +0.000 A 
ATOM      5  N   UNL     1       5.592   5.872  15.925  0.00  0.00    +0.000 NA
ATOM      6  C   UNL     1       6.799   5.215  15.933  0.00  0.00    +0.000 A 
ATOM      7  N   UNL     1       7.435   5.180  14.817  0.00  0.00    +0.000 NA
ATOM      8  C   UNL     1       7.344   4.622  17.181  0.00  0.00    +0.000 A 
ATOM      9  C   UNL     1       6.573   4.663  18.274  0.00  0.00    +0.000 A 
ATOM     10  N   UNL     1       5.347   5.265  18.209  0.00  0.00    +0.000 N 
ATOM     11  C   UNL     1       4.415   5.547  19.263  0.00  0.00    +0.000 C 
ATOM     12  O   UNL     1       3.516   4.450  19.500  0.00  0.00    +0.000 OA
ATOM     13  C   UNL     1       2.160   4.922  19.300  0.00  0.00    +0.000 C 
ATOM     14  H   UNL     1       6.817   5.677  14.164  0.00  0.00    +0.000 HD
ENDROOT
BRANCH  13  15
ATOM     15  C   UNL     1       1.540   4.203  18.095  0.00  0.00    +0.000 C 
BRANCH  15  16
ATOM     16  O   UNL     1       2.553   3.531  17.346  0.00  0.00    +0.000 OA
ATOM     17  H   UNL     1       3.354   4.082  17.451  0.00  0.00    +0.000 HD
ENDBRANCH  15  16
ENDBRANCH  13  15
BRANCH   1  18
ATOM     18  O   UNL     1       1.945   7.044  20.417  0.00  0.00    +0.000 OA
BRANCH  18  19
ATOM     19  C   UNL     1       1.311   8.246  20.365  0.00  0.00    +0.000 C 
ATOM     20  O   UNL     1       1.573   9.144  19.578  0.00  0.00    +0.000 OA
BRANCH  19  21
ATOM     21  C   UNL     1       0.192   8.304  21.358  0.00  0.00    +0.000 C 
BRANCH  21  22
ATOM     22  C   UNL     1       0.400   9.521  22.250  0.00  0.00    +0.000 C 
BRANCH  22  23
ATOM     23  C   UNL     1      -0.647  10.610  22.038  0.00  0.00    +0.000 C 
BRANCH  23  24
ATOM     24  C   UNL     1      -0.018  11.975  21.775  0.00  0.00    +0.000 C 
BRANCH  24  25
ATOM     25  C   UNL     1      -0.077  12.324  20.294  0.00  0.00    +0.000 C 
BRANCH  25  26
ATOM     26  C   UNL     1      -1.461  12.026  19.733  0.00  0.00    +0.000 C 
BRANCH  26  27
ATOM     27  C   UNL     1      -1.391  11.777  18.236  0.00  0.00    +0.000 C 
BRANCH  27  28
ATOM     28  C   UNL     1      -1.254  10.289  17.941  0.00  0.00    +0.000 C 
BRANCH  28  29
ATOM     29  C   UNL     1      -2.425   9.808  17.092  0.00  0.00    +0.000 C 
BRANCH  29  30
ATOM     30  C   UNL     1      -2.710  10.787  15.957  0.00  0.00    +0.000 C 
BRANCH  30  31
ATOM     31  C   UNL     1      -4.200  11.100  15.882  0.00  0.00    +0.000 C 
BRANCH  31  33
ATOM     32  C   UNL     1      -5.836  12.406  17.264  0.00  0.00    +0.000 C 
ATOM     33  C   UNL     1      -4.788  11.308  17.274  0.00  0.00    +0.000 C 
ENDBRANCH  31  33
ENDBRANCH  30  31
ENDBRANCH  29  30
ENDBRANCH  28  29
ENDBRANCH  27  28
ENDBRANCH  26  27
ENDBRANCH  25  26
ENDBRANCH  24  25
ENDBRANCH  23  24
ENDBRANCH  22  23
ENDBRANCH  21  22
ENDBRANCH  19  21
ENDBRANCH  18  19
ENDBRANCH   1  18
TORSDOF 16
ENDMDL
MODEL 5
REMARK VINA RESULT:      -6.3      1.139      2.084
REMARK  Name = 
REMARK  17 active torsions:
REMARK  status: ('A' for Active; 'I' for Inactive)
REMARK    1  A    between atoms: C_1  and  C_2
REMARK    2  A    between atoms: C_2  and  C_3
REMARK    3  A    between atoms: C_3  and  C_4
REMARK    4  A    between atoms: C_4  and  C_5
REMARK    5  A    between atoms: C_5  and  C_6
REMARK    6  A    between atoms: C_6  and  C_7
REMARK    7  A    between atoms: C_7  and  C_8
REMARK    8  A    between atoms: C_8  and  C_9
REMARK    9  A    between atoms: C_9  and  C_10
REMARK   10  A    between atoms: C_10  and  C_11
REMARK   11  A    between atoms: C_11  and  C_12
REMARK   12  A    between atoms: C_12  and  C_13
REMARK   13  A    between atoms: C_13  and  C_14
REMARK   14  A    between atoms: C_14  and  O_16
REMARK   15  A    between atoms: O_16  and  C_17
REMARK   16  A    between atoms: C_29  and  C_30
REMARK   17  A    between atoms: C_30  and  O_31
REMARK                            x       y       z     vdW  Elec       q    Type
REMARK                         _______ _______ _______ _____ _____    ______ ____
ROOT
ATOM      1  C   UNL     1       6.656   6.370  17.343  0.00  0.00    +0.000 C 
ATOM      2  C   UNL     1       5.534   5.840  18.211  0.00  0.00    +0.000 C 
ATOM      3  O   UNL     1       5.605   4.405  18.422  0.00  0.00    +0.000 OA
ATOM      4  C   UNL     1       4.324   3.947  18.323  0.00  0.00    +0.000 A 
ATOM      5  N   UNL     1       3.961   2.806  18.795  0.00  0.00    +0.000 NA
ATOM      6  C   UNL     1       2.624   2.518  18.668  0.00  0.00    +0.000 A 
ATOM      7  N   UNL     1       2.244   1.373  19.110  0.00  0.00    +0.000 NA
ATOM      8  C   UNL     1       1.675   3.504  18.090  0.00  0.00    +0.000 A 
ATOM      9  C   UNL     1       2.185   4.642  17.605  0.00  0.00    +0.000 A 
ATOM     10  N   UNL     1       3.532   4.863  17.687  0.00  0.00    +0.000 N 
ATOM     11  C   UNL     1       4.281   6.044  17.364  0.00  0.00    +0.000 C 
ATOM     12  O   UNL     1       4.676   6.076  15.982  0.00  0.00    +0.000 OA
ATOM     13  C   UNL     1       6.122   6.146  15.924  0.00  0.00    +0.000 C 
ATOM     14  H   UNL     1       3.110   0.940  19.453  0.00  0.00    +0.000 HD
ENDROOT
BRANCH  13  15
ATOM     15  C   UNL     1       6.672   4.865  15.285  0.00  0.00    +0.000 C 
BRANCH  15  16
ATOM     16  O   UNL     1       7.688   5.183  14.334  0.00  0.00    +0.000 OA
ATOM     17  H   UNL     1       7.377   6.000  13.896  0.00  0.00    +0.000 HD
ENDBRANCH  15  16
ENDBRANCH  13  15
BRANCH   1  18
ATOM     18  O   UNL     1       6.844   7.797  17.521  0.00  0.00    +0.000 OA
BRANCH  18  19
ATOM     19  C   UNL     1       7.982   8.133  18.187  0.00  0.00    +0.000 C 
ATOM     20  O   UNL     1       8.633   7.375  18.891  0.00  0.00    +0.000 OA
BRANCH  19  21
ATOM     21  C   UNL     1       8.378   9.546  17.891  0.00  0.00    +0.000 C 
BRANCH  21  22
ATOM     22  C   UNL     1       9.216  10.067  19.051  0.00  0.00    +0.000 C 
BRANCH  22  23
ATOM     23  C   UNL     1       9.924  11.381  18.740  0.00  0.00    +0.000 C 
BRANCH  23  24
ATOM     24  C   UNL     1      11.214  11.547  19.539  0.00  0.00    +0.000 C 
BRANCH  24  25
ATOM     25  C   UNL     1      11.272  12.917  20.201  0.00  0.00    +0.000 C 
BRANCH  25  26
ATOM     26  C   UNL     1      10.041  13.139  21.070  0.00  0.00    +0.000 C 
BRANCH  26  27
ATOM     27  C   UNL     1      10.106  14.493  21.756  0.00  0.00    +0.000 C 
BRANCH  27  28
ATOM     28  C   UNL     1       8.723  15.131  21.823  0.00  0.00    +0.000 C 
BRANCH  28  29
ATOM     29  C   UNL     1       7.717  14.293  21.043  0.00  0.00    +0.000 C 
BRANCH  29  30
ATOM     30  C   UNL     1       7.266  15.022  19.782  0.00  0.00    +0.000 C 
BRANCH  30  31
ATOM     31  C   UNL     1       7.780  14.307  18.537  0.00  0.00    +0.000 C 
BRANCH  31  33
ATOM     32  C   UNL     1       9.087  16.446  18.473  0.00  0.00    +0.000 C 
ATOM     33  C   UNL     1       8.995  15.022  17.955  0.00  0.00    +0.000 C 
ENDBRANCH  31  33
ENDBRANCH  30  31
ENDBRANCH  29  30
ENDBRANCH  28  29
ENDBRANCH  27  28
ENDBRANCH  26  27
ENDBRANCH  25  26
ENDBRANCH  24  25
ENDBRANCH  23  24
ENDBRANCH  22  23
ENDBRANCH  21  22
ENDBRANCH  19  21
ENDBRANCH  18  19
ENDBRANCH   1  18
TORSDOF 16
ENDMDL
MODEL 6
REMARK VINA RESULT:      -6.2      1.212      1.956
REMARK  Name = 
REMARK  17 active torsions:
REMARK  status: ('A' for Active; 'I' for Inactive)
REMARK    1  A    between atoms: C_1  and  C_2
REMARK    2  A    between atoms: C_2  and  C_3
REMARK    3  A    between atoms: C_3  and  C_4
REMARK    4  A    between atoms: C_4  and  C_5
REMARK    5  A    between atoms: C_5  and  C_6
REMARK    6  A    between atoms: C_6  and  C_7
REMARK    7  A    between atoms: C_7  and  C_8
REMARK    8  A    between atoms: C_8  and  C_9
REMARK    9  A    between atoms: C_9  and  C_10
REMARK   10  A    between atoms: C_10  and  C_11
REMARK   11  A    between atoms: C_11  and  C_12
REMARK   12  A    between atoms: C_12  and  C_13
REMARK   13  A    between atoms: C_13  and  C_14
REMARK   14  A    between atoms: C_14  and  O_16
REMARK   15  A    between atoms: O_16  and  C_17
REMARK   16  A    between atoms: C_29  and  C_30
REMARK   17  A    between atoms: C_30  and  O_31
REMARK                            x       y       z     vdW  Elec       q    Type
REMARK                         _______ _______ _______ _____ _____    ______ ____
ROOT
ATOM      1  C   UNL     1       6.657   5.780  16.865  0.00  0.00    +0.000 C 
ATOM      2  C   UNL     1       5.853   5.657  18.143  0.00  0.00    +0.000 C 
ATOM      3  O   UNL     1       5.615   4.280  18.536  0.00  0.00    +0.000 OA
ATOM      4  C   UNL     1       4.322   4.229  18.965  0.00  0.00    +0.000 A 
ATOM      5  N   UNL     1       3.877   3.275  19.705  0.00  0.00    +0.000 NA
ATOM      6  C   UNL     1       2.568   3.402  20.102  0.00  0.00    +0.000 A 
ATOM      7  N   UNL     1       2.096   2.448  20.822  0.00  0.00    +0.000 NA
ATOM      8  C   UNL     1       1.768   4.603  19.746  0.00  0.00    +0.000 A 
ATOM      9  C   UNL     1       2.338   5.508  18.942  0.00  0.00    +0.000 A 
ATOM     10  N   UNL     1       3.620   5.312  18.511  0.00  0.00    +0.000 N 
ATOM     11  C   UNL     1       4.474   6.194  17.766  0.00  0.00    +0.000 C 
ATOM     12  O   UNL     1       4.306   6.041  16.347  0.00  0.00    +0.000 OA
ATOM     13  C   UNL     1       5.584   5.665  15.776  0.00  0.00    +0.000 C 
ATOM     14  H   UNL     1       2.879   1.788  20.902  0.00  0.00    +0.000 HD
ENDROOT
BRANCH  13  15
ATOM     15  C   UNL     1       5.489   4.250  15.193  0.00  0.00    +0.000 C 
BRANCH  15  16
ATOM     16  O   UNL     1       6.301   3.349  15.947  0.00  0.00    +0.000 OA
ATOM     17  H   UNL     1       7.118   3.244  15.420  0.00  0.00    +0.000 HD
ENDBRANCH  15  16
ENDBRANCH  13  15
BRANCH   1  18
ATOM     18  O   UNL     1       7.270   7.088  16.740  0.00  0.00    +0.000 OA
BRANCH  18  19
ATOM     19  C   UNL     1       7.851   7.546  17.882  0.00  0.00    +0.000 C 
ATOM     20  O   UNL     1       8.312   6.840  18.767  0.00  0.00    +0.000 OA
BRANCH  19  21
ATOM     21  C   UNL     1       7.916   9.042  17.887  0.00  0.00    +0.000 C 
BRANCH  21  22
ATOM     22  C   UNL     1       8.988   9.476  18.879  0.00  0.00    +0.000 C 
BRANCH  22  23
ATOM     23  C   UNL     1       9.130  10.990  18.989  0.00  0.00    +0.000 C 
BRANCH  23  24
ATOM     24  C   UNL     1      10.539  11.466  18.646  0.00  0.00    +0.000 C 
BRANCH  24  25
ATOM     25  C   UNL     1      11.339  11.750  19.910  0.00  0.00    +0.000 C 
BRANCH  25  26
ATOM     26  C   UNL     1      10.650  12.822  20.744  0.00  0.00    +0.000 C 
BRANCH  26  27
ATOM     27  C   UNL     1      11.099  14.208  20.314  0.00  0.00    +0.000 C 
BRANCH  27  28
ATOM     28  C   UNL     1      12.302  14.121  19.383  0.00  0.00    +0.000 C 
BRANCH  28  29
ATOM     29  C   UNL     1      12.331  15.321  18.444  0.00  0.00    +0.000 C 
BRANCH  29  30
ATOM     30  C   UNL     1      11.126  16.225  18.681  0.00  0.00    +0.000 C 
BRANCH  30  31
ATOM     31  C   UNL     1      10.124  16.093  17.539  0.00  0.00    +0.000 C 
BRANCH  31  33
ATOM     32  C   UNL     1       8.122  14.660  18.014  0.00  0.00    +0.000 C 
ATOM     33  C   UNL     1       8.693  16.065  18.066  0.00  0.00    +0.000 C 
ENDBRANCH  31  33
ENDBRANCH  30  31
ENDBRANCH  29  30
ENDBRANCH  28  29
ENDBRANCH  27  28
ENDBRANCH  26  27
ENDBRANCH  25  26
ENDBRANCH  24  25
ENDBRANCH  23  24
ENDBRANCH  22  23
ENDBRANCH  21  22
ENDBRANCH  19  21
ENDBRANCH  18  19
ENDBRANCH   1  18
TORSDOF 16
ENDMDL
MODEL 7
REMARK VINA RESULT:      -6.2      5.950      8.486
REMARK  Name = 
REMARK  17 active torsions:
REMARK  status: ('A' for Active; 'I' for Inactive)
REMARK    1  A    between atoms: C_1  and  C_2
REMARK    2  A    between atoms: C_2  and  C_3
REMARK    3  A    between atoms: C_3  and  C_4
REMARK    4  A    between atoms: C_4  and  C_5
REMARK    5  A    between atoms: C_5  and  C_6
REMARK    6  A    between atoms: C_6  and  C_7
REMARK    7  A    between atoms: C_7  and  C_8
REMARK    8  A    between atoms: C_8  and  C_9
REMARK    9  A    between atoms: C_9  and  C_10
REMARK   10  A    between atoms: C_10  and  C_11
REMARK   11  A    between atoms: C_11  and  C_12
REMARK   12  A    between atoms: C_12  and  C_13
REMARK   13  A    between atoms: C_13  and  C_14
REMARK   14  A    between atoms: C_14  and  O_16
REMARK   15  A    between atoms: O_16  and  C_17
REMARK   16  A    between atoms: C_29  and  C_30
REMARK   17  A    between atoms: C_30  and  O_31
REMARK                            x       y       z     vdW  Elec       q    Type
REMARK                         _______ _______ _______ _____ _____    ______ ____
ROOT
ATOM      1  C   UNL     1       3.470   4.558  19.184  0.00  0.00    +0.000 C 
ATOM      2  C   UNL     1       4.009   5.093  17.874  0.00  0.00    +0.000 C 
ATOM      3  O   UNL     1       3.808   4.181  16.762  0.00  0.00    +0.000 OA
ATOM      4  C   UNL     1       4.961   4.218  16.033  0.00  0.00    +0.000 A 
ATOM      5  N   UNL     1       5.018   3.821  14.811  0.00  0.00    +0.000 NA
ATOM      6  C   UNL     1       6.238   3.979  14.199  0.00  0.00    +0.000 A 
ATOM      7  N   UNL     1       6.323   3.566  12.985  0.00  0.00    +0.000 NA
ATOM      8  C   UNL     1       7.372   4.633  14.901  0.00  0.00    +0.000 A 
ATOM      9  C   UNL     1       7.193   4.971  16.183  0.00  0.00    +0.000 A 
ATOM     10  N   UNL     1       5.986   4.734  16.778  0.00  0.00    +0.000 N 
ATOM     11  C   UNL     1       5.521   5.124  18.079  0.00  0.00    +0.000 C 
ATOM     12  O   UNL     1       5.856   4.157  19.089  0.00  0.00    +0.000 OA
ATOM     13  C   UNL     1       4.626   3.693  19.699  0.00  0.00    +0.000 C 
ATOM     14  H   UNL     1       5.390   3.186  12.786  0.00  0.00    +0.000 HD
ENDROOT
BRANCH  13  15
ATOM     15  C   UNL     1       4.429   2.204  19.387  0.00  0.00    +0.000 C 
BRANCH  15  16
ATOM     16  O   UNL     1       5.301   1.411  20.192  0.00  0.00    +0.000 OA
ATOM     17  H   UNL     1       5.941   1.022  19.564  0.00  0.00    +0.000 HD
ENDBRANCH  15  16
ENDBRANCH  13  15
BRANCH   1  18
ATOM     18  O   UNL     1       3.254   5.619  20.149  0.00  0.00    +0.000 OA
BRANCH  18  19
ATOM     19  C   UNL     1       1.949   5.967  20.317  0.00  0.00    +0.000 C 
ATOM     20  O   UNL     1       1.069   5.217  20.713  0.00  0.00    +0.000 OA
BRANCH  19  21
ATOM     21  C   UNL     1       1.738   7.418  20.018  0.00  0.00    +0.000 C 
BRANCH  21  22
ATOM     22  C   UNL     1       1.521   8.157  21.332  0.00  0.00    +0.000 C 
BRANCH  22  23
ATOM     23  C   UNL     1       0.053   8.454  21.620  0.00  0.00    +0.000 C 
BRANCH  23  24
ATOM     24  C   UNL     1      -0.377   9.819  21.091  0.00  0.00    +0.000 C 
BRANCH  24  25
ATOM     25  C   UNL     1       0.794  10.791  21.077  0.00  0.00    +0.000 C 
BRANCH  25  26
ATOM     26  C   UNL     1       0.810  11.585  19.778  0.00  0.00    +0.000 C 
BRANCH  26  27
ATOM     27  C   UNL     1      -0.039  12.839  19.904  0.00  0.00    +0.000 C 
BRANCH  27  28
ATOM     28  C   UNL     1      -0.905  13.031  18.665  0.00  0.00    +0.000 C 
BRANCH  28  29
ATOM     29  C   UNL     1      -1.303  11.680  18.084  0.00  0.00    +0.000 C 
BRANCH  29  30
ATOM     30  C   UNL     1      -2.820  11.540  18.024  0.00  0.00    +0.000 C 
BRANCH  30  31
ATOM     31  C   UNL     1      -3.210  10.166  17.490  0.00  0.00    +0.000 C 
BRANCH  31  33
ATOM     32  C   UNL     1      -3.404  10.253  14.991  0.00  0.00    +0.000 C 
ATOM     33  C   UNL     1      -2.516   9.875  16.163  0.00  0.00    +0.000 C 
ENDBRANCH  31  33
ENDBRANCH  30  31
ENDBRANCH  29  30
ENDBRANCH  28  29
ENDBRANCH  27  28
ENDBRANCH  26  27
ENDBRANCH  25  26
ENDBRANCH  24  25
ENDBRANCH  23  24
ENDBRANCH  22  23
ENDBRANCH  21  22
ENDBRANCH  19  21
ENDBRANCH  18  19
ENDBRANCH   1  18
TORSDOF 16
ENDMDL
MODEL 8
REMARK VINA RESULT:      -6.2      6.346     10.162
REMARK  Name = 
REMARK  17 active torsions:
REMARK  status: ('A' for Active; 'I' for Inactive)
REMARK    1  A    between atoms: C_1  and  C_2
REMARK    2  A    between atoms: C_2  and  C_3
REMARK    3  A    between atoms: C_3  and  C_4
REMARK    4  A    between atoms: C_4  and  C_5
REMARK    5  A    between atoms: C_5  and  C_6
REMARK    6  A    between atoms: C_6  and  C_7
REMARK    7  A    between atoms: C_7  and  C_8
REMARK    8  A    between atoms: C_8  and  C_9
REMARK    9  A    between atoms: C_9  and  C_10
REMARK   10  A    between atoms: C_10  and  C_11
REMARK   11  A    between atoms: C_11  and  C_12
REMARK   12  A    between atoms: C_12  and  C_13
REMARK   13  A    between atoms: C_13  and  C_14
REMARK   14  A    between atoms: C_14  and  O_16
REMARK   15  A    between atoms: O_16  and  C_17
REMARK   16  A    between atoms: C_29  and  C_30
REMARK   17  A    between atoms: C_30  and  O_31
REMARK                            x       y       z     vdW  Elec       q    Type
REMARK                         _______ _______ _______ _____ _____    ______ ____
ROOT
ATOM      1  C   UNL     1       0.811   9.363  19.682  0.00  0.00    +0.000 C 
ATOM      2  C   UNL     1       0.755  10.185  20.953  0.00  0.00    +0.000 C 
ATOM      3  O   UNL     1      -0.573  10.245  21.534  0.00  0.00    +0.000 OA
ATOM      4  C   UNL     1      -0.744  11.533  21.949  0.00  0.00    +0.000 A 
ATOM      5  N   UNL     1      -1.638  11.868  22.811  0.00  0.00    +0.000 NA
ATOM      6  C   UNL     1      -1.642  13.195  23.168  0.00  0.00    +0.000 A 
ATOM      7  N   UNL     1      -2.543  13.556  24.010  0.00  0.00    +0.000 NA
ATOM      8  C   UNL     1      -0.625  14.138  22.634  0.00  0.00    +0.000 A 
ATOM      9  C   UNL     1       0.230  13.671  21.718  0.00  0.00    +0.000 A 
ATOM     10  N   UNL     1       0.157  12.360  21.337  0.00  0.00    +0.000 N 
ATOM     11  C   UNL     1       1.037  11.610  20.485  0.00  0.00    +0.000 C 
ATOM     12  O   UNL     1       0.667  11.709  19.100  0.00  0.00    +0.000 OA
ATOM     13  C   UNL     1       0.397  10.374  18.605  0.00  0.00    +0.000 C 
ATOM     14  H   UNL     1      -3.069  12.693  24.194  0.00  0.00    +0.000 HD
ENDROOT
BRANCH  13  15
ATOM     15  C   UNL     1      -1.084  10.256  18.229  0.00  0.00    +0.000 C 
BRANCH  15  16
ATOM     16  O   UNL     1      -1.391  11.137  17.148  0.00  0.00    +0.000 OA
ATOM     17  H   UNL     1      -1.867  10.584  16.498  0.00  0.00    +0.000 HD
ENDBRANCH  15  16
ENDBRANCH  13  15
BRANCH   1  18
ATOM     18  O   UNL     1       2.162   8.930  19.381  0.00  0.00    +0.000 OA
BRANCH  18  19
ATOM     19  C   UNL     1       2.244   7.995  18.396  0.00  0.00    +0.000 C 
ATOM     20  O   UNL     1       2.663   8.201  17.266  0.00  0.00    +0.000 OA
BRANCH  19  21
ATOM     21  C   UNL     1       1.816   6.651  18.897  0.00  0.00    +0.000 C 
BRANCH  21  22
ATOM     22  C   UNL     1       2.832   6.170  19.924  0.00  0.00    +0.000 C 
BRANCH  22  23
ATOM     23  C   UNL     1       2.354   4.966  20.728  0.00  0.00    +0.000 C 
BRANCH  23  24
ATOM     24  C   UNL     1       1.027   4.415  20.213  0.00  0.00    +0.000 C 
BRANCH  24  25
ATOM     25  C   UNL     1       1.136   2.927  19.914  0.00  0.00    +0.000 C 
BRANCH  25  26
ATOM     26  C   UNL     1       2.541   2.582  19.440  0.00  0.00    +0.000 C 
BRANCH  26  27
ATOM     27  C   UNL     1       2.536   2.221  17.964  0.00  0.00    +0.000 C 
BRANCH  27  28
ATOM     28  C   UNL     1       2.936   3.421  17.113  0.00  0.00    +0.000 C 
BRANCH  28  29
ATOM     29  C   UNL     1       4.324   3.909  17.509  0.00  0.00    +0.000 C 
BRANCH  29  30
ATOM     30  C   UNL     1       4.690   5.179  16.749  0.00  0.00    +0.000 C 
BRANCH  30  31
ATOM     31  C   UNL     1       5.681   6.016  17.551  0.00  0.00    +0.000 C 
BRANCH  31  33
ATOM     32  C   UNL     1       7.612   5.766  19.132  0.00  0.00    +0.000 C 
ATOM     33  C   UNL     1       6.260   5.216  18.713  0.00  0.00    +0.000 C 
ENDBRANCH  31  33
ENDBRANCH  30  31
ENDBRANCH  29  30
ENDBRANCH  28  29
ENDBRANCH  27  28
ENDBRANCH  26  27
ENDBRANCH  25  26
ENDBRANCH  24  25
ENDBRANCH  23  24
ENDBRANCH  22  23
ENDBRANCH  21  22
ENDBRANCH  19  21
ENDBRANCH  18  19
ENDBRANCH   1  18
TORSDOF 16
ENDMDL
MODEL 9
REMARK VINA RESULT:      -6.0      6.912     10.476
REMARK  Name = 
REMARK  17 active torsions:
REMARK  status: ('A' for Active; 'I' for Inactive)
REMARK    1  A    between atoms: C_1  and  C_2
REMARK    2  A    between atoms: C_2  and  C_3
REMARK    3  A    between atoms: C_3  and  C_4
REMARK    4  A    between atoms: C_4  and  C_5
REMARK    5  A    between atoms: C_5  and  C_6
REMARK    6  A    between atoms: C_6  and  C_7
REMARK    7  A    between atoms: C_7  and  C_8
REMARK    8  A    between atoms: C_8  and  C_9
REMARK    9  A    between atoms: C_9  and  C_10
REMARK   10  A    between atoms: C_10  and  C_11
REMARK   11  A    between atoms: C_11  and  C_12
REMARK   12  A    between atoms: C_12  and  C_13
REMARK   13  A    between atoms: C_13  and  C_14
REMARK   14  A    between atoms: C_14  and  O_16
REMARK   15  A    between atoms: O_16  and  C_17
REMARK   16  A    between atoms: C_29  and  C_30
REMARK   17  A    between atoms: C_30  and  O_31
REMARK                            x       y       z     vdW  Elec       q    Type
REMARK                         _______ _______ _______ _____ _____    ______ ____
ROOT
ATOM      1  C   UNL     1       1.109   9.746  20.314  0.00  0.00    +0.000 C 
ATOM      2  C   UNL     1       0.944  11.239  20.123  0.00  0.00    +0.000 C 
ATOM      3  O   UNL     1       1.683  12.023  21.097  0.00  0.00    +0.000 OA
ATOM      4  C   UNL     1       0.857  13.046  21.460  0.00  0.00    +0.000 A 
ATOM      5  N   UNL     1       1.293  14.118  22.023  0.00  0.00    +0.000 NA
ATOM      6  C   UNL     1       0.343  15.079  22.270  0.00  0.00    +0.000 A 
ATOM      7  N   UNL     1       0.753  16.147  22.855  0.00  0.00    +0.000 NA
ATOM      8  C   UNL     1      -1.067  14.896  21.840  0.00  0.00    +0.000 A 
ATOM      9  C   UNL     1      -1.399  13.720  21.293  0.00  0.00    +0.000 A 
ATOM     10  N   UNL     1      -0.439  12.762  21.127  0.00  0.00    +0.000 N 
ATOM     11  C   UNL     1      -0.524  11.496  20.454  0.00  0.00    +0.000 C 
ATOM     12  O   UNL     1      -0.977  10.447  21.326  0.00  0.00    +0.000 OA
ATOM     13  C   UNL     1       0.044   9.419  21.369  0.00  0.00    +0.000 C 
ATOM     14  H   UNL     1       1.754  15.979  23.005  0.00  0.00    +0.000 HD
ENDROOT
BRANCH  13  15
ATOM     15  C   UNL     1       0.627   9.334  22.784  0.00  0.00    +0.000 C 
BRANCH  15  16
ATOM     16  O   UNL     1       2.053   9.373  22.735  0.00  0.00    +0.000 OA
ATOM     17  H   UNL     1       2.275   9.344  21.783  0.00  0.00    +0.000 HD
ENDBRANCH  15  16
ENDBRANCH  13  15
BRANCH   1  18
ATOM     18  O   UNL     1       0.773   9.010  19.111  0.00  0.00    +0.000 OA
BRANCH  18  19
ATOM     19  C   UNL     1       1.809   8.852  18.243  0.00  0.00    +0.000 C 
ATOM     20  O   UNL     1       2.158   9.675  17.410  0.00  0.00    +0.000 OA
BRANCH  19  21
ATOM     21  C   UNL     1       2.519   7.556  18.487  0.00  0.00    +0.000 C 
BRANCH  21  22
ATOM     22  C   UNL     1       3.443   7.282  17.308  0.00  0.00    +0.000 C 
BRANCH  22  23
ATOM     23  C   UNL     1       4.719   6.546  17.700  0.00  0.00    +0.000 C 
BRANCH  23  24
ATOM     24  C   UNL     1       4.609   5.886  19.072  0.00  0.00    +0.000 C 
BRANCH  24  25
ATOM     25  C   UNL     1       4.963   4.407  18.994  0.00  0.00    +0.000 C 
BRANCH  25  26
ATOM     26  C   UNL     1       4.871   3.915  17.555  0.00  0.00    +0.000 C 
BRANCH  26  27
ATOM     27  C   UNL     1       3.787   2.860  17.417  0.00  0.00    +0.000 C 
BRANCH  27  28
ATOM     28  C   UNL     1       2.404   3.494  17.495  0.00  0.00    +0.000 C 
BRANCH  28  29
ATOM     29  C   UNL     1       1.601   2.873  18.632  0.00  0.00    +0.000 C 
BRANCH  29  30
ATOM     30  C   UNL     1       0.838   3.943  19.406  0.00  0.00    +0.000 C 
BRANCH  30  31
ATOM     31  C   UNL     1       1.660   4.432  20.594  0.00  0.00    +0.000 C 
BRANCH  31  33
ATOM     32  C   UNL     1       1.405   2.408  22.053  0.00  0.00    +0.000 C 
ATOM     33  C   UNL     1       2.381   3.274  21.276  0.00  0.00    +0.000 C 
ENDBRANCH  31  33
ENDBRANCH  30  31
ENDBRANCH  29  30
ENDBRANCH  28  29
ENDBRANCH  27  28
ENDBRANCH  26  27
ENDBRANCH  25  26
ENDBRANCH  24  25
ENDBRANCH  23  24
ENDBRANCH  22  23
ENDBRANCH  21  22
ENDBRANCH  19  21
ENDBRANCH  18  19
ENDBRANCH   1  18
TORSDOF 16
ENDMDL
