MODEL 1
REMARK VINA RESULT:      -7.0      0.000      0.000
REMARK  Name = 
REMARK  7 active torsions:
REMARK  status: ('A' for Active; 'I' for Inactive)
REMARK    1  A    between atoms: C_1  and  C_2
REMARK    2  A    between atoms: C_2  and  C_3
REMARK    3  A    between atoms: C_3  and  C_4
REMARK    4  A    between atoms: C_3  and  N_10
REMARK    5  A    between atoms: C_4  and  N_5
REMARK    6  A    between atoms: C_11  and  C_13
REMARK    7  A    between atoms: C_14  and  C_15
REMARK                            x       y       z     vdW  Elec       q    Type
REMARK                         _______ _______ _______ _____ _____    ______ ____
ROOT
ATOM      1  N   UNL     1       5.768   5.951  18.079  0.00  0.00    +0.000 N 
ATOM      2  C   UNL     1       4.493   6.292  17.684  0.00  0.00    +0.000 C 
ATOM      3  O   UNL     1       4.316   6.879  16.614  0.00  0.00    +0.000 OA
ATOM      4  H   UNL     1       5.900   5.545  19.002  0.00  0.00    +0.000 HD
ENDROOT
BRANCH   2   5
ATOM      5  C   UNL     1       3.367   5.912  18.539  0.00  0.00    +0.000 A 
ATOM      6  C   UNL     1       2.408   6.833  18.970  0.00  0.00    +0.000 A 
ATOM      7  C   UNL     1       2.183   8.287  18.796  0.00  0.00    +0.000 C 
ATOM      8  O   UNL     1       1.474   6.247  19.762  0.00  0.00    +0.000 OA
ATOM      9  C   UNL     1       1.810   4.949  19.863  0.00  0.00    +0.000 A 
ATOM     10  C   UNL     1       2.944   4.668  19.139  0.00  0.00    +0.000 A 
ATOM     11  C   UNL     1       3.457   3.317  19.140  0.00  0.00    +0.000 C 
ATOM     12  O   UNL     1       4.458   3.020  18.483  0.00  0.00    +0.000 OA
ATOM     13  C   UNL     1       2.730   2.269  19.988  0.00  0.00    +0.000 C 
ATOM     14  C   UNL     1       1.519   2.684  20.848  0.00  0.00    +0.000 C 
ATOM     15  C   UNL     1       0.967   4.101  20.715  0.00  0.00    +0.000 C 
ENDBRANCH   2   5
BRANCH   1  16
ATOM     16  C   UNL     1       6.955   6.283  17.259  0.00  0.00    +0.000 C 
BRANCH  16  18
ATOM     17  C   UNL     1       7.999   8.596  17.805  0.00  0.00    +0.000 C 
ATOM     18  C   UNL     1       7.947   7.103  18.108  0.00  0.00    +0.000 C 
ENDBRANCH  16  18
BRANCH  16  19
ATOM     19  C   UNL     1       7.599   5.052  16.569  0.00  0.00    +0.000 C 
BRANCH  19  20
ATOM     20  N   UNL     1       7.002   4.679  15.304  0.00  0.00    +0.000 N 
ATOM     21  C   UNL     1       5.964   3.811  15.119  0.00  0.00    +0.000 A 
ATOM     22  C   UNL     1       5.828   3.703  13.756  0.00  0.00    +0.000 A 
ATOM     23  N   UNL     1       6.757   4.477  13.112  0.00  0.00    +0.000 NA
ATOM     24  C   UNL     1       7.459   5.043  14.069  0.00  0.00    +0.000 A 
ENDBRANCH  19  20
ENDBRANCH  16  19
ENDBRANCH   1  16
TORSDOF 5
ENDMDL
MODEL 2
REMARK VINA RESULT:      -6.8      2.264      5.875
REMARK  Name = 
REMARK  7 active torsions:
REMARK  status: ('A' for Active; 'I' for Inactive)
REMARK    1  A    between atoms: C_1  and  C_2
REMARK    2  A    between atoms: C_2  and  C_3
REMARK    3  A    between atoms: C_3  and  C_4
REMARK    4  A    between atoms: C_3  and  N_10
REMARK    5  A    between atoms: C_4  and  N_5
REMARK    6  A    between atoms: C_11  and  C_13
REMARK    7  A    between atoms: C_14  and  C_15
REMARK                            x       y       z     vdW  Elec       q    Type
REMARK                         _______ _______ _______ _____ _____    ______ ____
ROOT
ATOM      1  N   UNL     1       3.879   5.936  18.386  0.00  0.00    +0.000 N 
ATOM      2  C   UNL     1       5.237   5.756  18.532  0.00  0.00    +0.000 C 
ATOM      3  O   UNL     1       5.717   5.577  19.654  0.00  0.00    +0.000 OA
ATOM      4  H   UNL     1       3.514   6.166  17.465  0.00  0.00    +0.000 HD
ENDROOT
BRANCH   2   5
ATOM      5  C   UNL     1       6.078   5.744  17.334  0.00  0.00    +0.000 A 
ATOM      6  C   UNL     1       7.218   6.542  17.211  0.00  0.00    +0.000 A 
ATOM      7  C   UNL     1       7.906   7.546  18.057  0.00  0.00    +0.000 C 
ATOM      8  O   UNL     1       7.822   6.368  16.008  0.00  0.00    +0.000 OA
ATOM      9  C   UNL     1       7.087   5.466  15.332  0.00  0.00    +0.000 A 
ATOM     10  C   UNL     1       6.017   5.033  16.078  0.00  0.00    +0.000 A 
ATOM     11  C   UNL     1       5.111   4.065  15.504  0.00  0.00    +0.000 C 
ATOM     12  O   UNL     1       4.152   3.634  16.150  0.00  0.00    +0.000 OA
ATOM     13  C   UNL     1       5.368   3.597  14.069  0.00  0.00    +0.000 C 
ATOM     14  C   UNL     1       6.537   4.200  13.263  0.00  0.00    +0.000 C 
ATOM     15  C   UNL     1       7.516   5.137  13.967  0.00  0.00    +0.000 C 
ENDBRANCH   2   5
BRANCH   1  16
ATOM     16  C   UNL     1       2.961   5.939  19.547  0.00  0.00    +0.000 C 
BRANCH  16  18
ATOM     17  C   UNL     1       2.221   8.129  18.366  0.00  0.00    +0.000 C 
ATOM     18  C   UNL     1       2.285   7.321  19.657  0.00  0.00    +0.000 C 
ENDBRANCH  16  18
BRANCH  16  19
ATOM     19  C   UNL     1       1.958   4.756  19.553  0.00  0.00    +0.000 C 
BRANCH  19  20
ATOM     20  N   UNL     1       2.555   3.449  19.380  0.00  0.00    +0.000 N 
ATOM     21  C   UNL     1       3.641   2.955  20.046  0.00  0.00    +0.000 A 
ATOM     22  C   UNL     1       3.887   1.732  19.470  0.00  0.00    +0.000 A 
ATOM     23  N   UNL     1       2.985   1.475  18.471  0.00  0.00    +0.000 NA
ATOM     24  C   UNL     1       2.203   2.531  18.431  0.00  0.00    +0.000 A 
ENDBRANCH  19  20
ENDBRANCH  16  19
ENDBRANCH   1  16
TORSDOF 5
ENDMDL
MODEL 3
REMARK VINA RESULT:      -6.8      2.255      6.402
REMARK  Name = 
REMARK  7 active torsions:
REMARK  status: ('A' for Active; 'I' for Inactive)
REMARK    1  A    between atoms: C_1  and  C_2
REMARK    2  A    between atoms: C_2  and  C_3
REMARK    3  A    between atoms: C_3  and  C_4
REMARK    4  A    between atoms: C_3  and  N_10
REMARK    5  A    between atoms: C_4  and  N_5
REMARK    6  A    between atoms: C_11  and  C_13
REMARK    7  A    between atoms: C_14  and  C_15
REMARK                            x       y       z     vdW  Elec       q    Type
REMARK                         _______ _______ _______ _____ _____    ______ ____
ROOT
ATOM      1  N   UNL     1       3.809   6.111  18.361  0.00  0.00    +0.000 N 
ATOM      2  C   UNL     1       5.148   5.828  18.515  0.00  0.00    +0.000 C 
ATOM      3  O   UNL     1       5.603   5.597  19.637  0.00  0.00    +0.000 OA
ATOM      4  H   UNL     1       3.471   6.382  17.440  0.00  0.00    +0.000 HD
ENDROOT
BRANCH   2   5
ATOM      5  C   UNL     1       5.996   5.772  17.323  0.00  0.00    +0.000 A 
ATOM      6  C   UNL     1       7.143   6.559  17.181  0.00  0.00    +0.000 A 
ATOM      7  C   UNL     1       7.832   7.584  18.000  0.00  0.00    +0.000 C 
ATOM      8  O   UNL     1       7.753   6.342  15.988  0.00  0.00    +0.000 OA
ATOM      9  C   UNL     1       7.016   5.424  15.337  0.00  0.00    +0.000 A 
ATOM     10  C   UNL     1       5.939   5.022  16.090  0.00  0.00    +0.000 A 
ATOM     11  C   UNL     1       5.030   4.042  15.541  0.00  0.00    +0.000 C 
ATOM     12  O   UNL     1       4.065   3.638  16.195  0.00  0.00    +0.000 OA
ATOM     13  C   UNL     1       5.293   3.527  14.123  0.00  0.00    +0.000 C 
ATOM     14  C   UNL     1       6.471   4.096  13.306  0.00  0.00    +0.000 C 
ATOM     15  C   UNL     1       7.452   5.048  13.986  0.00  0.00    +0.000 C 
ENDBRANCH   2   5
BRANCH   1  16
ATOM     16  C   UNL     1       2.883   6.164  19.515  0.00  0.00    +0.000 C 
BRANCH  16  18
ATOM     17  C   UNL     1       1.447   7.863  20.852  0.00  0.00    +0.000 C 
ATOM     18  C   UNL     1       2.236   7.562  19.583  0.00  0.00    +0.000 C 
ENDBRANCH  16  18
BRANCH  16  19
ATOM     19  C   UNL     1       1.856   5.003  19.545  0.00  0.00    +0.000 C 
BRANCH  19  20
ATOM     20  N   UNL     1       2.202   3.904  20.421  0.00  0.00    +0.000 N 
ATOM     21  C   UNL     1       3.293   3.089  20.313  0.00  0.00    +0.000 A 
ATOM     22  C   UNL     1       3.132   2.145  21.299  0.00  0.00    +0.000 A 
ATOM     23  N   UNL     1       1.972   2.363  21.996  0.00  0.00    +0.000 NA
ATOM     24  C   UNL     1       1.427   3.421  21.437  0.00  0.00    +0.000 A 
ENDBRANCH  19  20
ENDBRANCH  16  19
ENDBRANCH   1  16
TORSDOF 5
ENDMDL
MODEL 4
REMARK VINA RESULT:      -6.8      1.369      3.134
REMARK  Name = 
REMARK  7 active torsions:
REMARK  status: ('A' for Active; 'I' for Inactive)
REMARK    1  A    between atoms: C_1  and  C_2
REMARK    2  A    between atoms: C_2  and  C_3
REMARK    3  A    between atoms: C_3  and  C_4
REMARK    4  A    between atoms: C_3  and  N_10
REMARK    5  A    between atoms: C_4  and  N_5
REMARK    6  A    between atoms: C_11  and  C_13
REMARK    7  A    between atoms: C_14  and  C_15
REMARK                            x       y       z     vdW  Elec       q    Type
REMARK                         _______ _______ _______ _____ _____    ______ ____
ROOT
ATOM      1  N   UNL     1       5.125   4.094  16.497  0.00  0.00    +0.000 N 
ATOM      2  C   UNL     1       4.388   5.237  16.711  0.00  0.00    +0.000 C 
ATOM      3  O   UNL     1       4.559   6.223  15.990  0.00  0.00    +0.000 OA
ATOM      4  H   UNL     1       5.031   3.322  17.154  0.00  0.00    +0.000 HD
ENDROOT
BRANCH   2   5
ATOM      5  C   UNL     1       3.385   5.238  17.776  0.00  0.00    +0.000 A 
ATOM      6  C   UNL     1       2.824   6.415  18.277  0.00  0.00    +0.000 A 
ATOM      7  C   UNL     1       2.989   7.864  18.011  0.00  0.00    +0.000 C 
ATOM      8  O   UNL     1       1.930   6.162  19.267  0.00  0.00    +0.000 OA
ATOM      9  C   UNL     1       1.900   4.826  19.429  0.00  0.00    +0.000 A 
ATOM     10  C   UNL     1       2.749   4.197  18.551  0.00  0.00    +0.000 A 
ATOM     11  C   UNL     1       2.852   2.756  18.589  0.00  0.00    +0.000 C 
ATOM     12  O   UNL     1       3.585   2.153  17.802  0.00  0.00    +0.000 OA
ATOM     13  C   UNL     1       2.034   2.001  19.641  0.00  0.00    +0.000 C 
ATOM     14  C   UNL     1       1.175   2.787  20.653  0.00  0.00    +0.000 C 
ATOM     15  C   UNL     1       1.030   4.298  20.486  0.00  0.00    +0.000 C 
ENDBRANCH   2   5
BRANCH   1  16
ATOM     16  C   UNL     1       6.144   4.008  15.426  0.00  0.00    +0.000 C 
BRANCH  16  18
ATOM     17  C   UNL     1       6.129   3.530  12.875  0.00  0.00    +0.000 C 
ATOM     18  C   UNL     1       5.464   4.222  14.059  0.00  0.00    +0.000 C 
ENDBRANCH  16  18
BRANCH  16  19
ATOM     19  C   UNL     1       7.372   4.927  15.658  0.00  0.00    +0.000 C 
BRANCH  19  20
ATOM     20  N   UNL     1       7.553   5.371  17.024  0.00  0.00    +0.000 N 
ATOM     21  C   UNL     1       7.602   6.664  17.460  0.00  0.00    +0.000 A 
ATOM     22  C   UNL     1       7.890   6.578  18.801  0.00  0.00    +0.000 A 
ATOM     23  N   UNL     1       8.022   5.270  19.187  0.00  0.00    +0.000 NA
ATOM     24  C   UNL     1       7.827   4.566  18.094  0.00  0.00    +0.000 A 
ENDBRANCH  19  20
ENDBRANCH  16  19
ENDBRANCH   1  16
TORSDOF 5
ENDMDL
MODEL 5
REMARK VINA RESULT:      -6.6      1.566      4.278
REMARK  Name = 
REMARK  7 active torsions:
REMARK  status: ('A' for Active; 'I' for Inactive)
REMARK    1  A    between atoms: C_1  and  C_2
REMARK    2  A    between atoms: C_2  and  C_3
REMARK    3  A    between atoms: C_3  and  C_4
REMARK    4  A    between atoms: C_3  and  N_10
REMARK    5  A    between atoms: C_4  and  N_5
REMARK    6  A    between atoms: C_11  and  C_13
REMARK    7  A    between atoms: C_14  and  C_15
REMARK                            x       y       z     vdW  Elec       q    Type
REMARK                         _______ _______ _______ _____ _____    ______ ____
ROOT
ATOM      1  N   UNL     1       4.462   5.014  17.228  0.00  0.00    +0.000 N 
ATOM      2  C   UNL     1       3.964   4.618  18.450  0.00  0.00    +0.000 C 
ATOM      3  O   UNL     1       4.281   3.522  18.918  0.00  0.00    +0.000 OA
ATOM      4  H   UNL     1       4.122   5.882  16.821  0.00  0.00    +0.000 HD
ENDROOT
BRANCH   2   5
ATOM      5  C   UNL     1       3.090   5.535  19.183  0.00  0.00    +0.000 A 
ATOM      6  C   UNL     1       2.431   5.163  20.358  0.00  0.00    +0.000 A 
ATOM      7  C   UNL     1       2.341   3.933  21.179  0.00  0.00    +0.000 C 
ATOM      8  O   UNL     1       1.670   6.176  20.845  0.00  0.00    +0.000 OA
ATOM      9  C   UNL     1       1.814   7.211  19.998  0.00  0.00    +0.000 A 
ATOM     10  C   UNL     1       2.671   6.900  18.970  0.00  0.00    +0.000 A 
ATOM     11  C   UNL     1       2.937   7.896  17.957  0.00  0.00    +0.000 C 
ATOM     12  O   UNL     1       3.718   7.664  17.031  0.00  0.00    +0.000 OA
ATOM     13  C   UNL     1       2.215   9.243  18.060  0.00  0.00    +0.000 C 
ATOM     14  C   UNL     1       1.197   9.482  19.194  0.00  0.00    +0.000 C 
ATOM     15  C   UNL     1       1.045   8.428  20.288  0.00  0.00    +0.000 C 
ENDBRANCH   2   5
BRANCH   1  16
ATOM     16  C   UNL     1       5.368   4.152  16.436  0.00  0.00    +0.000 C 
BRANCH  16  18
ATOM     17  C   UNL     1       6.263   4.006  14.004  0.00  0.00    +0.000 C 
ATOM     18  C   UNL     1       5.121   4.398  14.934  0.00  0.00    +0.000 C 
ENDBRANCH  16  18
BRANCH  16  19
ATOM     19  C   UNL     1       6.859   4.270  16.847  0.00  0.00    +0.000 C 
BRANCH  19  20
ATOM     20  N   UNL     1       7.238   5.547  17.412  0.00  0.00    +0.000 N 
ATOM     21  C   UNL     1       7.236   6.753  16.771  0.00  0.00    +0.000 A 
ATOM     22  C   UNL     1       7.768   7.639  17.677  0.00  0.00    +0.000 A 
ATOM     23  N   UNL     1       8.094   7.003  18.846  0.00  0.00    +0.000 NA
ATOM     24  C   UNL     1       7.777   5.742  18.653  0.00  0.00    +0.000 A 
ENDBRANCH  19  20
ENDBRANCH  16  19
ENDBRANCH   1  16
TORSDOF 5
ENDMDL
MODEL 6
REMARK VINA RESULT:      -6.6      1.130      1.155
REMARK  Name = 
REMARK  7 active torsions:
REMARK  status: ('A' for Active; 'I' for Inactive)
REMARK    1  A    between atoms: C_1  and  C_2
REMARK    2  A    between atoms: C_2  and  C_3
REMARK    3  A    between atoms: C_3  and  C_4
REMARK    4  A    between atoms: C_3  and  N_10
REMARK    5  A    between atoms: C_4  and  N_5
REMARK    6  A    between atoms: C_11  and  C_13
REMARK    7  A    between atoms: C_14  and  C_15
REMARK                            x       y       z     vdW  Elec       q    Type
REMARK                         _______ _______ _______ _____ _____    ______ ____
ROOT
ATOM      1  N   UNL     1       5.527   6.016  17.247  0.00  0.00    +0.000 N 
ATOM      2  C   UNL     1       5.348   5.415  18.473  0.00  0.00    +0.000 C 
ATOM      3  O   UNL     1       6.325   5.027  19.116  0.00  0.00    +0.000 OA
ATOM      4  H   UNL     1       4.706   6.252  16.694  0.00  0.00    +0.000 HD
ENDROOT
BRANCH   2   5
ATOM      5  C   UNL     1       3.989   5.286  19.000  0.00  0.00    +0.000 A 
ATOM      6  C   UNL     1       3.027   6.288  18.848  0.00  0.00    +0.000 A 
ATOM      7  C   UNL     1       2.990   7.636  18.231  0.00  0.00    +0.000 C 
ATOM      8  O   UNL     1       1.851   5.946  19.432  0.00  0.00    +0.000 OA
ATOM      9  C   UNL     1       2.029   4.728  19.976  0.00  0.00    +0.000 A 
ATOM     10  C   UNL     1       3.300   4.258  19.745  0.00  0.00    +0.000 A 
ATOM     11  C   UNL     1       3.672   2.963  20.268  0.00  0.00    +0.000 C 
ATOM     12  O   UNL     1       4.794   2.496  20.062  0.00  0.00    +0.000 OA
ATOM     13  C   UNL     1       2.636   2.192  21.091  0.00  0.00    +0.000 C 
ATOM     14  C   UNL     1       1.262   2.828  21.386  0.00  0.00    +0.000 C 
ATOM     15  C   UNL     1       0.898   4.150  20.714  0.00  0.00    +0.000 C 
ENDBRANCH   2   5
BRANCH   1  16
ATOM     16  C   UNL     1       6.872   6.202  16.656  0.00  0.00    +0.000 C 
BRANCH  16  18
ATOM     17  C   UNL     1       7.776   8.416  17.667  0.00  0.00    +0.000 C 
ATOM     18  C   UNL     1       7.789   6.891  17.685  0.00  0.00    +0.000 C 
ENDBRANCH  16  18
BRANCH  16  19
ATOM     19  C   UNL     1       7.475   4.904  16.058  0.00  0.00    +0.000 C 
BRANCH  19  20
ATOM     20  N   UNL     1       7.088   4.623  14.692  0.00  0.00    +0.000 N 
ATOM     21  C   UNL     1       6.174   3.696  14.280  0.00  0.00    +0.000 A 
ATOM     22  C   UNL     1       6.229   3.728  12.907  0.00  0.00    +0.000 A 
ATOM     23  N   UNL     1       7.153   4.645  12.477  0.00  0.00    +0.000 NA
ATOM     24  C   UNL     1       7.664   5.159  13.574  0.00  0.00    +0.000 A 
ENDBRANCH  19  20
ENDBRANCH  16  19
ENDBRANCH   1  16
TORSDOF 5
ENDMDL
MODEL 7
REMARK VINA RESULT:      -6.5      1.580      4.165
REMARK  Name = 
REMARK  7 active torsions:
REMARK  status: ('A' for Active; 'I' for Inactive)
REMARK    1  A    between atoms: C_1  and  C_2
REMARK    2  A    between atoms: C_2  and  C_3
REMARK    3  A    between atoms: C_3  and  C_4
REMARK    4  A    between atoms: C_3  and  N_10
REMARK    5  A    between atoms: C_4  and  N_5
REMARK    6  A    between atoms: C_11  and  C_13
REMARK    7  A    between atoms: C_14  and  C_15
REMARK                            x       y       z     vdW  Elec       q    Type
REMARK                         _______ _______ _______ _____ _____    ______ ____
ROOT
ATOM      1  N   UNL     1       4.753   4.782  17.013  0.00  0.00    +0.000 N 
ATOM      2  C   UNL     1       4.014   4.117  17.966  0.00  0.00    +0.000 C 
ATOM      3  O   UNL     1       4.038   2.885  18.014  0.00  0.00    +0.000 OA
ATOM      4  H   UNL     1       4.653   5.792  16.935  0.00  0.00    +0.000 HD
ENDROOT
BRANCH   2   5
ATOM      5  C   UNL     1       3.239   4.901  18.929  0.00  0.00    +0.000 A 
ATOM      6  C   UNL     1       2.734   4.351  20.110  0.00  0.00    +0.000 A 
ATOM      7  C   UNL     1       2.749   3.013  20.747  0.00  0.00    +0.000 C 
ATOM      8  O   UNL     1       2.040   5.268  20.831  0.00  0.00    +0.000 OA
ATOM      9  C   UNL     1       2.077   6.418  20.133  0.00  0.00    +0.000 A 
ATOM     10  C   UNL     1       2.796   6.276  18.972  0.00  0.00    +0.000 A 
ATOM     11  C   UNL     1       2.932   7.413  18.090  0.00  0.00    +0.000 C 
ATOM     12  O   UNL     1       3.590   7.331  17.050  0.00  0.00    +0.000 OA
ATOM     13  C   UNL     1       2.229   8.716  18.479  0.00  0.00    +0.000 C 
ATOM     14  C   UNL     1       1.362   8.770  19.753  0.00  0.00    +0.000 C 
ATOM     15  C   UNL     1       1.350   7.565  20.692  0.00  0.00    +0.000 C 
ENDBRANCH   2   5
BRANCH   1  16
ATOM     16  C   UNL     1       5.578   4.060  16.018  0.00  0.00    +0.000 C 
BRANCH  16  18
ATOM     17  C   UNL     1       5.898   3.875  13.449  0.00  0.00    +0.000 C 
ATOM     18  C   UNL     1       5.009   4.312  14.607  0.00  0.00    +0.000 C 
ENDBRANCH  16  18
BRANCH  16  19
ATOM     19  C   UNL     1       7.097   4.353  16.136  0.00  0.00    +0.000 C 
BRANCH  19  20
ATOM     20  N   UNL     1       7.465   5.245  17.214  0.00  0.00    +0.000 N 
ATOM     21  C   UNL     1       7.760   4.890  18.499  0.00  0.00    +0.000 A 
ATOM     22  C   UNL     1       7.942   6.078  19.165  0.00  0.00    +0.000 A 
ATOM     23  N   UNL     1       7.760   7.142  18.320  0.00  0.00    +0.000 NA
ATOM     24  C   UNL     1       7.461   6.611  17.156  0.00  0.00    +0.000 A 
ENDBRANCH  19  20
ENDBRANCH  16  19
ENDBRANCH   1  16
TORSDOF 5
ENDMDL
MODEL 8
REMARK VINA RESULT:      -6.5      3.690      7.281
REMARK  Name = 
REMARK  7 active torsions:
REMARK  status: ('A' for Active; 'I' for Inactive)
REMARK    1  A    between atoms: C_1  and  C_2
REMARK    2  A    between atoms: C_2  and  C_3
REMARK    3  A    between atoms: C_3  and  C_4
REMARK    4  A    between atoms: C_3  and  N_10
REMARK    5  A    between atoms: C_4  and  N_5
REMARK    6  A    between atoms: C_11  and  C_13
REMARK    7  A    between atoms: C_14  and  C_15
REMARK                            x       y       z     vdW  Elec       q    Type
REMARK                         _______ _______ _______ _____ _____    ______ ____
ROOT
ATOM      1  N   UNL     1       1.691   8.638  19.347  0.00  0.00    +0.000 N 
ATOM      2  C   UNL     1       2.355   8.066  18.284  0.00  0.00    +0.000 C 
ATOM      3  O   UNL     1       2.422   8.663  17.207  0.00  0.00    +0.000 OA
ATOM      4  H   UNL     1       1.574   8.095  20.199  0.00  0.00    +0.000 HD
ENDROOT
BRANCH   2   5
ATOM      5  C   UNL     1       3.002   6.767  18.477  0.00  0.00    +0.000 A 
ATOM      6  C   UNL     1       4.047   6.322  17.663  0.00  0.00    +0.000 A 
ATOM      7  C   UNL     1       4.779   6.858  16.491  0.00  0.00    +0.000 C 
ATOM      8  O   UNL     1       4.472   5.085  18.027  0.00  0.00    +0.000 OA
ATOM      9  C   UNL     1       3.711   4.706  19.070  0.00  0.00    +0.000 A 
ATOM     10  C   UNL     1       2.803   5.680  19.407  0.00  0.00    +0.000 A 
ATOM     11  C   UNL     1       1.894   5.439  20.505  0.00  0.00    +0.000 C 
ATOM     12  O   UNL     1       1.080   6.298  20.853  0.00  0.00    +0.000 OA
ATOM     13  C   UNL     1       1.963   4.084  21.215  0.00  0.00    +0.000 C 
ATOM     14  C   UNL     1       2.947   3.006  20.717  0.00  0.00    +0.000 C 
ATOM     15  C   UNL     1       3.951   3.367  19.623  0.00  0.00    +0.000 C 
ENDBRANCH   2   5
BRANCH   1  16
ATOM     16  C   UNL     1       1.030   9.958  19.237  0.00  0.00    +0.000 C 
BRANCH  16  18
ATOM     17  C   UNL     1      -1.152  10.946  18.237  0.00  0.00    +0.000 C 
ATOM     18  C   UNL     1      -0.457   9.755  18.886  0.00  0.00    +0.000 C 
ENDBRANCH  16  18
BRANCH  16  19
ATOM     19  C   UNL     1       1.258  10.875  20.468  0.00  0.00    +0.000 C 
BRANCH  19  20
ATOM     20  N   UNL     1       0.403  10.596  21.602  0.00  0.00    +0.000 N 
ATOM     21  C   UNL     1      -0.664  11.339  22.019  0.00  0.00    +0.000 A 
ATOM     22  C   UNL     1      -1.084  10.739  23.182  0.00  0.00    +0.000 A 
ATOM     23  N   UNL     1      -0.298   9.657  23.483  0.00  0.00    +0.000 NA
ATOM     24  C   UNL     1       0.597   9.603  22.521  0.00  0.00    +0.000 A 
ENDBRANCH  19  20
ENDBRANCH  16  19
ENDBRANCH   1  16
TORSDOF 5
ENDMDL
MODEL 9
REMARK VINA RESULT:      -6.3      3.703      7.443
REMARK  Name = 
REMARK  7 active torsions:
REMARK  status: ('A' for Active; 'I' for Inactive)
REMARK    1  A    between atoms: C_1  and  C_2
REMARK    2  A    between atoms: C_2  and  C_3
REMARK    3  A    between atoms: C_3  and  C_4
REMARK    4  A    between atoms: C_3  and  N_10
REMARK    5  A    between atoms: C_4  and  N_5
REMARK    6  A    between atoms: C_11  and  C_13
REMARK    7  A    between atoms: C_14  and  C_15
REMARK                            x       y       z     vdW  Elec       q    Type
REMARK                         _______ _______ _______ _____ _____    ______ ____
ROOT
ATOM      1  N   UNL     1       1.772   8.393  18.815  0.00  0.00    +0.000 N 
ATOM      2  C   UNL     1       2.094   7.343  19.647  0.00  0.00    +0.000 C 
ATOM      3  O   UNL     1       1.989   7.472  20.868  0.00  0.00    +0.000 OA
ATOM      4  H   UNL     1       1.947   8.296  17.817  0.00  0.00    +0.000 HD
ENDROOT
BRANCH   2   5
ATOM      5  C   UNL     1       2.522   6.078  19.048  0.00  0.00    +0.000 A 
ATOM      6  C   UNL     1       2.035   4.842  19.480  0.00  0.00    +0.000 A 
ATOM      7  C   UNL     1       1.089   4.382  20.525  0.00  0.00    +0.000 C 
ATOM      8  O   UNL     1       2.588   3.816  18.785  0.00  0.00    +0.000 OA
ATOM      9  C   UNL     1       3.443   4.363  17.901  0.00  0.00    +0.000 A 
ATOM     10  C   UNL     1       3.448   5.734  17.994  0.00  0.00    +0.000 A 
ATOM     11  C   UNL     1       4.318   6.490  17.122  0.00  0.00    +0.000 C 
ATOM     12  O   UNL     1       4.334   7.723  17.159  0.00  0.00    +0.000 OA
ATOM     13  C   UNL     1       5.224   5.718  16.159  0.00  0.00    +0.000 C 
ATOM     14  C   UNL     1       5.228   4.176  16.180  0.00  0.00    +0.000 C 
ATOM     15  C   UNL     1       4.208   3.444  17.050  0.00  0.00    +0.000 C 
ENDBRANCH   2   5
BRANCH   1  16
ATOM     16  C   UNL     1       1.312   9.697  19.344  0.00  0.00    +0.000 C 
BRANCH  16  18
ATOM     17  C   UNL     1       1.780  12.217  18.935  0.00  0.00    +0.000 C 
ATOM     18  C   UNL     1       1.693  10.812  18.350  0.00  0.00    +0.000 C 
ENDBRANCH  16  18
BRANCH  16  19
ATOM     19  C   UNL     1      -0.185   9.713  19.748  0.00  0.00    +0.000 C 
BRANCH  19  20
ATOM     20  N   UNL     1      -0.465  10.324  21.030  0.00  0.00    +0.000 N 
ATOM     21  C   UNL     1      -1.013  11.557  21.241  0.00  0.00    +0.000 A 
ATOM     22  C   UNL     1      -0.984  11.732  22.604  0.00  0.00    +0.000 A 
ATOM     23  N   UNL     1      -0.430  10.641  23.222  0.00  0.00    +0.000 NA
ATOM     24  C   UNL     1      -0.115   9.815  22.249  0.00  0.00    +0.000 A 
ENDBRANCH  19  20
ENDBRANCH  16  19
ENDBRANCH   1  16
TORSDOF 5
ENDMDL
