MODEL 1
REMARK VINA RESULT:      -8.0      0.000      0.000
REMARK  Name = 
REMARK  9 active torsions:
REMARK  status: ('A' for Active; 'I' for Inactive)
REMARK    1  A    between atoms: C_1  and  O_2
REMARK    2  A    between atoms: O_2  and  C_3
REMARK    3  A    between atoms: C_6  and  N_7
REMARK    4  A    between atoms: N_10  and  C_11
REMARK    5  A    between atoms: C_11  and  C_12
REMARK    6  A    between atoms: N_16  and  C_17
REMARK    7  A    between atoms: C_17  and  C_18
REMARK    8  A    between atoms: C_26  and  O_27
REMARK    9  A    between atoms: O_27  and  C_28
REMARK                            x       y       z     vdW  Elec       q    Type
REMARK                         _______ _______ _______ _____ _____    ______ ____
ROOT
ATOM      1  N   UNL     1       1.715   8.149  20.768  0.00  0.00    +0.000 N 
ATOM      2  C   UNL     1       1.986   8.056  19.421  0.00  0.00    +0.000 C 
ATOM      3  O   UNL     1       1.598   8.824  18.549  0.00  0.00    +0.000 OA
ATOM      4  N   UNL     1       2.704   6.930  19.090  0.00  0.00    +0.000 N 
ATOM      5  H   UNL     1       2.059   7.404  21.358  0.00  0.00    +0.000 HD
ATOM      6  H   UNL     1       3.355   6.570  19.770  0.00  0.00    +0.000 HD
ENDROOT
BRANCH   1  10
ATOM      7  C   UNL     1      -0.576  11.202  22.634  0.00  0.00    +0.000 A 
ATOM      8  C   UNL     1      -0.577   9.903  23.146  0.00  0.00    +0.000 A 
ATOM      9  C   UNL     1       0.162   8.890  22.538  0.00  0.00    +0.000 A 
ATOM     10  C   UNL     1       0.899   9.132  21.382  0.00  0.00    +0.000 A 
ATOM     11  C   UNL     1       0.840  10.414  20.822  0.00  0.00    +0.000 A 
ATOM     12  C   UNL     1       0.100  11.453  21.429  0.00  0.00    +0.000 A 
BRANCH   7  14
ATOM     13  C   UNL     1      -2.665  12.100  23.300  0.00  0.00    +0.000 C 
ATOM     14  O   UNL     1      -1.243  12.212  23.274  0.00  0.00    +0.000 OA
ENDBRANCH   7  14
BRANCH  12  15
ATOM     15  O   UNL     1       0.162  12.623  20.717  0.00  0.00    +0.000 OA
ATOM     16  C   UNL     1       1.201  13.548  21.008  0.00  0.00    +0.000 C 
ENDBRANCH  12  15
ENDBRANCH   1  10
BRANCH   4  17
ATOM     17  C   UNL     1       3.063   6.766  17.701  0.00  0.00    +0.000 C 
BRANCH  17  18
ATOM     18  C   UNL     1       4.384   6.095  17.608  0.00  0.00    +0.000 A 
ATOM     19  C   UNL     1       5.637   6.683  17.564  0.00  0.00    +0.000 A 
ATOM     20  C   UNL     1       6.594   5.663  17.390  0.00  0.00    +0.000 A 
ATOM     21  C   UNL     1       5.911   4.471  17.334  0.00  0.00    +0.000 A 
ATOM     22  N   UNL     1       4.564   4.729  17.473  0.00  0.00    +0.000 N 
BRANCH  22  23
ATOM     23  C   UNL     1       3.535   3.702  17.313  0.00  0.00    +0.000 C 
BRANCH  23  24
ATOM     24  C   UNL     1       2.838   3.345  18.603  0.00  0.00    +0.000 A 
ATOM     25  C   UNL     1       3.584   2.983  19.737  0.00  0.00    +0.000 A 
ATOM     26  C   UNL     1       2.951   2.703  20.949  0.00  0.00    +0.000 A 
ATOM     27  C   UNL     1       1.568   2.797  21.035  0.00  0.00    +0.000 A 
ATOM     28  F   UNL     1       0.962   2.557  22.205  0.00  0.00    +0.000 F 
ATOM     29  C   UNL     1       0.806   3.149  19.928  0.00  0.00    +0.000 A 
ATOM     30  C   UNL     1       1.438   3.415  18.710  0.00  0.00    +0.000 A 
ENDBRANCH  23  24
ENDBRANCH  22  23
ENDBRANCH  17  18
ENDBRANCH   4  17
TORSDOF 7
ENDMDL
MODEL 2
REMARK VINA RESULT:      -7.9      5.551      7.202
REMARK  Name = 
REMARK  9 active torsions:
REMARK  status: ('A' for Active; 'I' for Inactive)
REMARK    1  A    between atoms: C_1  and  O_2
REMARK    2  A    between atoms: O_2  and  C_3
REMARK    3  A    between atoms: C_6  and  N_7
REMARK    4  A    between atoms: N_10  and  C_11
REMARK    5  A    between atoms: C_11  and  C_12
REMARK    6  A    between atoms: N_16  and  C_17
REMARK    7  A    between atoms: C_17  and  C_18
REMARK    8  A    between atoms: C_26  and  O_27
REMARK    9  A    between atoms: O_27  and  C_28
REMARK                            x       y       z     vdW  Elec       q    Type
REMARK                         _______ _______ _______ _____ _____    ______ ____
ROOT
ATOM      1  N   UNL     1       8.219   9.916  17.533  0.00  0.00    +0.000 N 
ATOM      2  C   UNL     1       8.163   8.609  17.964  0.00  0.00    +0.000 C 
ATOM      3  O   UNL     1       8.670   8.160  18.985  0.00  0.00    +0.000 OA
ATOM      4  N   UNL     1       7.523   7.773  17.078  0.00  0.00    +0.000 N 
ATOM      5  H   UNL     1       7.798  10.122  16.638  0.00  0.00    +0.000 HD
ATOM      6  H   UNL     1       6.781   8.160  16.518  0.00  0.00    +0.000 HD
ENDROOT
BRANCH   1  10
ATOM      7  C   UNL     1      10.367  13.130  19.296  0.00  0.00    +0.000 A 
ATOM      8  C   UNL     1      10.573  11.818  19.729  0.00  0.00    +0.000 A 
ATOM      9  C   UNL     1       9.867  10.756  19.167  0.00  0.00    +0.000 A 
ATOM     10  C   UNL     1       8.912  10.971  18.177  0.00  0.00    +0.000 A 
ATOM     11  C   UNL     1       8.647  12.292  17.796  0.00  0.00    +0.000 A 
ATOM     12  C   UNL     1       9.357  13.379  18.353  0.00  0.00    +0.000 A 
BRANCH   7  14
ATOM     13  C   UNL     1      12.327  14.447  19.105  0.00  0.00    +0.000 C 
ATOM     14  O   UNL     1      11.112  14.162  19.798  0.00  0.00    +0.000 OA
ENDBRANCH   7  14
BRANCH  12  15
ATOM     15  O   UNL     1       8.938  14.586  17.855  0.00  0.00    +0.000 OA
ATOM     16  C   UNL     1       7.930  15.304  18.555  0.00  0.00    +0.000 C 
ENDBRANCH  12  15
ENDBRANCH   1  10
BRANCH   4  17
ATOM     17  C   UNL     1       7.390   6.389  17.463  0.00  0.00    +0.000 C 
BRANCH  17  18
ATOM     18  C   UNL     1       6.723   5.635  16.371  0.00  0.00    +0.000 A 
ATOM     19  C   UNL     1       7.296   5.113  15.223  0.00  0.00    +0.000 A 
ATOM     20  C   UNL     1       6.268   4.554  14.436  0.00  0.00    +0.000 A 
ATOM     21  C   UNL     1       5.088   4.742  15.116  0.00  0.00    +0.000 A 
ATOM     22  N   UNL     1       5.361   5.395  16.299  0.00  0.00    +0.000 N 
BRANCH  22  23
ATOM     23  C   UNL     1       4.318   5.885  17.199  0.00  0.00    +0.000 C 
BRANCH  23  24
ATOM     24  C   UNL     1       3.550   4.780  17.885  0.00  0.00    +0.000 A 
ATOM     25  C   UNL     1       4.214   3.863  18.715  0.00  0.00    +0.000 A 
ATOM     26  C   UNL     1       3.506   2.872  19.395  0.00  0.00    +0.000 A 
ATOM     27  C   UNL     1       2.125   2.803  19.258  0.00  0.00    +0.000 A 
ATOM     28  F   UNL     1       1.441   1.870  19.933  0.00  0.00    +0.000 F 
ATOM     29  C   UNL     1       1.444   3.695  18.439  0.00  0.00    +0.000 A 
ATOM     30  C   UNL     1       2.155   4.679  17.746  0.00  0.00    +0.000 A 
ENDBRANCH  23  24
ENDBRANCH  22  23
ENDBRANCH  17  18
ENDBRANCH   4  17
TORSDOF 7
ENDMDL
MODEL 3
REMARK VINA RESULT:      -7.9      2.133      3.767
REMARK  Name = 
REMARK  9 active torsions:
REMARK  status: ('A' for Active; 'I' for Inactive)
REMARK    1  A    between atoms: C_1  and  O_2
REMARK    2  A    between atoms: O_2  and  C_3
REMARK    3  A    between atoms: C_6  and  N_7
REMARK    4  A    between atoms: N_10  and  C_11
REMARK    5  A    between atoms: C_11  and  C_12
REMARK    6  A    between atoms: N_16  and  C_17
REMARK    7  A    between atoms: C_17  and  C_18
REMARK    8  A    between atoms: C_26  and  O_27
REMARK    9  A    between atoms: O_27  and  C_28
REMARK                            x       y       z     vdW  Elec       q    Type
REMARK                         _______ _______ _______ _____ _____    ______ ____
ROOT
ATOM      1  N   UNL     1       1.585   8.341  21.371  0.00  0.00    +0.000 N 
ATOM      2  C   UNL     1       1.791   7.925  20.075  0.00  0.00    +0.000 C 
ATOM      3  O   UNL     1       1.303   8.422  19.067  0.00  0.00    +0.000 OA
ATOM      4  N   UNL     1       2.572   6.795  19.987  0.00  0.00    +0.000 N 
ATOM      5  H   UNL     1       2.014   7.792  22.103  0.00  0.00    +0.000 HD
ATOM      6  H   UNL     1       3.281   6.657  20.688  0.00  0.00    +0.000 HD
ENDROOT
BRANCH   1  10
ATOM      7  C   UNL     1      -0.815  11.617  22.621  0.00  0.00    +0.000 A 
ATOM      8  C   UNL     1      -0.954  10.366  23.225  0.00  0.00    +0.000 A 
ATOM      9  C   UNL     1      -0.181   9.281  22.818  0.00  0.00    +0.000 A 
ATOM     10  C   UNL     1       0.734   9.400  21.774  0.00  0.00    +0.000 A 
ATOM     11  C   UNL     1       0.820  10.632  21.115  0.00  0.00    +0.000 A 
ATOM     12  C   UNL     1       0.046  11.743  21.519  0.00  0.00    +0.000 A 
BRANCH   7  14
ATOM     13  C   UNL     1      -2.908  12.474  23.326  0.00  0.00    +0.000 C 
ATOM     14  O   UNL     1      -1.522  12.699  23.070  0.00  0.00    +0.000 OA
ENDBRANCH   7  14
BRANCH  12  15
ATOM     15  O   UNL     1       0.270  12.848  20.737  0.00  0.00    +0.000 OA
ATOM     16  C   UNL     1       1.157  13.852  21.208  0.00  0.00    +0.000 C 
ENDBRANCH  12  15
ENDBRANCH   1  10
BRANCH   4  17
ATOM     17  C   UNL     1       2.867   6.304  18.662  0.00  0.00    +0.000 C 
BRANCH  17  18
ATOM     18  C   UNL     1       2.895   4.819  18.681  0.00  0.00    +0.000 A 
ATOM     19  C   UNL     1       2.253   3.966  19.563  0.00  0.00    +0.000 A 
ATOM     20  C   UNL     1       2.635   2.645  19.251  0.00  0.00    +0.000 A 
ATOM     21  C   UNL     1       3.500   2.714  18.185  0.00  0.00    +0.000 A 
ATOM     22  N   UNL     1       3.657   4.037  17.830  0.00  0.00    +0.000 N 
BRANCH  22  23
ATOM     23  C   UNL     1       4.624   4.485  16.827  0.00  0.00    +0.000 C 
BRANCH  23  24
ATOM     24  C   UNL     1       5.714   5.361  17.394  0.00  0.00    +0.000 A 
ATOM     25  C   UNL     1       6.517   4.902  18.452  0.00  0.00    +0.000 A 
ATOM     26  C   UNL     1       7.561   5.684  18.947  0.00  0.00    +0.000 A 
ATOM     27  C   UNL     1       7.817   6.924  18.375  0.00  0.00    +0.000 A 
ATOM     28  F   UNL     1       8.838   7.662  18.830  0.00  0.00    +0.000 F 
ATOM     29  C   UNL     1       7.036   7.403  17.331  0.00  0.00    +0.000 A 
ATOM     30  C   UNL     1       5.980   6.627  16.845  0.00  0.00    +0.000 A 
ENDBRANCH  23  24
ENDBRANCH  22  23
ENDBRANCH  17  18
ENDBRANCH   4  17
TORSDOF 7
ENDMDL
MODEL 4
REMARK VINA RESULT:      -7.9      3.479      8.640
REMARK  Name = 
REMARK  9 active torsions:
REMARK  status: ('A' for Active; 'I' for Inactive)
REMARK    1  A    between atoms: C_1  and  O_2
REMARK    2  A    between atoms: O_2  and  C_3
REMARK    3  A    between atoms: C_6  and  N_7
REMARK    4  A    between atoms: N_10  and  C_11
REMARK    5  A    between atoms: C_11  and  C_12
REMARK    6  A    between atoms: N_16  and  C_17
REMARK    7  A    between atoms: C_17  and  C_18
REMARK    8  A    between atoms: C_26  and  O_27
REMARK    9  A    between atoms: O_27  and  C_28
REMARK                            x       y       z     vdW  Elec       q    Type
REMARK                         _______ _______ _______ _____ _____    ______ ____
ROOT
ATOM      1  N   UNL     1       1.480   6.746  21.173  0.00  0.00    +0.000 N 
ATOM      2  C   UNL     1       1.405   8.035  20.695  0.00  0.00    +0.000 C 
ATOM      3  O   UNL     1       1.614   8.395  19.542  0.00  0.00    +0.000 OA
ATOM      4  N   UNL     1       1.135   8.962  21.676  0.00  0.00    +0.000 N 
ATOM      5  H   UNL     1       1.335   6.616  22.164  0.00  0.00    +0.000 HD
ATOM      6  H   UNL     1       0.567   8.670  22.455  0.00  0.00    +0.000 HD
ENDROOT
BRANCH   1  10
ATOM      7  C   UNL     1       2.605   3.432  18.763  0.00  0.00    +0.000 A 
ATOM      8  C   UNL     1       1.452   3.377  19.550  0.00  0.00    +0.000 A 
ATOM      9  C   UNL     1       1.077   4.453  20.353  0.00  0.00    +0.000 A 
ATOM     10  C   UNL     1       1.856   5.605  20.421  0.00  0.00    +0.000 A 
ATOM     11  C   UNL     1       3.053   5.633  19.694  0.00  0.00    +0.000 A 
ATOM     12  C   UNL     1       3.444   4.552  18.873  0.00  0.00    +0.000 A 
BRANCH   7  14
ATOM     13  C   UNL     1       3.664   1.328  18.506  0.00  0.00    +0.000 C 
ATOM     14  O   UNL     1       2.932   2.404  17.921  0.00  0.00    +0.000 OA
ENDBRANCH   7  14
BRANCH  12  15
ATOM     15  O   UNL     1       4.650   4.773  18.259  0.00  0.00    +0.000 OA
ATOM     16  C   UNL     1       4.661   5.217  16.909  0.00  0.00    +0.000 C 
ENDBRANCH  12  15
ENDBRANCH   1  10
BRANCH   4  17
ATOM     17  C   UNL     1       1.005  10.338  21.260  0.00  0.00    +0.000 C 
BRANCH  17  18
ATOM     18  C   UNL     1      -0.194  10.936  21.900  0.00  0.00    +0.000 A 
ATOM     19  C   UNL     1      -0.775  10.593  23.109  0.00  0.00    +0.000 A 
ATOM     20  C   UNL     1      -1.941  11.369  23.270  0.00  0.00    +0.000 A 
ATOM     21  C   UNL     1      -2.051  12.172  22.160  0.00  0.00    +0.000 A 
ATOM     22  N   UNL     1      -0.985  11.916  21.325  0.00  0.00    +0.000 N 
BRANCH  22  23
ATOM     23  C   UNL     1      -0.866  12.490  19.984  0.00  0.00    +0.000 C 
BRANCH  23  24
ATOM     24  C   UNL     1      -1.543  11.665  18.916  0.00  0.00    +0.000 A 
ATOM     25  C   UNL     1      -0.829  10.671  18.227  0.00  0.00    +0.000 A 
ATOM     26  C   UNL     1      -1.459   9.868  17.276  0.00  0.00    +0.000 A 
ATOM     27  C   UNL     1      -2.812  10.047  17.020  0.00  0.00    +0.000 A 
ATOM     28  F   UNL     1      -3.425   9.258  16.128  0.00  0.00    +0.000 F 
ATOM     29  C   UNL     1      -3.541  11.026  17.684  0.00  0.00    +0.000 A 
ATOM     30  C   UNL     1      -2.907  11.840  18.627  0.00  0.00    +0.000 A 
ENDBRANCH  23  24
ENDBRANCH  22  23
ENDBRANCH  17  18
ENDBRANCH   4  17
TORSDOF 7
ENDMDL
MODEL 5
REMARK VINA RESULT:      -7.8      2.301      3.972
REMARK  Name = 
REMARK  9 active torsions:
REMARK  status: ('A' for Active; 'I' for Inactive)
REMARK    1  A    between atoms: C_1  and  O_2
REMARK    2  A    between atoms: O_2  and  C_3
REMARK    3  A    between atoms: C_6  and  N_7
REMARK    4  A    between atoms: N_10  and  C_11
REMARK    5  A    between atoms: C_11  and  C_12
REMARK    6  A    between atoms: N_16  and  C_17
REMARK    7  A    between atoms: C_17  and  C_18
REMARK    8  A    between atoms: C_26  and  O_27
REMARK    9  A    between atoms: O_27  and  C_28
REMARK                            x       y       z     vdW  Elec       q    Type
REMARK                         _______ _______ _______ _____ _____    ______ ____
ROOT
ATOM      1  N   UNL     1       1.246   8.035  21.445  0.00  0.00    +0.000 N 
ATOM      2  C   UNL     1       1.831   7.727  20.238  0.00  0.00    +0.000 C 
ATOM      3  O   UNL     1       1.770   8.393  19.211  0.00  0.00    +0.000 OA
ATOM      4  N   UNL     1       2.466   6.506  20.239  0.00  0.00    +0.000 N 
ATOM      5  H   UNL     1       1.339   7.355  22.187  0.00  0.00    +0.000 HD
ATOM      6  H   UNL     1       2.877   6.191  21.103  0.00  0.00    +0.000 HD
ENDROOT
BRANCH   1  10
ATOM      7  C   UNL     1      -1.051  11.531  22.195  0.00  0.00    +0.000 A 
ATOM      8  C   UNL     1      -0.950  10.529  23.162  0.00  0.00    +0.000 A 
ATOM      9  C   UNL     1      -0.209   9.372  22.925  0.00  0.00    +0.000 A 
ATOM     10  C   UNL     1       0.430   9.165  21.706  0.00  0.00    +0.000 A 
ATOM     11  C   UNL     1       0.266  10.131  20.706  0.00  0.00    +0.000 A 
ATOM     12  C   UNL     1      -0.478  11.310  20.932  0.00  0.00    +0.000 A 
BRANCH   7  14
ATOM     13  C   UNL     1      -0.930  13.758  22.993  0.00  0.00    +0.000 C 
ATOM     14  O   UNL     1      -1.718  12.697  22.456  0.00  0.00    +0.000 OA
ENDBRANCH   7  14
BRANCH  12  15
ATOM     15  O   UNL     1      -0.526  12.118  19.825  0.00  0.00    +0.000 OA
ATOM     16  C   UNL     1      -1.636  12.009  18.944  0.00  0.00    +0.000 C 
ENDBRANCH  12  15
ENDBRANCH   1  10
BRANCH   4  17
ATOM     17  C   UNL     1       3.136   6.114  19.022  0.00  0.00    +0.000 C 
BRANCH  17  18
ATOM     18  C   UNL     1       3.168   4.632  18.932  0.00  0.00    +0.000 A 
ATOM     19  C   UNL     1       2.644   3.713  19.826  0.00  0.00    +0.000 A 
ATOM     20  C   UNL     1       2.985   2.421  19.376  0.00  0.00    +0.000 A 
ATOM     21  C   UNL     1       3.708   2.573  18.216  0.00  0.00    +0.000 A 
ATOM     22  N   UNL     1       3.817   3.919  17.939  0.00  0.00    +0.000 N 
BRANCH  22  23
ATOM     23  C   UNL     1       4.648   4.446  16.857  0.00  0.00    +0.000 C 
BRANCH  23  24
ATOM     24  C   UNL     1       5.793   5.302  17.342  0.00  0.00    +0.000 A 
ATOM     25  C   UNL     1       5.970   6.602  16.841  0.00  0.00    +0.000 A 
ATOM     26  C   UNL     1       6.993   7.420  17.322  0.00  0.00    +0.000 A 
ATOM     27  C   UNL     1       7.837   6.944  18.317  0.00  0.00    +0.000 A 
ATOM     28  F   UNL     1       8.802   7.739  18.799  0.00  0.00    +0.000 F 
ATOM     29  C   UNL     1       7.687   5.661  18.826  0.00  0.00    +0.000 A 
ATOM     30  C   UNL     1       6.672   4.835  18.335  0.00  0.00    +0.000 A 
ENDBRANCH  23  24
ENDBRANCH  22  23
ENDBRANCH  17  18
ENDBRANCH   4  17
TORSDOF 7
ENDMDL
MODEL 6
REMARK VINA RESULT:      -7.8      3.489      8.668
REMARK  Name = 
REMARK  9 active torsions:
REMARK  status: ('A' for Active; 'I' for Inactive)
REMARK    1  A    between atoms: C_1  and  O_2
REMARK    2  A    between atoms: O_2  and  C_3
REMARK    3  A    between atoms: C_6  and  N_7
REMARK    4  A    between atoms: N_10  and  C_11
REMARK    5  A    between atoms: C_11  and  C_12
REMARK    6  A    between atoms: N_16  and  C_17
REMARK    7  A    between atoms: C_17  and  C_18
REMARK    8  A    between atoms: C_26  and  O_27
REMARK    9  A    between atoms: O_27  and  C_28
REMARK                            x       y       z     vdW  Elec       q    Type
REMARK                         _______ _______ _______ _____ _____    ______ ____
ROOT
ATOM      1  N   UNL     1       1.610   7.162  21.057  0.00  0.00    +0.000 N 
ATOM      2  C   UNL     1       1.389   8.431  20.569  0.00  0.00    +0.000 C 
ATOM      3  O   UNL     1       1.418   8.771  19.392  0.00  0.00    +0.000 OA
ATOM      4  N   UNL     1       1.194   9.366  21.560  0.00  0.00    +0.000 N 
ATOM      5  H   UNL     1       1.608   7.050  22.061  0.00  0.00    +0.000 HD
ATOM      6  H   UNL     1       0.757   9.062  22.415  0.00  0.00    +0.000 HD
ENDROOT
BRANCH   1  10
ATOM      7  C   UNL     1       2.581   3.848  18.582  0.00  0.00    +0.000 A 
ATOM      8  C   UNL     1       1.692   3.699  19.648  0.00  0.00    +0.000 A 
ATOM      9  C   UNL     1       1.373   4.775  20.475  0.00  0.00    +0.000 A 
ATOM     10  C   UNL     1       1.954   6.026  20.282  0.00  0.00    +0.000 A 
ATOM     11  C   UNL     1       2.904   6.159  19.263  0.00  0.00    +0.000 A 
ATOM     12  C   UNL     1       3.235   5.079  18.415  0.00  0.00    +0.000 A 
BRANCH   7  14
ATOM     13  C   UNL     1       3.482   1.674  18.305  0.00  0.00    +0.000 C 
ATOM     14  O   UNL     1       2.838   2.809  17.728  0.00  0.00    +0.000 OA
ENDBRANCH   7  14
BRANCH  12  15
ATOM     15  O   UNL     1       4.194   5.414  17.492  0.00  0.00    +0.000 OA
ATOM     16  C   UNL     1       5.551   5.096  17.769  0.00  0.00    +0.000 C 
ENDBRANCH  12  15
ENDBRANCH   1  10
BRANCH   4  17
ATOM     17  C   UNL     1       0.923  10.720  21.140  0.00  0.00    +0.000 C 
BRANCH  17  18
ATOM     18  C   UNL     1      -0.313  11.205  21.806  0.00  0.00    +0.000 A 
ATOM     19  C   UNL     1      -0.807  10.846  23.049  0.00  0.00    +0.000 A 
ATOM     20  C   UNL     1      -2.047  11.493  23.231  0.00  0.00    +0.000 A 
ATOM     21  C   UNL     1      -2.287  12.235  22.099  0.00  0.00    +0.000 A 
ATOM     22  N   UNL     1      -1.230  12.067  21.230  0.00  0.00    +0.000 N 
BRANCH  22  23
ATOM     23  C   UNL     1      -1.225  12.598  19.867  0.00  0.00    +0.000 C 
BRANCH  23  24
ATOM     24  C   UNL     1      -1.850  11.664  18.858  0.00  0.00    +0.000 A 
ATOM     25  C   UNL     1      -3.226  11.730  18.586  0.00  0.00    +0.000 A 
ATOM     26  C   UNL     1      -3.802  10.909  17.616  0.00  0.00    +0.000 A 
ATOM     27  C   UNL     1      -3.000  10.026  16.904  0.00  0.00    +0.000 A 
ATOM     28  F   UNL     1      -3.547   9.258  15.953  0.00  0.00    +0.000 F 
ATOM     29  C   UNL     1      -1.637   9.938  17.156  0.00  0.00    +0.000 A 
ATOM     30  C   UNL     1      -1.061  10.750  18.137  0.00  0.00    +0.000 A 
ENDBRANCH  23  24
ENDBRANCH  22  23
ENDBRANCH  17  18
ENDBRANCH   4  17
TORSDOF 7
ENDMDL
MODEL 7
REMARK VINA RESULT:      -7.8      1.413      1.881
REMARK  Name = 
REMARK  9 active torsions:
REMARK  status: ('A' for Active; 'I' for Inactive)
REMARK    1  A    between atoms: C_1  and  O_2
REMARK    2  A    between atoms: O_2  and  C_3
REMARK    3  A    between atoms: C_6  and  N_7
REMARK    4  A    between atoms: N_10  and  C_11
REMARK    5  A    between atoms: C_11  and  C_12
REMARK    6  A    between atoms: N_16  and  C_17
REMARK    7  A    between atoms: C_17  and  C_18
REMARK    8  A    between atoms: C_26  and  O_27
REMARK    9  A    between atoms: O_27  and  C_28
REMARK                            x       y       z     vdW  Elec       q    Type
REMARK                         _______ _______ _______ _____ _____    ______ ____
ROOT
ATOM      1  N   UNL     1       1.507   8.871  19.410  0.00  0.00    +0.000 N 
ATOM      2  C   UNL     1       2.197   8.632  18.243  0.00  0.00    +0.000 C 
ATOM      3  O   UNL     1       2.163   9.316  17.227  0.00  0.00    +0.000 OA
ATOM      4  N   UNL     1       2.914   7.458  18.269  0.00  0.00    +0.000 N 
ATOM      5  H   UNL     1       1.594   8.182  20.144  0.00  0.00    +0.000 HD
ATOM      6  H   UNL     1       3.283   7.151  19.155  0.00  0.00    +0.000 HD
ENDROOT
BRANCH   1  10
ATOM      7  C   UNL     1      -1.236  12.006  20.249  0.00  0.00    +0.000 A 
ATOM      8  C   UNL     1      -1.504  11.082  19.237  0.00  0.00    +0.000 A 
ATOM      9  C   UNL     1      -0.608  10.055  18.945  0.00  0.00    +0.000 A 
ATOM     10  C   UNL     1       0.597   9.936  19.631  0.00  0.00    +0.000 A 
ATOM     11  C   UNL     1       0.905  10.906  20.592  0.00  0.00    +0.000 A 
ATOM     12  C   UNL     1       0.006  11.950  20.903  0.00  0.00    +0.000 A 
BRANCH   7  14
ATOM     13  C   UNL     1      -3.499  12.707  20.202  0.00  0.00    +0.000 C 
ATOM     14  O   UNL     1      -2.149  12.969  20.584  0.00  0.00    +0.000 OA
ENDBRANCH   7  14
BRANCH  12  15
ATOM     15  O   UNL     1       0.501  12.798  21.860  0.00  0.00    +0.000 OA
ATOM     16  C   UNL     1       1.021  14.058  21.457  0.00  0.00    +0.000 C 
ENDBRANCH  12  15
ENDBRANCH   1  10
BRANCH   4  17
ATOM     17  C   UNL     1       3.695   7.141  17.097  0.00  0.00    +0.000 C 
BRANCH  17  18
ATOM     18  C   UNL     1       4.875   6.331  17.495  0.00  0.00    +0.000 A 
ATOM     19  C   UNL     1       6.184   6.754  17.650  0.00  0.00    +0.000 A 
ATOM     20  C   UNL     1       6.976   5.627  17.953  0.00  0.00    +0.000 A 
ATOM     21  C   UNL     1       6.137   4.537  17.979  0.00  0.00    +0.000 A 
ATOM     22  N   UNL     1       4.854   4.963  17.706  0.00  0.00    +0.000 N 
BRANCH  22  23
ATOM     23  C   UNL     1       3.733   4.044  17.510  0.00  0.00    +0.000 C 
BRANCH  23  24
ATOM     24  C   UNL     1       2.995   3.717  18.785  0.00  0.00    +0.000 A 
ATOM     25  C   UNL     1       1.643   4.067  18.933  0.00  0.00    +0.000 A 
ATOM     26  C   UNL     1       0.937   3.721  20.086  0.00  0.00    +0.000 A 
ATOM     27  C   UNL     1       1.579   3.012  21.093  0.00  0.00    +0.000 A 
ATOM     28  F   UNL     1       0.895   2.654  22.187  0.00  0.00    +0.000 F 
ATOM     29  C   UNL     1       2.917   2.657  20.974  0.00  0.00    +0.000 A 
ATOM     30  C   UNL     1       3.628   3.015  19.825  0.00  0.00    +0.000 A 
ENDBRANCH  23  24
ENDBRANCH  22  23
ENDBRANCH  17  18
ENDBRANCH   4  17
TORSDOF 7
ENDMDL
MODEL 8
REMARK VINA RESULT:      -7.8      0.882      1.268
REMARK  Name = 
REMARK  9 active torsions:
REMARK  status: ('A' for Active; 'I' for Inactive)
REMARK    1  A    between atoms: C_1  and  O_2
REMARK    2  A    between atoms: O_2  and  C_3
REMARK    3  A    between atoms: C_6  and  N_7
REMARK    4  A    between atoms: N_10  and  C_11
REMARK    5  A    between atoms: C_11  and  C_12
REMARK    6  A    between atoms: N_16  and  C_17
REMARK    7  A    between atoms: C_17  and  C_18
REMARK    8  A    between atoms: C_26  and  O_27
REMARK    9  A    between atoms: O_27  and  C_28
REMARK                            x       y       z     vdW  Elec       q    Type
REMARK                         _______ _______ _______ _____ _____    ______ ____
ROOT
ATOM      1  N   UNL     1       1.828   8.038  20.521  0.00  0.00    +0.000 N 
ATOM      2  C   UNL     1       2.156   7.957  19.186  0.00  0.00    +0.000 C 
ATOM      3  O   UNL     1       1.725   8.672  18.289  0.00  0.00    +0.000 OA
ATOM      4  N   UNL     1       2.995   6.906  18.898  0.00  0.00    +0.000 N 
ATOM      5  H   UNL     1       2.224   7.339  21.134  0.00  0.00    +0.000 HD
ATOM      6  H   UNL     1       3.653   6.621  19.606  0.00  0.00    +0.000 HD
ENDROOT
BRANCH   1  10
ATOM      7  C   UNL     1      -0.867  10.887  22.157  0.00  0.00    +0.000 A 
ATOM      8  C   UNL     1      -0.207   9.979  22.987  0.00  0.00    +0.000 A 
ATOM      9  C   UNL     1       0.671   9.032  22.462  0.00  0.00    +0.000 A 
ATOM     10  C   UNL     1       0.896   8.941  21.091  0.00  0.00    +0.000 A 
ATOM     11  C   UNL     1       0.177   9.799  20.250  0.00  0.00    +0.000 A 
ATOM     12  C   UNL     1      -0.713  10.766  20.767  0.00  0.00    +0.000 A 
BRANCH   7  14
ATOM     13  C   UNL     1      -1.038  13.110  22.960  0.00  0.00    +0.000 C 
ATOM     14  O   UNL     1      -1.672  11.862  22.680  0.00  0.00    +0.000 OA
ENDBRANCH   7  14
BRANCH  12  15
ATOM     15  O   UNL     1      -1.324  11.495  19.778  0.00  0.00    +0.000 OA
ATOM     16  C   UNL     1      -0.644  12.617  19.234  0.00  0.00    +0.000 C 
ENDBRANCH  12  15
ENDBRANCH   1  10
BRANCH   4  17
ATOM     17  C   UNL     1       3.418   6.763  17.525  0.00  0.00    +0.000 C 
BRANCH  17  18
ATOM     18  C   UNL     1       4.736   6.077  17.484  0.00  0.00    +0.000 A 
ATOM     19  C   UNL     1       5.994   6.653  17.452  0.00  0.00    +0.000 A 
ATOM     20  C   UNL     1       6.946   5.620  17.332  0.00  0.00    +0.000 A 
ATOM     21  C   UNL     1       6.253   4.432  17.294  0.00  0.00    +0.000 A 
ATOM     22  N   UNL     1       4.905   4.706  17.392  0.00  0.00    +0.000 N 
BRANCH  22  23
ATOM     23  C   UNL     1       3.870   3.685  17.238  0.00  0.00    +0.000 C 
BRANCH  23  24
ATOM     24  C   UNL     1       3.083   3.432  18.501  0.00  0.00    +0.000 A 
ATOM     25  C   UNL     1       1.679   3.481  18.485  0.00  0.00    +0.000 A 
ATOM     26  C   UNL     1       0.942   3.196  19.634  0.00  0.00    +0.000 A 
ATOM     27  C   UNL     1       1.606   2.847  20.803  0.00  0.00    +0.000 A 
ATOM     28  F   UNL     1       0.897   2.545  21.899  0.00  0.00    +0.000 F 
ATOM     29  C   UNL     1       2.993   2.795  20.847  0.00  0.00    +0.000 A 
ATOM     30  C   UNL     1       3.733   3.094  19.700  0.00  0.00    +0.000 A 
ENDBRANCH  23  24
ENDBRANCH  22  23
ENDBRANCH  17  18
ENDBRANCH   4  17
TORSDOF 7
ENDMDL
MODEL 9
REMARK VINA RESULT:      -7.8      4.232      8.771
REMARK  Name = 
REMARK  9 active torsions:
REMARK  status: ('A' for Active; 'I' for Inactive)
REMARK    1  A    between atoms: C_1  and  O_2
REMARK    2  A    between atoms: O_2  and  C_3
REMARK    3  A    between atoms: C_6  and  N_7
REMARK    4  A    between atoms: N_10  and  C_11
REMARK    5  A    between atoms: C_11  and  C_12
REMARK    6  A    between atoms: N_16  and  C_17
REMARK    7  A    between atoms: C_17  and  C_18
REMARK    8  A    between atoms: C_26  and  O_27
REMARK    9  A    between atoms: O_27  and  C_28
REMARK                            x       y       z     vdW  Elec       q    Type
REMARK                         _______ _______ _______ _____ _____    ______ ____
ROOT
ATOM      1  N   UNL     1       2.166   7.446  19.230  0.00  0.00    +0.000 N 
ATOM      2  C   UNL     1       1.594   8.289  20.157  0.00  0.00    +0.000 C 
ATOM      3  O   UNL     1       1.388   8.035  21.337  0.00  0.00    +0.000 OA
ATOM      4  N   UNL     1       1.176   9.484  19.617  0.00  0.00    +0.000 N 
ATOM      5  H   UNL     1       2.219   7.780  18.277  0.00  0.00    +0.000 HD
ATOM      6  H   UNL     1       1.695   9.855  18.837  0.00  0.00    +0.000 HD
ENDROOT
BRANCH   1  10
ATOM      7  C   UNL     1       3.463   3.436  19.768  0.00  0.00    +0.000 A 
ATOM      8  C   UNL     1       2.146   3.799  20.057  0.00  0.00    +0.000 A 
ATOM      9  C   UNL     1       1.711   5.113  19.895  0.00  0.00    +0.000 A 
ATOM     10  C   UNL     1       2.582   6.112  19.469  0.00  0.00    +0.000 A 
ATOM     11  C   UNL     1       3.921   5.767  19.254  0.00  0.00    +0.000 A 
ATOM     12  C   UNL     1       4.377   4.439  19.409  0.00  0.00    +0.000 A 
BRANCH   7  14
ATOM     13  C   UNL     1       3.706   1.347  18.677  0.00  0.00    +0.000 C 
ATOM     14  O   UNL     1       3.870   2.132  19.857  0.00  0.00    +0.000 OA
ENDBRANCH   7  14
BRANCH  12  15
ATOM     15  O   UNL     1       5.721   4.316  19.162  0.00  0.00    +0.000 OA
ATOM     16  C   UNL     1       6.197   4.528  17.840  0.00  0.00    +0.000 C 
ENDBRANCH  12  15
ENDBRANCH   1  10
BRANCH   4  17
ATOM     17  C   UNL     1       0.593  10.444  20.523  0.00  0.00    +0.000 C 
BRANCH  17  18
ATOM     18  C   UNL     1       0.485  11.761  19.844  0.00  0.00    +0.000 A 
ATOM     19  C   UNL     1       1.487  12.690  19.625  0.00  0.00    +0.000 A 
ATOM     20  C   UNL     1       0.908  13.825  19.022  0.00  0.00    +0.000 A 
ATOM     21  C   UNL     1      -0.436  13.569  18.882  0.00  0.00    +0.000 A 
ATOM     22  N   UNL     1      -0.697  12.309  19.377  0.00  0.00    +0.000 N 
BRANCH  22  23
ATOM     23  C   UNL     1      -2.050  11.773  19.519  0.00  0.00    +0.000 C 
BRANCH  23  24
ATOM     24  C   UNL     1      -2.630  11.255  18.224  0.00  0.00    +0.000 A 
ATOM     25  C   UNL     1      -3.884  11.703  17.778  0.00  0.00    +0.000 A 
ATOM     26  C   UNL     1      -4.404  11.271  16.558  0.00  0.00    +0.000 A 
ATOM     27  C   UNL     1      -3.664  10.399  15.770  0.00  0.00    +0.000 A 
ATOM     28  F   UNL     1      -4.149  10.006  14.585  0.00  0.00    +0.000 F 
ATOM     29  C   UNL     1      -2.422   9.938  16.189  0.00  0.00    +0.000 A 
ATOM     30  C   UNL     1      -1.907  10.358  17.419  0.00  0.00    +0.000 A 
ENDBRANCH  23  24
ENDBRANCH  22  23
ENDBRANCH  17  18
ENDBRANCH   4  17
TORSDOF 7
ENDMDL
