MODEL 1
REMARK VINA RESULT:      -8.9      0.000      0.000
REMARK  Name = 
REMARK  7 active torsions:
REMARK  status: ('A' for Active; 'I' for Inactive)
REMARK    1  A    between atoms: C_1  and  C_2
REMARK    2  A    between atoms: C_4  and  N_5
REMARK    3  A    between atoms: C_6  and  C_7
REMARK    4  A    between atoms: C_7  and  C_9
REMARK    5  A    between atoms: C_16  and  C_17
REMARK    6  A    between atoms: C_17  and  N_18
REMARK    7  A    between atoms: N_21  and  C_22
REMARK                            x       y       z     vdW  Elec       q    Type
REMARK                         _______ _______ _______ _____ _____    ______ ____
ROOT
ATOM      1  C   UNL     1       0.478   3.485  19.504  0.00  0.00    +0.000 C 
ATOM      2  C   UNL     1       1.942   3.290  19.285  0.00  0.00    +0.000 A 
ATOM      3  S   UNL     1       2.634   1.826  19.792  0.00  0.00    +0.000 S 
ATOM      4  C   UNL     1       4.215   2.422  19.606  0.00  0.00    +0.000 A 
ATOM      5  C   UNL     1       4.246   3.644  18.935  0.00  0.00    +0.000 A 
ATOM      6  C   UNL     1       2.874   4.153  18.708  0.00  0.00    +0.000 A 
ENDROOT
BRANCH   4   7
ATOM      7  N   UNL     1       5.212   1.660  20.115  0.00  0.00    +0.000 N 
ATOM      8  H   UNL     1       5.078   1.303  21.057  0.00  0.00    +0.000 HD
ATOM      9  H   UNL     1       6.185   1.896  19.936  0.00  0.00    +0.000 HD
ENDBRANCH   4   7
BRANCH   5  10
ATOM     10  C   UNL     1       5.488   4.362  18.578  0.00  0.00    +0.000 C 
ATOM     11  O   UNL     1       6.241   4.830  19.431  0.00  0.00    +0.000 OA
BRANCH  10  12
ATOM     12  C   UNL     1       5.905   4.512  17.149  0.00  0.00    +0.000 A 
ATOM     13  C   UNL     1       6.985   5.352  16.840  0.00  0.00    +0.000 A 
ATOM     14  C   UNL     1       7.436   5.472  15.518  0.00  0.00    +0.000 A 
ATOM     15  C   UNL     1       6.805   4.749  14.504  0.00  0.00    +0.000 A 
ATOM     16 CL   UNL     1       7.371   4.871  12.885  0.00  0.00    +0.000 Cl
ATOM     17  C   UNL     1       5.719   3.926  14.798  0.00  0.00    +0.000 A 
ATOM     18  C   UNL     1       5.257   3.820  16.115  0.00  0.00    +0.000 A 
ENDBRANCH  10  12
ENDBRANCH   5  10
BRANCH   6  19
ATOM     19  C   UNL     1       2.472   5.436  17.965  0.00  0.00    +0.000 C 
BRANCH  19  20
ATOM     20  N   UNL     1       3.091   6.597  18.616  0.00  0.00    +0.000 NA
ATOM     21  C   UNL     1       3.094   7.816  17.798  0.00  0.00    +0.000 C 
ATOM     22  C   UNL     1       1.840   8.717  17.914  0.00  0.00    +0.000 C 
ATOM     23  N   UNL     1       1.504   9.049  19.318  0.00  0.00    +0.000 N 
ATOM     24  C   UNL     1       1.538   7.910  20.261  0.00  0.00    +0.000 C 
ATOM     25  C   UNL     1       2.675   6.885  19.991  0.00  0.00    +0.000 C 
BRANCH  23  26
ATOM     26  C   UNL     1       0.454   9.958  19.548  0.00  0.00    +0.000 A 
ATOM     27  C   UNL     1      -0.412  10.311  18.492  0.00  0.00    +0.000 A 
ATOM     28  C   UNL     1      -1.496  11.184  18.670  0.00  0.00    +0.000 A 
ATOM     29  C   UNL     1      -1.753  11.732  19.924  0.00  0.00    +0.000 A 
ATOM     30 CL   UNL     1      -3.121  12.778  20.087  0.00  0.00    +0.000 Cl
ATOM     31  C   UNL     1      -0.911  11.408  20.990  0.00  0.00    +0.000 A 
ATOM     32 CL   UNL     1      -1.150  12.069  22.573  0.00  0.00    +0.000 Cl
ATOM     33  C   UNL     1       0.171  10.529  20.803  0.00  0.00    +0.000 A 
ENDBRANCH  23  26
ENDBRANCH  19  20
ENDBRANCH   6  19
TORSDOF 6
ENDMDL
MODEL 2
REMARK VINA RESULT:      -8.6      1.872      2.491
REMARK  Name = 
REMARK  7 active torsions:
REMARK  status: ('A' for Active; 'I' for Inactive)
REMARK    1  A    between atoms: C_1  and  C_2
REMARK    2  A    between atoms: C_4  and  N_5
REMARK    3  A    between atoms: C_6  and  C_7
REMARK    4  A    between atoms: C_7  and  C_9
REMARK    5  A    between atoms: C_16  and  C_17
REMARK    6  A    between atoms: C_17  and  N_18
REMARK    7  A    between atoms: N_21  and  C_22
REMARK                            x       y       z     vdW  Elec       q    Type
REMARK                         _______ _______ _______ _____ _____    ______ ____
ROOT
ATOM      1  C   UNL     1       0.923   4.612  20.688  0.00  0.00    +0.000 C 
ATOM      2  C   UNL     1       2.079   4.038  19.938  0.00  0.00    +0.000 A 
ATOM      3  S   UNL     1       2.723   2.563  20.476  0.00  0.00    +0.000 S 
ATOM      4  C   UNL     1       4.103   2.722  19.496  0.00  0.00    +0.000 A 
ATOM      5  C   UNL     1       3.985   3.764  18.577  0.00  0.00    +0.000 A 
ATOM      6  C   UNL     1       2.746   4.539  18.819  0.00  0.00    +0.000 A 
ENDROOT
BRANCH   4   7
ATOM      7  N   UNL     1       5.110   1.846  19.723  0.00  0.00    +0.000 N 
ATOM      8  H   UNL     1       4.861   0.972  20.180  0.00  0.00    +0.000 HD
ATOM      9  H   UNL     1       6.026   2.176  20.016  0.00  0.00    +0.000 HD
ENDBRANCH   4   7
BRANCH   5  10
ATOM     10  C   UNL     1       5.005   4.091  17.559  0.00  0.00    +0.000 C 
ATOM     11  O   UNL     1       5.072   3.495  16.484  0.00  0.00    +0.000 OA
BRANCH  10  12
ATOM     12  C   UNL     1       5.979   5.205  17.778  0.00  0.00    +0.000 A 
ATOM     13  C   UNL     1       5.904   6.345  16.966  0.00  0.00    +0.000 A 
ATOM     14  C   UNL     1       6.767   7.429  17.181  0.00  0.00    +0.000 A 
ATOM     15  C   UNL     1       7.706   7.371  18.211  0.00  0.00    +0.000 A 
ATOM     16 CL   UNL     1       8.749   8.708  18.497  0.00  0.00    +0.000 Cl
ATOM     17  C   UNL     1       7.802   6.234  19.012  0.00  0.00    +0.000 A 
ATOM     18  C   UNL     1       6.953   5.145  18.786  0.00  0.00    +0.000 A 
ENDBRANCH  10  12
ENDBRANCH   5  10
BRANCH   6  19
ATOM     19  C   UNL     1       2.222   5.730  18.002  0.00  0.00    +0.000 C 
BRANCH  19  20
ATOM     20  N   UNL     1       2.826   6.971  18.500  0.00  0.00    +0.000 NA
ATOM     21  C   UNL     1       2.678   8.118  17.595  0.00  0.00    +0.000 C 
ATOM     22  C   UNL     1       1.387   8.957  17.765  0.00  0.00    +0.000 C 
ATOM     23  N   UNL     1       1.164   9.383  19.166  0.00  0.00    +0.000 N 
ATOM     24  C   UNL     1       1.357   8.328  20.185  0.00  0.00    +0.000 C 
ATOM     25  C   UNL     1       2.524   7.347  19.883  0.00  0.00    +0.000 C 
BRANCH  23  26
ATOM     26  C   UNL     1       0.087  10.249  19.430  0.00  0.00    +0.000 A 
ATOM     27  C   UNL     1       0.064  10.996  20.626  0.00  0.00    +0.000 A 
ATOM     28  C   UNL     1      -0.966  11.901  20.927  0.00  0.00    +0.000 A 
ATOM     29  C   UNL     1      -2.014  12.091  20.030  0.00  0.00    +0.000 A 
ATOM     30 CL   UNL     1      -3.238  13.239  20.443  0.00  0.00    +0.000 Cl
ATOM     31  C   UNL     1      -2.025  11.361  18.839  0.00  0.00    +0.000 A 
ATOM     32 CL   UNL     1      -3.306  11.523  17.684  0.00  0.00    +0.000 Cl
ATOM     33  C   UNL     1      -0.986  10.460  18.544  0.00  0.00    +0.000 A 
ENDBRANCH  23  26
ENDBRANCH  19  20
ENDBRANCH   6  19
TORSDOF 6
ENDMDL
MODEL 3
REMARK VINA RESULT:      -8.5      0.873      1.422
REMARK  Name = 
REMARK  7 active torsions:
REMARK  status: ('A' for Active; 'I' for Inactive)
REMARK    1  A    between atoms: C_1  and  C_2
REMARK    2  A    between atoms: C_4  and  N_5
REMARK    3  A    between atoms: C_6  and  C_7
REMARK    4  A    between atoms: C_7  and  C_9
REMARK    5  A    between atoms: C_16  and  C_17
REMARK    6  A    between atoms: C_17  and  N_18
REMARK    7  A    between atoms: N_21  and  C_22
REMARK                            x       y       z     vdW  Elec       q    Type
REMARK                         _______ _______ _______ _____ _____    ______ ____
ROOT
ATOM      1  C   UNL     1       0.247   3.362  19.544  0.00  0.00    +0.000 C 
ATOM      2  C   UNL     1       1.724   3.337  19.327  0.00  0.00    +0.000 A 
ATOM      3  S   UNL     1       2.558   1.908  19.699  0.00  0.00    +0.000 S 
ATOM      4  C   UNL     1       4.072   2.675  19.592  0.00  0.00    +0.000 A 
ATOM      5  C   UNL     1       3.982   3.953  19.043  0.00  0.00    +0.000 A 
ATOM      6  C   UNL     1       2.566   4.342  18.848  0.00  0.00    +0.000 A 
ENDROOT
BRANCH   4   7
ATOM      7  N   UNL     1       5.139   1.971  20.039  0.00  0.00    +0.000 N 
ATOM      8  H   UNL     1       5.859   1.751  19.356  0.00  0.00    +0.000 HD
ATOM      9  H   UNL     1       5.017   1.221  20.714  0.00  0.00    +0.000 HD
ENDBRANCH   4   7
BRANCH   5  10
ATOM     10  C   UNL     1       5.145   4.824  18.774  0.00  0.00    +0.000 C 
ATOM     11  O   UNL     1       5.711   5.454  19.667  0.00  0.00    +0.000 OA
BRANCH  10  12
ATOM     12  C   UNL     1       5.715   4.940  17.395  0.00  0.00    +0.000 A 
ATOM     13  C   UNL     1       7.029   4.508  17.164  0.00  0.00    +0.000 A 
ATOM     14  C   UNL     1       7.575   4.552  15.873  0.00  0.00    +0.000 A 
ATOM     15  C   UNL     1       6.803   5.029  14.813  0.00  0.00    +0.000 A 
ATOM     16 CL   UNL     1       7.457   5.061  13.223  0.00  0.00    +0.000 Cl
ATOM     17  C   UNL     1       5.502   5.479  15.036  0.00  0.00    +0.000 A 
ATOM     18  C   UNL     1       4.964   5.452  16.327  0.00  0.00    +0.000 A 
ENDBRANCH  10  12
ENDBRANCH   5  10
BRANCH   6  19
ATOM     19  C   UNL     1       2.038   5.644  18.227  0.00  0.00    +0.000 C 
BRANCH  19  20
ATOM     20  N   UNL     1       2.674   6.794  18.881  0.00  0.00    +0.000 NA
ATOM     21  C   UNL     1       2.727   8.005  18.052  0.00  0.00    +0.000 C 
ATOM     22  C   UNL     1       1.494   8.940  18.134  0.00  0.00    +0.000 C 
ATOM     23  N   UNL     1       1.139   9.294  19.527  0.00  0.00    +0.000 N 
ATOM     24  C   UNL     1       1.124   8.163  20.481  0.00  0.00    +0.000 C 
ATOM     25  C   UNL     1       2.238   7.106  20.244  0.00  0.00    +0.000 C 
BRANCH  23  26
ATOM     26  C   UNL     1       0.109  10.232  19.728  0.00  0.00    +0.000 A 
ATOM     27  C   UNL     1       0.120  11.048  20.879  0.00  0.00    +0.000 A 
ATOM     28  C   UNL     1      -0.861  12.024  21.116  0.00  0.00    +0.000 A 
ATOM     29  C   UNL     1      -1.890  12.218  20.197  0.00  0.00    +0.000 A 
ATOM     30 CL   UNL     1      -3.051  13.455  20.530  0.00  0.00    +0.000 Cl
ATOM     31  C   UNL     1      -1.933  11.422  19.051  0.00  0.00    +0.000 A 
ATOM     32 CL   UNL     1      -3.194  11.586  17.875  0.00  0.00    +0.000 Cl
ATOM     33  C   UNL     1      -0.943  10.449  18.820  0.00  0.00    +0.000 A 
ENDBRANCH  23  26
ENDBRANCH  19  20
ENDBRANCH   6  19
TORSDOF 6
ENDMDL
MODEL 4
REMARK VINA RESULT:      -8.5      1.956      2.534
REMARK  Name = 
REMARK  7 active torsions:
REMARK  status: ('A' for Active; 'I' for Inactive)
REMARK    1  A    between atoms: C_1  and  C_2
REMARK    2  A    between atoms: C_4  and  N_5
REMARK    3  A    between atoms: C_6  and  C_7
REMARK    4  A    between atoms: C_7  and  C_9
REMARK    5  A    between atoms: C_16  and  C_17
REMARK    6  A    between atoms: C_17  and  N_18
REMARK    7  A    between atoms: N_21  and  C_22
REMARK                            x       y       z     vdW  Elec       q    Type
REMARK                         _______ _______ _______ _____ _____    ______ ____
ROOT
ATOM      1  C   UNL     1       0.485   3.991  20.180  0.00  0.00    +0.000 C 
ATOM      2  C   UNL     1       1.555   3.548  19.238  0.00  0.00    +0.000 A 
ATOM      3  S   UNL     1       2.023   1.917  19.278  0.00  0.00    +0.000 S 
ATOM      4  C   UNL     1       3.401   2.213  18.326  0.00  0.00    +0.000 A 
ATOM      5  C   UNL     1       3.397   3.491  17.768  0.00  0.00    +0.000 A 
ATOM      6  C   UNL     1       2.263   4.288  18.291  0.00  0.00    +0.000 A 
ENDROOT
BRANCH   4   7
ATOM      7  N   UNL     1       4.298   1.203  18.231  0.00  0.00    +0.000 N 
ATOM      8  H   UNL     1       3.922   0.270  18.079  0.00  0.00    +0.000 HD
ATOM      9  H   UNL     1       5.120   1.184  18.829  0.00  0.00    +0.000 HD
ENDBRANCH   4   7
BRANCH   5  10
ATOM     10  C   UNL     1       4.437   3.997  16.848  0.00  0.00    +0.000 C 
ATOM     11  O   UNL     1       4.514   3.621  15.678  0.00  0.00    +0.000 OA
BRANCH  10  12
ATOM     12  C   UNL     1       5.421   5.031  17.295  0.00  0.00    +0.000 A 
ATOM     13  C   UNL     1       6.278   4.736  18.365  0.00  0.00    +0.000 A 
ATOM     14  C   UNL     1       7.248   5.662  18.775  0.00  0.00    +0.000 A 
ATOM     15  C   UNL     1       7.361   6.884  18.110  0.00  0.00    +0.000 A 
ATOM     16 CL   UNL     1       8.567   8.013  18.589  0.00  0.00    +0.000 Cl
ATOM     17  C   UNL     1       6.502   7.194  17.057  0.00  0.00    +0.000 A 
ATOM     18  C   UNL     1       5.521   6.278  16.660  0.00  0.00    +0.000 A 
ENDBRANCH  10  12
ENDBRANCH   5  10
BRANCH   6  19
ATOM     19  C   UNL     1       1.877   5.721  17.895  0.00  0.00    +0.000 C 
BRANCH  19  20
ATOM     20  N   UNL     1       2.677   6.678  18.669  0.00  0.00    +0.000 NA
ATOM     21  C   UNL     1       2.585   8.064  18.193  0.00  0.00    +0.000 C 
ATOM     22  C   UNL     1       1.431   8.911  18.785  0.00  0.00    +0.000 C 
ATOM     23  N   UNL     1       1.402   8.880  20.265  0.00  0.00    +0.000 N 
ATOM     24  C   UNL     1       1.560   7.539  20.871  0.00  0.00    +0.000 C 
ATOM     25  C   UNL     1       2.561   6.611  20.127  0.00  0.00    +0.000 C 
BRANCH  23  26
ATOM     26  C   UNL     1       0.471   9.704  20.925  0.00  0.00    +0.000 A 
ATOM     27  C   UNL     1       0.177   9.479  22.287  0.00  0.00    +0.000 A 
ATOM     28  C   UNL     1      -0.715  10.289  23.006  0.00  0.00    +0.000 A 
ATOM     29  C   UNL     1      -1.344  11.363  22.380  0.00  0.00    +0.000 A 
ATOM     30 CL   UNL     1      -2.410  12.341  23.326  0.00  0.00    +0.000 Cl
ATOM     31  C   UNL     1      -1.080  11.609  21.031  0.00  0.00    +0.000 A 
ATOM     32 CL   UNL     1      -1.841  12.909  20.177  0.00  0.00    +0.000 Cl
ATOM     33  C   UNL     1      -0.180  10.794  20.320  0.00  0.00    +0.000 A 
ENDBRANCH  23  26
ENDBRANCH  19  20
ENDBRANCH   6  19
TORSDOF 6
ENDMDL
MODEL 5
REMARK VINA RESULT:      -8.4      1.745      2.070
REMARK  Name = 
REMARK  7 active torsions:
REMARK  status: ('A' for Active; 'I' for Inactive)
REMARK    1  A    between atoms: C_1  and  C_2
REMARK    2  A    between atoms: C_4  and  N_5
REMARK    3  A    between atoms: C_6  and  C_7
REMARK    4  A    between atoms: C_7  and  C_9
REMARK    5  A    between atoms: C_16  and  C_17
REMARK    6  A    between atoms: C_17  and  N_18
REMARK    7  A    between atoms: N_21  and  C_22
REMARK                            x       y       z     vdW  Elec       q    Type
REMARK                         _______ _______ _______ _____ _____    ______ ____
ROOT
ATOM      1  C   UNL     1       0.651   4.182  20.314  0.00  0.00    +0.000 C 
ATOM      2  C   UNL     1       1.747   3.664  19.443  0.00  0.00    +0.000 A 
ATOM      3  S   UNL     1       2.264   2.066  19.682  0.00  0.00    +0.000 S 
ATOM      4  C   UNL     1       3.646   2.290  18.718  0.00  0.00    +0.000 A 
ATOM      5  C   UNL     1       3.612   3.492  18.012  0.00  0.00    +0.000 A 
ATOM      6  C   UNL     1       2.447   4.309  18.423  0.00  0.00    +0.000 A 
ENDROOT
BRANCH   4   7
ATOM      7  N   UNL     1       4.575   1.304  18.754  0.00  0.00    +0.000 N 
ATOM      8  H   UNL     1       4.357   0.493  19.327  0.00  0.00    +0.000 HD
ATOM      9  H   UNL     1       5.566   1.530  18.780  0.00  0.00    +0.000 HD
ENDBRANCH   4   7
BRANCH   5  10
ATOM     10  C   UNL     1       4.650   3.918  17.050  0.00  0.00    +0.000 C 
ATOM     11  O   UNL     1       4.701   3.473  15.903  0.00  0.00    +0.000 OA
BRANCH  10  12
ATOM     12  C   UNL     1       5.664   4.952  17.422  0.00  0.00    +0.000 A 
ATOM     13  C   UNL     1       5.785   6.103  16.630  0.00  0.00    +0.000 A 
ATOM     14  C   UNL     1       6.687   7.117  16.982  0.00  0.00    +0.000 A 
ATOM     15  C   UNL     1       7.470   6.977  18.129  0.00  0.00    +0.000 A 
ATOM     16 CL   UNL     1       8.559   8.229  18.581  0.00  0.00    +0.000 Cl
ATOM     17  C   UNL     1       7.372   5.829  18.913  0.00  0.00    +0.000 A 
ATOM     18  C   UNL     1       6.484   4.809  18.552  0.00  0.00    +0.000 A 
ENDBRANCH  10  12
ENDBRANCH   5  10
BRANCH   6  19
ATOM     19  C   UNL     1       2.023   5.672  17.855  0.00  0.00    +0.000 C 
BRANCH  19  20
ATOM     20  N   UNL     1       2.754   6.741  18.546  0.00  0.00    +0.000 NA
ATOM     21  C   UNL     1       2.830   8.001  17.796  0.00  0.00    +0.000 C 
ATOM     22  C   UNL     1       1.657   8.990  18.005  0.00  0.00    +0.000 C 
ATOM     23  N   UNL     1       1.393   9.267  19.436  0.00  0.00    +0.000 N 
ATOM     24  C   UNL     1       1.364   8.077  20.314  0.00  0.00    +0.000 C 
ATOM     25  C   UNL     1       2.405   6.982  19.948  0.00  0.00    +0.000 C 
BRANCH  23  26
ATOM     26  C   UNL     1       0.427  10.241  19.753  0.00  0.00    +0.000 A 
ATOM     27  C   UNL     1      -0.334  10.833  18.723  0.00  0.00    +0.000 A 
ATOM     28  C   UNL     1      -1.334  11.783  18.982  0.00  0.00    +0.000 A 
ATOM     29  C   UNL     1      -1.610  12.171  20.291  0.00  0.00    +0.000 A 
ATOM     30 CL   UNL     1      -2.873  13.323  20.548  0.00  0.00    +0.000 Cl
ATOM     31  C   UNL     1      -0.869  11.608  21.333  0.00  0.00    +0.000 A 
ATOM     32 CL   UNL     1      -1.135  12.056  22.984  0.00  0.00    +0.000 Cl
ATOM     33  C   UNL     1       0.129  10.653  21.065  0.00  0.00    +0.000 A 
ENDBRANCH  23  26
ENDBRANCH  19  20
ENDBRANCH   6  19
TORSDOF 6
ENDMDL
MODEL 6
REMARK VINA RESULT:      -8.3      0.642      1.522
REMARK  Name = 
REMARK  7 active torsions:
REMARK  status: ('A' for Active; 'I' for Inactive)
REMARK    1  A    between atoms: C_1  and  C_2
REMARK    2  A    between atoms: C_4  and  N_5
REMARK    3  A    between atoms: C_6  and  C_7
REMARK    4  A    between atoms: C_7  and  C_9
REMARK    5  A    between atoms: C_16  and  C_17
REMARK    6  A    between atoms: C_17  and  N_18
REMARK    7  A    between atoms: N_21  and  C_22
REMARK                            x       y       z     vdW  Elec       q    Type
REMARK                         _______ _______ _______ _____ _____    ______ ____
ROOT
ATOM      1  C   UNL     1       0.357   3.276  19.100  0.00  0.00    +0.000 C 
ATOM      2  C   UNL     1       1.833   3.092  18.967  0.00  0.00    +0.000 A 
ATOM      3  S   UNL     1       2.495   1.607  19.450  0.00  0.00    +0.000 S 
ATOM      4  C   UNL     1       4.083   2.212  19.394  0.00  0.00    +0.000 A 
ATOM      5  C   UNL     1       4.154   3.463  18.783  0.00  0.00    +0.000 A 
ATOM      6  C   UNL     1       2.797   3.982  18.492  0.00  0.00    +0.000 A 
ENDROOT
BRANCH   4   7
ATOM      7  N   UNL     1       5.048   1.428  19.931  0.00  0.00    +0.000 N 
ATOM      8  H   UNL     1       6.005   1.622  19.647  0.00  0.00    +0.000 HD
ATOM      9  H   UNL     1       4.889   0.432  20.065  0.00  0.00    +0.000 HD
ENDBRANCH   4   7
BRANCH   5  10
ATOM     10  C   UNL     1       5.413   4.198  18.540  0.00  0.00    +0.000 C 
ATOM     11  O   UNL     1       6.092   4.653  19.460  0.00  0.00    +0.000 OA
BRANCH  10  12
ATOM     12  C   UNL     1       5.941   4.380  17.153  0.00  0.00    +0.000 A 
ATOM     13  C   UNL     1       5.278   3.755  16.086  0.00  0.00    +0.000 A 
ATOM     14  C   UNL     1       5.714   3.949  14.767  0.00  0.00    +0.000 A 
ATOM     15  C   UNL     1       6.815   4.770  14.517  0.00  0.00    +0.000 A 
ATOM     16 CL   UNL     1       7.338   5.033  12.900  0.00  0.00    +0.000 Cl
ATOM     17  C   UNL     1       7.492   5.380  15.572  0.00  0.00    +0.000 A 
ATOM     18  C   UNL     1       7.068   5.172  16.889  0.00  0.00    +0.000 A 
ENDBRANCH  10  12
ENDBRANCH   5  10
BRANCH   6  19
ATOM     19  C   UNL     1       2.439   5.297  17.784  0.00  0.00    +0.000 C 
BRANCH  19  20
ATOM     20  N   UNL     1       3.148   6.410  18.426  0.00  0.00    +0.000 NA
ATOM     21  C   UNL     1       3.097   7.671  17.674  0.00  0.00    +0.000 C 
ATOM     22  C   UNL     1       1.883   8.587  17.965  0.00  0.00    +0.000 C 
ATOM     23  N   UNL     1       1.700   8.851  19.411  0.00  0.00    +0.000 N 
ATOM     24  C   UNL     1       1.803   7.663  20.286  0.00  0.00    +0.000 C 
ATOM     25  C   UNL     1       2.881   6.633  19.849  0.00  0.00    +0.000 C 
BRANCH  23  26
ATOM     26  C   UNL     1       0.701   9.765  19.794  0.00  0.00    +0.000 A 
ATOM     27  C   UNL     1       0.330   9.869  21.151  0.00  0.00    +0.000 A 
ATOM     28  C   UNL     1      -0.635  10.786  21.598  0.00  0.00    +0.000 A 
ATOM     29  C   UNL     1      -1.262  11.638  20.691  0.00  0.00    +0.000 A 
ATOM     30 CL   UNL     1      -2.419  12.765  21.305  0.00  0.00    +0.000 Cl
ATOM     31  C   UNL     1      -0.922  11.555  19.339  0.00  0.00    +0.000 A 
ATOM     32 CL   UNL     1      -1.675  12.562  18.148  0.00  0.00    +0.000 Cl
ATOM     33  C   UNL     1       0.049  10.636  18.902  0.00  0.00    +0.000 A 
ENDBRANCH  23  26
ENDBRANCH  19  20
ENDBRANCH   6  19
TORSDOF 6
ENDMDL
MODEL 7
REMARK VINA RESULT:      -8.1      1.837      2.151
REMARK  Name = 
REMARK  7 active torsions:
REMARK  status: ('A' for Active; 'I' for Inactive)
REMARK    1  A    between atoms: C_1  and  C_2
REMARK    2  A    between atoms: C_4  and  N_5
REMARK    3  A    between atoms: C_6  and  C_7
REMARK    4  A    between atoms: C_7  and  C_9
REMARK    5  A    between atoms: C_16  and  C_17
REMARK    6  A    between atoms: C_17  and  N_18
REMARK    7  A    between atoms: N_21  and  C_22
REMARK                            x       y       z     vdW  Elec       q    Type
REMARK                         _______ _______ _______ _____ _____    ______ ____
ROOT
ATOM      1  C   UNL     1       0.552   3.877  20.217  0.00  0.00    +0.000 C 
ATOM      2  C   UNL     1       1.637   3.416  19.300  0.00  0.00    +0.000 A 
ATOM      3  S   UNL     1       2.123   1.794  19.397  0.00  0.00    +0.000 S 
ATOM      4  C   UNL     1       3.507   2.075  18.449  0.00  0.00    +0.000 A 
ATOM      5  C   UNL     1       3.494   3.334  17.851  0.00  0.00    +0.000 A 
ATOM      6  C   UNL     1       2.346   4.134  18.337  0.00  0.00    +0.000 A 
ENDROOT
BRANCH   4   7
ATOM      7  N   UNL     1       4.417   1.073  18.396  0.00  0.00    +0.000 N 
ATOM      8  H   UNL     1       4.787   0.841  17.478  0.00  0.00    +0.000 HD
ATOM      9  H   UNL     1       4.310   0.247  18.979  0.00  0.00    +0.000 HD
ENDBRANCH   4   7
BRANCH   5  10
ATOM     10  C   UNL     1       4.538   3.823  16.925  0.00  0.00    +0.000 C 
ATOM     11  O   UNL     1       4.631   3.411  15.770  0.00  0.00    +0.000 OA
BRANCH  10  12
ATOM     12  C   UNL     1       5.504   4.883  17.348  0.00  0.00    +0.000 A 
ATOM     13  C   UNL     1       6.110   4.787  18.610  0.00  0.00    +0.000 A 
ATOM     14  C   UNL     1       7.061   5.735  19.015  0.00  0.00    +0.000 A 
ATOM     15  C   UNL     1       7.405   6.779  18.156  0.00  0.00    +0.000 A 
ATOM     16 CL   UNL     1       8.590   7.929  18.637  0.00  0.00    +0.000 Cl
ATOM     17  C   UNL     1       6.795   6.894  16.908  0.00  0.00    +0.000 A 
ATOM     18  C   UNL     1       5.833   5.960  16.510  0.00  0.00    +0.000 A 
ENDBRANCH  10  12
ENDBRANCH   5  10
BRANCH   6  19
ATOM     19  C   UNL     1       1.947   5.549  17.892  0.00  0.00    +0.000 C 
BRANCH  19  20
ATOM     20  N   UNL     1       2.726   6.540  18.645  0.00  0.00    +0.000 NA
ATOM     21  C   UNL     1       2.993   7.782  17.908  0.00  0.00    +0.000 C 
ATOM     22  C   UNL     1       1.915   8.888  18.027  0.00  0.00    +0.000 C 
ATOM     23  N   UNL     1       1.566   9.196  19.432  0.00  0.00    +0.000 N 
ATOM     24  C   UNL     1       1.343   8.019  20.300  0.00  0.00    +0.000 C 
ATOM     25  C   UNL     1       2.292   6.821  20.015  0.00  0.00    +0.000 C 
BRANCH  23  26
ATOM     26  C   UNL     1       0.684  10.266  19.674  0.00  0.00    +0.000 A 
ATOM     27  C   UNL     1      -0.616  10.240  19.127  0.00  0.00    +0.000 A 
ATOM     28  C   UNL     1      -1.550  11.261  19.362  0.00  0.00    +0.000 A 
ATOM     29  C   UNL     1      -1.211  12.348  20.165  0.00  0.00    +0.000 A 
ATOM     30 CL   UNL     1      -2.414  13.558  20.441  0.00  0.00    +0.000 Cl
ATOM     31  C   UNL     1       0.071  12.407  20.716  0.00  0.00    +0.000 A 
ATOM     32 CL   UNL     1       0.576  13.738  21.703  0.00  0.00    +0.000 Cl
ATOM     33  C   UNL     1       0.999  11.377  20.478  0.00  0.00    +0.000 A 
ENDBRANCH  23  26
ENDBRANCH  19  20
ENDBRANCH   6  19
TORSDOF 6
ENDMDL
MODEL 8
REMARK VINA RESULT:      -8.0      1.556      2.243
REMARK  Name = 
REMARK  7 active torsions:
REMARK  status: ('A' for Active; 'I' for Inactive)
REMARK    1  A    between atoms: C_1  and  C_2
REMARK    2  A    between atoms: C_4  and  N_5
REMARK    3  A    between atoms: C_6  and  C_7
REMARK    4  A    between atoms: C_7  and  C_9
REMARK    5  A    between atoms: C_16  and  C_17
REMARK    6  A    between atoms: C_17  and  N_18
REMARK    7  A    between atoms: N_21  and  C_22
REMARK                            x       y       z     vdW  Elec       q    Type
REMARK                         _______ _______ _______ _____ _____    ______ ____
ROOT
ATOM      1  C   UNL     1       1.180   4.637  20.605  0.00  0.00    +0.000 C 
ATOM      2  C   UNL     1       2.385   4.580  19.725  0.00  0.00    +0.000 A 
ATOM      3  S   UNL     1       3.447   3.271  19.915  0.00  0.00    +0.000 S 
ATOM      4  C   UNL     1       4.648   4.012  18.967  0.00  0.00    +0.000 A 
ATOM      5  C   UNL     1       4.178   5.142  18.301  0.00  0.00    +0.000 A 
ATOM      6  C   UNL     1       2.798   5.467  18.730  0.00  0.00    +0.000 A 
ENDROOT
BRANCH   4   7
ATOM      7  N   UNL     1       5.871   3.429  18.978  0.00  0.00    +0.000 N 
ATOM      8  H   UNL     1       6.609   3.905  18.466  0.00  0.00    +0.000 HD
ATOM      9  H   UNL     1       5.962   2.418  18.916  0.00  0.00    +0.000 HD
ENDBRANCH   4   7
BRANCH   5  10
ATOM     10  C   UNL     1       4.986   5.946  17.359  0.00  0.00    +0.000 C 
ATOM     11  O   UNL     1       5.269   7.122  17.581  0.00  0.00    +0.000 OA
BRANCH  10  12
ATOM     12  C   UNL     1       5.533   5.339  16.107  0.00  0.00    +0.000 A 
ATOM     13  C   UNL     1       4.692   4.549  15.310  0.00  0.00    +0.000 A 
ATOM     14  C   UNL     1       5.159   4.010  14.102  0.00  0.00    +0.000 A 
ATOM     15  C   UNL     1       6.468   4.265  13.692  0.00  0.00    +0.000 A 
ATOM     16 CL   UNL     1       7.037   3.629  12.198  0.00  0.00    +0.000 Cl
ATOM     17  C   UNL     1       7.318   5.033  14.486  0.00  0.00    +0.000 A 
ATOM     18  C   UNL     1       6.859   5.556  15.700  0.00  0.00    +0.000 A 
ENDBRANCH  10  12
ENDBRANCH   5  10
BRANCH   6  19
ATOM     19  C   UNL     1       1.906   6.602  18.204  0.00  0.00    +0.000 C 
BRANCH  19  20
ATOM     20  N   UNL     1       2.327   7.876  18.801  0.00  0.00    +0.000 NA
ATOM     21  C   UNL     1       2.159   9.038  17.920  0.00  0.00    +0.000 C 
ATOM     22  C   UNL     1       0.779   9.740  17.974  0.00  0.00    +0.000 C 
ATOM     23  N   UNL     1       0.369  10.086  19.355  0.00  0.00    +0.000 N 
ATOM     24  C   UNL     1       0.559   9.014  20.357  0.00  0.00    +0.000 C 
ATOM     25  C   UNL     1       1.844   8.164  20.154  0.00  0.00    +0.000 C 
BRANCH  23  26
ATOM     26  C   UNL     1      -0.812  10.831  19.525  0.00  0.00    +0.000 A 
ATOM     27  C   UNL     1      -0.993  11.601  20.694  0.00  0.00    +0.000 A 
ATOM     28  C   UNL     1      -2.134  12.391  20.903  0.00  0.00    +0.000 A 
ATOM     29  C   UNL     1      -3.137  12.440  19.939  0.00  0.00    +0.000 A 
ATOM     30 CL   UNL     1      -4.504  13.454  20.241  0.00  0.00    +0.000 Cl
ATOM     31  C   UNL     1      -2.993  11.684  18.773  0.00  0.00    +0.000 A 
ATOM     32 CL   UNL     1      -4.208  11.673  17.539  0.00  0.00    +0.000 Cl
ATOM     33  C   UNL     1      -1.843  10.898  18.570  0.00  0.00    +0.000 A 
ENDBRANCH  23  26
ENDBRANCH  19  20
ENDBRANCH   6  19
TORSDOF 6
ENDMDL
MODEL 9
REMARK VINA RESULT:      -7.6      1.519      1.959
REMARK  Name = 
REMARK  7 active torsions:
REMARK  status: ('A' for Active; 'I' for Inactive)
REMARK    1  A    between atoms: C_1  and  C_2
REMARK    2  A    between atoms: C_4  and  N_5
REMARK    3  A    between atoms: C_6  and  C_7
REMARK    4  A    between atoms: C_7  and  C_9
REMARK    5  A    between atoms: C_16  and  C_17
REMARK    6  A    between atoms: C_17  and  N_18
REMARK    7  A    between atoms: N_21  and  C_22
REMARK                            x       y       z     vdW  Elec       q    Type
REMARK                         _______ _______ _______ _____ _____    ______ ____
ROOT
ATOM      1  C   UNL     1       1.645   4.675  20.773  0.00  0.00    +0.000 C 
ATOM      2  C   UNL     1       2.779   4.640  19.802  0.00  0.00    +0.000 A 
ATOM      3  S   UNL     1       3.927   3.401  19.965  0.00  0.00    +0.000 S 
ATOM      4  C   UNL     1       5.005   4.159  18.891  0.00  0.00    +0.000 A 
ATOM      5  C   UNL     1       4.419   5.228  18.215  0.00  0.00    +0.000 A 
ATOM      6  C   UNL     1       3.061   5.498  18.739  0.00  0.00    +0.000 A 
ENDROOT
BRANCH   4   7
ATOM      7  N   UNL     1       6.257   3.645  18.829  0.00  0.00    +0.000 N 
ATOM      8  H   UNL     1       6.373   2.686  19.145  0.00  0.00    +0.000 HD
ATOM      9  H   UNL     1       7.063   4.219  19.063  0.00  0.00    +0.000 HD
ENDBRANCH   4   7
BRANCH   5  10
ATOM     10  C   UNL     1       5.103   6.027  17.176  0.00  0.00    +0.000 C 
ATOM     11  O   UNL     1       5.312   7.232  17.310  0.00  0.00    +0.000 OA
BRANCH  10  12
ATOM     12  C   UNL     1       5.613   5.385  15.925  0.00  0.00    +0.000 A 
ATOM     13  C   UNL     1       4.744   4.586  15.168  0.00  0.00    +0.000 A 
ATOM     14  C   UNL     1       5.174   4.013  13.962  0.00  0.00    +0.000 A 
ATOM     15  C   UNL     1       6.476   4.243  13.515  0.00  0.00    +0.000 A 
ATOM     16 CL   UNL     1       7.001   3.566  12.023  0.00  0.00    +0.000 Cl
ATOM     17  C   UNL     1       7.353   5.020  14.269  0.00  0.00    +0.000 A 
ATOM     18  C   UNL     1       6.930   5.576  15.482  0.00  0.00    +0.000 A 
ENDBRANCH  10  12
ENDBRANCH   5  10
BRANCH   6  19
ATOM     19  C   UNL     1       2.066   6.555  18.236  0.00  0.00    +0.000 C 
BRANCH  19  20
ATOM     20  N   UNL     1       2.406   7.863  18.808  0.00  0.00    +0.000 NA
ATOM     21  C   UNL     1       2.259   8.987  17.874  0.00  0.00    +0.000 C 
ATOM     22  C   UNL     1       0.857   9.642  17.814  0.00  0.00    +0.000 C 
ATOM     23  N   UNL     1       0.349  10.024  19.152  0.00  0.00    +0.000 N 
ATOM     24  C   UNL     1       0.508   8.997  20.205  0.00  0.00    +0.000 C 
ATOM     25  C   UNL     1       1.830   8.185  20.116  0.00  0.00    +0.000 C 
BRANCH  23  26
ATOM     26  C   UNL     1      -0.864  10.735  19.219  0.00  0.00    +0.000 A 
ATOM     27  C   UNL     1      -1.851  10.532  18.232  0.00  0.00    +0.000 A 
ATOM     28  C   UNL     1      -3.093  11.185  18.265  0.00  0.00    +0.000 A 
ATOM     29  C   UNL     1      -3.390  12.069  19.301  0.00  0.00    +0.000 A 
ATOM     30 CL   UNL     1      -4.946  12.821  19.304  0.00  0.00    +0.000 Cl
ATOM     31  C   UNL     1      -2.431  12.298  20.291  0.00  0.00    +0.000 A 
ATOM     32 CL   UNL     1      -2.716  13.400  21.596  0.00  0.00    +0.000 Cl
ATOM     33  C   UNL     1      -1.191  11.634  20.251  0.00  0.00    +0.000 A 
ENDBRANCH  23  26
ENDBRANCH  19  20
ENDBRANCH   6  19
TORSDOF 6
ENDMDL
