MODEL 1
REMARK VINA RESULT:      -7.1      0.000      0.000
REMARK  Name = 
REMARK  8 active torsions:
REMARK  status: ('A' for Active; 'I' for Inactive)
REMARK    1  A    between atoms: C_1  and  C_2
REMARK    2  A    between atoms: C_2  and  C_3
REMARK    3  A    between atoms: N_5  and  C_6
REMARK    4  A    between atoms: C_10  and  C_11
REMARK    5  A    between atoms: C_11  and  O_13
REMARK    6  A    between atoms: O_13  and  C_14
REMARK    7  A    between atoms: C_14  and  C_15
REMARK    8  A    between atoms: C_15  and  C_17
REMARK                            x       y       z     vdW  Elec       q    Type
REMARK                         _______ _______ _______ _____ _____    ______ ____
ROOT
ATOM      1  C   UNL     1       4.794   3.239  19.092  0.00  0.00    +0.000 C 
ATOM      2  O   UNL     1       5.262   3.146  20.214  0.00  0.00    +0.000 OA
ENDROOT
BRANCH   1   7
ATOM      3  C   UNL     1       5.685   4.869  15.793  0.00  0.00    +0.000 A 
ATOM      4  C   UNL     1       5.882   6.189  16.211  0.00  0.00    +0.000 A 
ATOM      5  C   UNL     1       5.739   6.557  17.544  0.00  0.00    +0.000 A 
ATOM      6  C   UNL     1       5.394   5.602  18.486  0.00  0.00    +0.000 A 
ATOM      7  C   UNL     1       5.185   4.272  18.094  0.00  0.00    +0.000 A 
ATOM      8  C   UNL     1       5.306   3.909  16.739  0.00  0.00    +0.000 A 
BRANCH   3  11
ATOM      9  C   UNL     1       6.988   4.769  13.687  0.00  0.00    +0.000 C 
ATOM     10  O   UNL     1       7.997   5.318  14.107  0.00  0.00    +0.000 OA
ATOM     11  N   UNL     1       5.852   4.485  14.440  0.00  0.00    +0.000 N 
ATOM     12  H   UNL     1       5.166   3.855  14.044  0.00  0.00    +0.000 HD
BRANCH   9  14
ATOM     13  C   UNL     1       5.828   3.235  12.112  0.00  0.00    +0.000 C 
ATOM     14  C   UNL     1       6.902   4.306  12.249  0.00  0.00    +0.000 C 
ENDBRANCH   9  14
ENDBRANCH   3  11
ENDBRANCH   1   7
BRANCH   1  15
ATOM     15  O   UNL     1       3.897   2.393  18.534  0.00  0.00    +0.000 OA
BRANCH  15  16
ATOM     16  C   UNL     1       2.636   2.293  19.203  0.00  0.00    +0.000 C 
BRANCH  16  17
ATOM     17  C   UNL     1       1.684   3.330  18.615  0.00  0.00    +0.000 C 
ATOM     18  O   UNL     1       0.719   3.003  17.920  0.00  0.00    +0.000 OA
BRANCH  17  19
ATOM     19  C   UNL     1       1.859   4.782  18.917  0.00  0.00    +0.000 A 
ATOM     20  C   UNL     1       1.879   5.632  17.793  0.00  0.00    +0.000 A 
ATOM     21  C   UNL     1       2.081   7.007  17.928  0.00  0.00    +0.000 A 
ATOM     22  C   UNL     1       2.266   7.556  19.191  0.00  0.00    +0.000 A 
ATOM     23  C   UNL     1       2.248   6.729  20.312  0.00  0.00    +0.000 A 
ATOM     24  C   UNL     1       2.051   5.345  20.186  0.00  0.00    +0.000 A 
ATOM     25 CL   UNL     1       2.147   4.453  21.659  0.00  0.00    +0.000 Cl
ENDBRANCH  17  19
ENDBRANCH  16  17
ENDBRANCH  15  16
ENDBRANCH   1  15
TORSDOF 7
ENDMDL
MODEL 2
REMARK VINA RESULT:      -7.1      3.467      7.145
REMARK  Name = 
REMARK  8 active torsions:
REMARK  status: ('A' for Active; 'I' for Inactive)
REMARK    1  A    between atoms: C_1  and  C_2
REMARK    2  A    between atoms: C_2  and  C_3
REMARK    3  A    between atoms: N_5  and  C_6
REMARK    4  A    between atoms: C_10  and  C_11
REMARK    5  A    between atoms: C_11  and  O_13
REMARK    6  A    between atoms: O_13  and  C_14
REMARK    7  A    between atoms: C_14  and  C_15
REMARK    8  A    between atoms: C_15  and  C_17
REMARK                            x       y       z     vdW  Elec       q    Type
REMARK                         _______ _______ _______ _____ _____    ______ ____
ROOT
ATOM      1  C   UNL     1       2.413   4.623  19.199  0.00  0.00    +0.000 C 
ATOM      2  O   UNL     1       1.617   3.782  18.815  0.00  0.00    +0.000 OA
ENDROOT
BRANCH   1   7
ATOM      3  C   UNL     1       1.642   8.174  20.263  0.00  0.00    +0.000 A 
ATOM      4  C   UNL     1       1.799   8.840  19.043  0.00  0.00    +0.000 A 
ATOM      5  C   UNL     1       2.142   8.157  17.882  0.00  0.00    +0.000 A 
ATOM      6  C   UNL     1       2.335   6.786  17.925  0.00  0.00    +0.000 A 
ATOM      7  C   UNL     1       2.189   6.093  19.135  0.00  0.00    +0.000 A 
ATOM      8  C   UNL     1       1.867   6.793  20.313  0.00  0.00    +0.000 A 
BRANCH   3  11
ATOM      9  C   UNL     1       0.012   8.771  22.032  0.00  0.00    +0.000 C 
ATOM     10  O   UNL     1      -0.897   8.047  21.650  0.00  0.00    +0.000 OA
ATOM     11  N   UNL     1       1.270   8.862  21.444  0.00  0.00    +0.000 N 
ATOM     12  H   UNL     1       2.001   9.337  21.958  0.00  0.00    +0.000 HD
BRANCH   9  14
ATOM     13  C   UNL     1      -0.799  10.971  22.855  0.00  0.00    +0.000 C 
ATOM     14  C   UNL     1      -0.160   9.648  23.253  0.00  0.00    +0.000 C 
ENDBRANCH   9  14
ENDBRANCH   3  11
ENDBRANCH   1   7
BRANCH   1  15
ATOM     15  O   UNL     1       3.597   4.376  19.807  0.00  0.00    +0.000 OA
BRANCH  15  16
ATOM     16  C   UNL     1       4.475   3.479  19.118  0.00  0.00    +0.000 C 
BRANCH  16  17
ATOM     17  C   UNL     1       4.969   4.157  17.845  0.00  0.00    +0.000 C 
ATOM     18  O   UNL     1       4.494   3.884  16.739  0.00  0.00    +0.000 OA
BRANCH  17  19
ATOM     19  C   UNL     1       6.010   5.226  17.905  0.00  0.00    +0.000 A 
ATOM     20  C   UNL     1       6.922   5.119  18.974  0.00  0.00    +0.000 A 
ATOM     21  C   UNL     1       7.918   6.077  19.176  0.00  0.00    +0.000 A 
ATOM     22  C   UNL     1       8.019   7.158  18.311  0.00  0.00    +0.000 A 
ATOM     23  C   UNL     1       7.125   7.279  17.248  0.00  0.00    +0.000 A 
ATOM     24  C   UNL     1       6.118   6.324  17.041  0.00  0.00    +0.000 A 
ATOM     25 CL   UNL     1       5.039   6.667  15.739  0.00  0.00    +0.000 Cl
ENDBRANCH  17  19
ENDBRANCH  16  17
ENDBRANCH  15  16
ENDBRANCH   1  15
TORSDOF 7
ENDMDL
MODEL 3
REMARK VINA RESULT:      -7.0      2.017      3.307
REMARK  Name = 
REMARK  8 active torsions:
REMARK  status: ('A' for Active; 'I' for Inactive)
REMARK    1  A    between atoms: C_1  and  C_2
REMARK    2  A    between atoms: C_2  and  C_3
REMARK    3  A    between atoms: N_5  and  C_6
REMARK    4  A    between atoms: C_10  and  C_11
REMARK    5  A    between atoms: C_11  and  O_13
REMARK    6  A    between atoms: O_13  and  C_14
REMARK    7  A    between atoms: C_14  and  C_15
REMARK    8  A    between atoms: C_15  and  C_17
REMARK                            x       y       z     vdW  Elec       q    Type
REMARK                         _______ _______ _______ _____ _____    ______ ____
ROOT
ATOM      1  C   UNL     1       4.562   2.713  18.688  0.00  0.00    +0.000 C 
ATOM      2  O   UNL     1       4.871   2.429  19.833  0.00  0.00    +0.000 OA
ENDROOT
BRANCH   1   7
ATOM      3  C   UNL     1       6.685   5.708  17.760  0.00  0.00    +0.000 A 
ATOM      4  C   UNL     1       6.435   5.776  16.386  0.00  0.00    +0.000 A 
ATOM      5  C   UNL     1       5.585   4.873  15.757  0.00  0.00    +0.000 A 
ATOM      6  C   UNL     1       4.968   3.882  16.501  0.00  0.00    +0.000 A 
ATOM      7  C   UNL     1       5.204   3.786  17.879  0.00  0.00    +0.000 A 
ATOM      8  C   UNL     1       6.086   4.686  18.507  0.00  0.00    +0.000 A 
BRANCH   3  11
ATOM      9  C   UNL     1       7.831   7.902  17.903  0.00  0.00    +0.000 C 
ATOM     10  O   UNL     1       7.357   8.386  16.886  0.00  0.00    +0.000 OA
ATOM     11  N   UNL     1       7.532   6.639  18.409  0.00  0.00    +0.000 N 
ATOM     12  H   UNL     1       7.826   6.426  19.354  0.00  0.00    +0.000 HD
BRANCH   9  14
ATOM     13  C   UNL     1       8.770  10.157  18.358  0.00  0.00    +0.000 C 
ATOM     14  C   UNL     1       8.807   8.687  18.751  0.00  0.00    +0.000 C 
ENDBRANCH   9  14
ENDBRANCH   3  11
ENDBRANCH   1   7
BRANCH   1  15
ATOM     15  O   UNL     1       3.643   2.070  17.931  0.00  0.00    +0.000 OA
BRANCH  15  16
ATOM     16  C   UNL     1       2.507   1.556  18.634  0.00  0.00    +0.000 C 
BRANCH  16  17
ATOM     17  C   UNL     1       1.415   2.620  18.649  0.00  0.00    +0.000 C 
ATOM     18  O   UNL     1       0.235   2.340  18.422  0.00  0.00    +0.000 OA
BRANCH  17  19
ATOM     19  C   UNL     1       1.735   4.036  19.002  0.00  0.00    +0.000 A 
ATOM     20  C   UNL     1       1.801   4.928  17.914  0.00  0.00    +0.000 A 
ATOM     21  C   UNL     1       2.136   6.271  18.097  0.00  0.00    +0.000 A 
ATOM     22  C   UNL     1       2.409   6.745  19.373  0.00  0.00    +0.000 A 
ATOM     23  C   UNL     1       2.348   5.876  20.461  0.00  0.00    +0.000 A 
ATOM     24  C   UNL     1       2.017   4.523  20.285  0.00  0.00    +0.000 A 
ATOM     25 CL   UNL     1       2.074   3.563  21.717  0.00  0.00    +0.000 Cl
ENDBRANCH  17  19
ENDBRANCH  16  17
ENDBRANCH  15  16
ENDBRANCH   1  15
TORSDOF 7
ENDMDL
MODEL 4
REMARK VINA RESULT:      -6.9      3.941      7.433
REMARK  Name = 
REMARK  8 active torsions:
REMARK  status: ('A' for Active; 'I' for Inactive)
REMARK    1  A    between atoms: C_1  and  C_2
REMARK    2  A    between atoms: C_2  and  C_3
REMARK    3  A    between atoms: N_5  and  C_6
REMARK    4  A    between atoms: C_10  and  C_11
REMARK    5  A    between atoms: C_11  and  O_13
REMARK    6  A    between atoms: O_13  and  C_14
REMARK    7  A    between atoms: C_14  and  C_15
REMARK    8  A    between atoms: C_15  and  C_17
REMARK                            x       y       z     vdW  Elec       q    Type
REMARK                         _______ _______ _______ _____ _____    ______ ____
ROOT
ATOM      1  C   UNL     1       2.873   5.986  19.278  0.00  0.00    +0.000 C 
ATOM      2  O   UNL     1       3.108   5.457  20.351  0.00  0.00    +0.000 OA
ENDROOT
BRANCH   1   7
ATOM      3  C   UNL     1       0.926   9.154  19.996  0.00  0.00    +0.000 A 
ATOM      4  C   UNL     1       1.215   9.891  18.843  0.00  0.00    +0.000 A 
ATOM      5  C   UNL     1       2.022   9.376  17.835  0.00  0.00    +0.000 A 
ATOM      6  C   UNL     1       2.556   8.106  17.966  0.00  0.00    +0.000 A 
ATOM      7  C   UNL     1       2.288   7.346  19.114  0.00  0.00    +0.000 A 
ATOM      8  C   UNL     1       1.492   7.881  20.144  0.00  0.00    +0.000 A 
BRANCH   3  11
ATOM      9  C   UNL     1       0.441   9.717  22.360  0.00  0.00    +0.000 C 
ATOM     10  O   UNL     1       1.528   9.397  22.818  0.00  0.00    +0.000 OA
ATOM     11  N   UNL     1       0.086   9.665  21.015  0.00  0.00    +0.000 N 
ATOM     12  H   UNL     1      -0.761  10.138  20.729  0.00  0.00    +0.000 HD
BRANCH   9  14
ATOM     13  C   UNL     1      -1.226  11.533  22.679  0.00  0.00    +0.000 C 
ATOM     14  C   UNL     1      -0.651  10.249  23.262  0.00  0.00    +0.000 C 
ENDBRANCH   9  14
ENDBRANCH   3  11
ENDBRANCH   1   7
BRANCH   1  15
ATOM     15  O   UNL     1       3.158   5.470  18.059  0.00  0.00    +0.000 OA
BRANCH  15  16
ATOM     16  C   UNL     1       3.704   4.147  18.056  0.00  0.00    +0.000 C 
BRANCH  16  17
ATOM     17  C   UNL     1       5.032   4.167  17.307  0.00  0.00    +0.000 C 
ATOM     18  O   UNL     1       5.302   3.326  16.445  0.00  0.00    +0.000 OA
BRANCH  17  19
ATOM     19  C   UNL     1       6.031   5.250  17.553  0.00  0.00    +0.000 A 
ATOM     20  C   UNL     1       6.904   5.029  18.637  0.00  0.00    +0.000 A 
ATOM     21  C   UNL     1       7.856   5.982  19.006  0.00  0.00    +0.000 A 
ATOM     22  C   UNL     1       7.951   7.171  18.297  0.00  0.00    +0.000 A 
ATOM     23  C   UNL     1       7.095   7.405  17.221  0.00  0.00    +0.000 A 
ATOM     24  C   UNL     1       6.132   6.455  16.846  0.00  0.00    +0.000 A 
ATOM     25 CL   UNL     1       5.093   6.936  15.556  0.00  0.00    +0.000 Cl
ENDBRANCH  17  19
ENDBRANCH  16  17
ENDBRANCH  15  16
ENDBRANCH   1  15
TORSDOF 7
ENDMDL
MODEL 5
REMARK VINA RESULT:      -6.8      2.186      3.452
REMARK  Name = 
REMARK  8 active torsions:
REMARK  status: ('A' for Active; 'I' for Inactive)
REMARK    1  A    between atoms: C_1  and  C_2
REMARK    2  A    between atoms: C_2  and  C_3
REMARK    3  A    between atoms: N_5  and  C_6
REMARK    4  A    between atoms: C_10  and  C_11
REMARK    5  A    between atoms: C_11  and  O_13
REMARK    6  A    between atoms: O_13  and  C_14
REMARK    7  A    between atoms: C_14  and  C_15
REMARK    8  A    between atoms: C_15  and  C_17
REMARK                            x       y       z     vdW  Elec       q    Type
REMARK                         _______ _______ _______ _____ _____    ______ ____
ROOT
ATOM      1  C   UNL     1       3.835   6.549  18.299  0.00  0.00    +0.000 C 
ATOM      2  O   UNL     1       3.186   7.292  17.583  0.00  0.00    +0.000 OA
ENDROOT
BRANCH   1   7
ATOM      3  C   UNL     1       6.747   5.377  16.181  0.00  0.00    +0.000 A 
ATOM      4  C   UNL     1       7.494   4.687  17.141  0.00  0.00    +0.000 A 
ATOM      5  C   UNL     1       7.066   4.589  18.460  0.00  0.00    +0.000 A 
ATOM      6  C   UNL     1       5.875   5.184  18.840  0.00  0.00    +0.000 A 
ATOM      7  C   UNL     1       5.108   5.887  17.899  0.00  0.00    +0.000 A 
ATOM      8  C   UNL     1       5.558   6.006  16.571  0.00  0.00    +0.000 A 
BRANCH   3  11
ATOM      9  C   UNL     1       6.809   4.543  13.847  0.00  0.00    +0.000 C 
ATOM     10  O   UNL     1       6.044   3.601  14.003  0.00  0.00    +0.000 OA
ATOM     11  N   UNL     1       7.168   5.461  14.830  0.00  0.00    +0.000 N 
ATOM     12  H   UNL     1       7.643   6.306  14.540  0.00  0.00    +0.000 HD
BRANCH   9  14
ATOM     13  C   UNL     1       8.505   5.889  12.627  0.00  0.00    +0.000 C 
ATOM     14  C   UNL     1       7.434   4.815  12.496  0.00  0.00    +0.000 C 
ENDBRANCH   9  14
ENDBRANCH   3  11
ENDBRANCH   1   7
BRANCH   1  15
ATOM     15  O   UNL     1       3.559   6.248  19.589  0.00  0.00    +0.000 OA
BRANCH  15  16
ATOM     16  C   UNL     1       2.172   6.236  19.942  0.00  0.00    +0.000 C 
BRANCH  16  17
ATOM     17  C   UNL     1       1.733   4.792  20.159  0.00  0.00    +0.000 C 
ATOM     18  O   UNL     1       0.696   4.515  20.768  0.00  0.00    +0.000 OA
BRANCH  17  19
ATOM     19  C   UNL     1       2.520   3.660  19.585  0.00  0.00    +0.000 A 
ATOM     20  C   UNL     1       3.400   3.022  20.482  0.00  0.00    +0.000 A 
ATOM     21  C   UNL     1       4.230   1.979  20.064  0.00  0.00    +0.000 A 
ATOM     22  C   UNL     1       4.193   1.556  18.743  0.00  0.00    +0.000 A 
ATOM     23  C   UNL     1       3.328   2.177  17.843  0.00  0.00    +0.000 A 
ATOM     24  C   UNL     1       2.494   3.229  18.252  0.00  0.00    +0.000 A 
ATOM     25 CL   UNL     1       1.552   3.948  16.998  0.00  0.00    +0.000 Cl
ENDBRANCH  17  19
ENDBRANCH  16  17
ENDBRANCH  15  16
ENDBRANCH   1  15
TORSDOF 7
ENDMDL
MODEL 6
REMARK VINA RESULT:      -6.8      2.355      3.723
REMARK  Name = 
REMARK  8 active torsions:
REMARK  status: ('A' for Active; 'I' for Inactive)
REMARK    1  A    between atoms: C_1  and  C_2
REMARK    2  A    between atoms: C_2  and  C_3
REMARK    3  A    between atoms: N_5  and  C_6
REMARK    4  A    between atoms: C_10  and  C_11
REMARK    5  A    between atoms: C_11  and  O_13
REMARK    6  A    between atoms: O_13  and  C_14
REMARK    7  A    between atoms: C_14  and  C_15
REMARK    8  A    between atoms: C_15  and  C_17
REMARK                            x       y       z     vdW  Elec       q    Type
REMARK                         _______ _______ _______ _____ _____    ______ ____
ROOT
ATOM      1  C   UNL     1       4.633   3.586  19.106  0.00  0.00    +0.000 C 
ATOM      2  O   UNL     1       5.280   2.737  19.696  0.00  0.00    +0.000 OA
ENDROOT
BRANCH   1   7
ATOM      3  C   UNL     1       6.117   6.210  16.815  0.00  0.00    +0.000 A 
ATOM      4  C   UNL     1       5.948   5.584  15.575  0.00  0.00    +0.000 A 
ATOM      5  C   UNL     1       5.354   4.331  15.470  0.00  0.00    +0.000 A 
ATOM      6  C   UNL     1       4.918   3.681  16.612  0.00  0.00    +0.000 A 
ATOM      7  C   UNL     1       5.079   4.282  17.868  0.00  0.00    +0.000 A 
ATOM      8  C   UNL     1       5.704   5.540  17.973  0.00  0.00    +0.000 A 
BRANCH   3  11
ATOM      9  C   UNL     1       7.709   7.816  17.829  0.00  0.00    +0.000 C 
ATOM     10  O   UNL     1       8.260   7.027  18.583  0.00  0.00    +0.000 OA
ATOM     11  N   UNL     1       6.699   7.496  16.925  0.00  0.00    +0.000 N 
ATOM     12  H   UNL     1       6.461   8.180  16.218  0.00  0.00    +0.000 HD
BRANCH   9  14
ATOM     13  C   UNL     1       9.009   9.585  18.993  0.00  0.00    +0.000 C 
ATOM     14  C   UNL     1       8.122   9.271  17.796  0.00  0.00    +0.000 C 
ENDBRANCH   9  14
ENDBRANCH   3  11
ENDBRANCH   1   7
BRANCH   1  15
ATOM     15  O   UNL     1       3.383   3.995  19.426  0.00  0.00    +0.000 OA
BRANCH  15  16
ATOM     16  C   UNL     1       3.300   5.025  20.416  0.00  0.00    +0.000 C 
BRANCH  16  17
ATOM     17  C   UNL     1       1.978   5.766  20.244  0.00  0.00    +0.000 C 
ATOM     18  O   UNL     1       0.926   5.332  20.719  0.00  0.00    +0.000 OA
BRANCH  17  19
ATOM     19  C   UNL     1       1.929   7.083  19.541  0.00  0.00    +0.000 A 
ATOM     20  C   UNL     1       2.474   7.092  18.241  0.00  0.00    +0.000 A 
ATOM     21  C   UNL     1       2.534   8.268  17.489  0.00  0.00    +0.000 A 
ATOM     22  C   UNL     1       2.049   9.453  18.024  0.00  0.00    +0.000 A 
ATOM     23  C   UNL     1       1.507   9.461  19.308  0.00  0.00    +0.000 A 
ATOM     24  C   UNL     1       1.447   8.286  20.074  0.00  0.00    +0.000 A 
ATOM     25 CL   UNL     1       0.833   8.483  21.673  0.00  0.00    +0.000 Cl
ENDBRANCH  17  19
ENDBRANCH  16  17
ENDBRANCH  15  16
ENDBRANCH   1  15
TORSDOF 7
ENDMDL
MODEL 7
REMARK VINA RESULT:      -6.8      2.118      2.831
REMARK  Name = 
REMARK  8 active torsions:
REMARK  status: ('A' for Active; 'I' for Inactive)
REMARK    1  A    between atoms: C_1  and  C_2
REMARK    2  A    between atoms: C_2  and  C_3
REMARK    3  A    between atoms: N_5  and  C_6
REMARK    4  A    between atoms: C_10  and  C_11
REMARK    5  A    between atoms: C_11  and  O_13
REMARK    6  A    between atoms: O_13  and  C_14
REMARK    7  A    between atoms: C_14  and  C_15
REMARK    8  A    between atoms: C_15  and  C_17
REMARK                            x       y       z     vdW  Elec       q    Type
REMARK                         _______ _______ _______ _____ _____    ______ ____
ROOT
ATOM      1  C   UNL     1       7.251   5.474  18.209  0.00  0.00    +0.000 C 
ATOM      2  O   UNL     1       8.143   6.226  18.564  0.00  0.00    +0.000 OA
ENDROOT
BRANCH   1   7
ATOM      3  C   UNL     1       6.033   4.606  14.730  0.00  0.00    +0.000 A 
ATOM      4  C   UNL     1       5.190   5.694  14.482  0.00  0.00    +0.000 A 
ATOM      5  C   UNL     1       5.016   6.706  15.418  0.00  0.00    +0.000 A 
ATOM      6  C   UNL     1       5.689   6.645  16.627  0.00  0.00    +0.000 A 
ATOM      7  C   UNL     1       6.537   5.563  16.905  0.00  0.00    +0.000 A 
ATOM      8  C   UNL     1       6.690   4.527  15.965  0.00  0.00    +0.000 A 
BRANCH   3  11
ATOM      9  C   UNL     1       6.908   3.770  12.566  0.00  0.00    +0.000 C 
ATOM     10  O   UNL     1       7.464   4.802  12.219  0.00  0.00    +0.000 OA
ATOM     11  N   UNL     1       6.232   3.584  13.770  0.00  0.00    +0.000 N 
ATOM     12  H   UNL     1       5.987   2.639  14.035  0.00  0.00    +0.000 HD
BRANCH   9  14
ATOM     13  C   UNL     1       5.515   2.061  11.418  0.00  0.00    +0.000 C 
ATOM     14  C   UNL     1       6.935   2.542  11.683  0.00  0.00    +0.000 C 
ENDBRANCH   9  14
ENDBRANCH   3  11
ENDBRANCH   1   7
BRANCH   1  15
ATOM     15  O   UNL     1       6.800   4.398  18.895  0.00  0.00    +0.000 OA
BRANCH  15  16
ATOM     16  C   UNL     1       5.637   4.616  19.701  0.00  0.00    +0.000 C 
BRANCH  16  17
ATOM     17  C   UNL     1       4.783   3.353  19.682  0.00  0.00    +0.000 C 
ATOM     18  O   UNL     1       5.208   2.277  20.109  0.00  0.00    +0.000 OA
BRANCH  17  19
ATOM     19  C   UNL     1       3.370   3.396  19.198  0.00  0.00    +0.000 A 
ATOM     20  C   UNL     1       3.201   3.848  17.873  0.00  0.00    +0.000 A 
ATOM     21  C   UNL     1       1.930   3.981  17.310  0.00  0.00    +0.000 A 
ATOM     22  C   UNL     1       0.807   3.662  18.061  0.00  0.00    +0.000 A 
ATOM     23  C   UNL     1       0.957   3.213  19.372  0.00  0.00    +0.000 A 
ATOM     24  C   UNL     1       2.230   3.082  19.949  0.00  0.00    +0.000 A 
ATOM     25 CL   UNL     1       2.238   2.602  21.605  0.00  0.00    +0.000 Cl
ENDBRANCH  17  19
ENDBRANCH  16  17
ENDBRANCH  15  16
ENDBRANCH   1  15
TORSDOF 7
ENDMDL
MODEL 8
REMARK VINA RESULT:      -6.6      1.890      3.100
REMARK  Name = 
REMARK  8 active torsions:
REMARK  status: ('A' for Active; 'I' for Inactive)
REMARK    1  A    between atoms: C_1  and  C_2
REMARK    2  A    between atoms: C_2  and  C_3
REMARK    3  A    between atoms: N_5  and  C_6
REMARK    4  A    between atoms: C_10  and  C_11
REMARK    5  A    between atoms: C_11  and  O_13
REMARK    6  A    between atoms: O_13  and  C_14
REMARK    7  A    between atoms: C_14  and  C_15
REMARK    8  A    between atoms: C_15  and  C_17
REMARK                            x       y       z     vdW  Elec       q    Type
REMARK                         _______ _______ _______ _____ _____    ______ ____
ROOT
ATOM      1  C   UNL     1       3.598   6.729  18.001  0.00  0.00    +0.000 C 
ATOM      2  O   UNL     1       3.371   7.881  17.672  0.00  0.00    +0.000 OA
ENDROOT
BRANCH   1   7
ATOM      3  C   UNL     1       6.704   5.382  16.305  0.00  0.00    +0.000 A 
ATOM      4  C   UNL     1       7.327   4.753  17.387  0.00  0.00    +0.000 A 
ATOM      5  C   UNL     1       6.754   4.751  18.654  0.00  0.00    +0.000 A 
ATOM      6  C   UNL     1       5.539   5.384  18.858  0.00  0.00    +0.000 A 
ATOM      7  C   UNL     1       4.894   6.027  17.792  0.00  0.00    +0.000 A 
ATOM      8  C   UNL     1       5.490   6.049  16.517  0.00  0.00    +0.000 A 
BRANCH   3  11
ATOM      9  C   UNL     1       6.749   4.643  13.939  0.00  0.00    +0.000 C 
ATOM     10  O   UNL     1       5.715   3.991  13.964  0.00  0.00    +0.000 OA
ATOM     11  N   UNL     1       7.272   5.367  15.007  0.00  0.00    +0.000 N 
ATOM     12  H   UNL     1       8.017   6.023  14.815  0.00  0.00    +0.000 HD
BRANCH   9  14
ATOM     13  C   UNL     1       7.088   3.710  11.660  0.00  0.00    +0.000 C 
ATOM     14  C   UNL     1       7.570   4.740  12.672  0.00  0.00    +0.000 C 
ENDBRANCH   9  14
ENDBRANCH   3  11
ENDBRANCH   1   7
BRANCH   1  15
ATOM     15  O   UNL     1       2.748   5.912  18.667  0.00  0.00    +0.000 OA
BRANCH  15  16
ATOM     16  C   UNL     1       1.637   5.420  17.910  0.00  0.00    +0.000 C 
BRANCH  16  17
ATOM     17  C   UNL     1       1.468   3.932  18.197  0.00  0.00    +0.000 C 
ATOM     18  O   UNL     1       0.457   3.316  17.850  0.00  0.00    +0.000 OA
BRANCH  17  19
ATOM     19  C   UNL     1       2.558   3.154  18.860  0.00  0.00    +0.000 A 
ATOM     20  C   UNL     1       3.257   2.263  18.021  0.00  0.00    +0.000 A 
ATOM     21  C   UNL     1       4.270   1.442  18.520  0.00  0.00    +0.000 A 
ATOM     22  C   UNL     1       4.600   1.497  19.868  0.00  0.00    +0.000 A 
ATOM     23  C   UNL     1       3.919   2.373  20.711  0.00  0.00    +0.000 A 
ATOM     24  C   UNL     1       2.896   3.199  20.219  0.00  0.00    +0.000 A 
ATOM     25 CL   UNL     1       2.091   4.156  21.406  0.00  0.00    +0.000 Cl
ENDBRANCH  17  19
ENDBRANCH  16  17
ENDBRANCH  15  16
ENDBRANCH   1  15
TORSDOF 7
ENDMDL
MODEL 9
REMARK VINA RESULT:      -6.5      1.910      3.280
REMARK  Name = 
REMARK  8 active torsions:
REMARK  status: ('A' for Active; 'I' for Inactive)
REMARK    1  A    between atoms: C_1  and  C_2
REMARK    2  A    between atoms: C_2  and  C_3
REMARK    3  A    between atoms: N_5  and  C_6
REMARK    4  A    between atoms: C_10  and  C_11
REMARK    5  A    between atoms: C_11  and  O_13
REMARK    6  A    between atoms: O_13  and  C_14
REMARK    7  A    between atoms: C_14  and  C_15
REMARK    8  A    between atoms: C_15  and  C_17
REMARK                            x       y       z     vdW  Elec       q    Type
REMARK                         _______ _______ _______ _____ _____    ______ ____
ROOT
ATOM      1  C   UNL     1       3.354   6.108  18.669  0.00  0.00    +0.000 C 
ATOM      2  O   UNL     1       2.494   6.654  17.998  0.00  0.00    +0.000 OA
ENDROOT
BRANCH   1   7
ATOM      3  C   UNL     1       5.888   4.671  16.249  0.00  0.00    +0.000 A 
ATOM      4  C   UNL     1       6.999   4.554  17.091  0.00  0.00    +0.000 A 
ATOM      5  C   UNL     1       6.938   4.925  18.429  0.00  0.00    +0.000 A 
ATOM      6  C   UNL     1       5.755   5.422  18.950  0.00  0.00    +0.000 A 
ATOM      7  C   UNL     1       4.627   5.556  18.128  0.00  0.00    +0.000 A 
ATOM      8  C   UNL     1       4.700   5.203  16.767  0.00  0.00    +0.000 A 
BRANCH   3  11
ATOM      9  C   UNL     1       6.888   4.731  13.982  0.00  0.00    +0.000 C 
ATOM     10  O   UNL     1       7.824   5.470  14.249  0.00  0.00    +0.000 OA
ATOM     11  N   UNL     1       5.938   4.273  14.891  0.00  0.00    +0.000 N 
ATOM     12  H   UNL     1       5.333   3.514  14.603  0.00  0.00    +0.000 HD
BRANCH   9  14
ATOM     13  C   UNL     1       5.454   3.326  12.517  0.00  0.00    +0.000 C 
ATOM     14  C   UNL     1       6.694   4.206  12.576  0.00  0.00    +0.000 C 
ENDBRANCH   9  14
ENDBRANCH   3  11
ENDBRANCH   1   7
BRANCH   1  15
ATOM     15  O   UNL     1       3.340   5.968  20.015  0.00  0.00    +0.000 OA
BRANCH  15  16
ATOM     16  C   UNL     1       2.053   5.766  20.606  0.00  0.00    +0.000 C 
BRANCH  16  17
ATOM     17  C   UNL     1       1.584   4.350  20.292  0.00  0.00    +0.000 C 
ATOM     18  O   UNL     1       0.389   4.045  20.308  0.00  0.00    +0.000 OA
BRANCH  17  19
ATOM     19  C   UNL     1       2.562   3.294  19.892  0.00  0.00    +0.000 A 
ATOM     20  C   UNL     1       3.421   2.849  20.917  0.00  0.00    +0.000 A 
ATOM     21  C   UNL     1       4.413   1.898  20.668  0.00  0.00    +0.000 A 
ATOM     22  C   UNL     1       4.563   1.376  19.391  0.00  0.00    +0.000 A 
ATOM     23  C   UNL     1       3.721   1.805  18.366  0.00  0.00    +0.000 A 
ATOM     24  C   UNL     1       2.724   2.764  18.605  0.00  0.00    +0.000 A 
ATOM     25 CL   UNL     1       1.830   3.253  17.214  0.00  0.00    +0.000 Cl
ENDBRANCH  17  19
ENDBRANCH  16  17
ENDBRANCH  15  16
ENDBRANCH   1  15
TORSDOF 7
ENDMDL
