MODEL 1
REMARK VINA RESULT:      -5.6      0.000      0.000
REMARK  Name = 
REMARK  13 active torsions:
REMARK  status: ('A' for Active; 'I' for Inactive)
REMARK    1  A    between atoms: C_2  and  C_3
REMARK    2  A    between atoms: C_3  and  N_4
REMARK    3  A    between atoms: N_4  and  C_5
REMARK    4  A    between atoms: N_4  and  S_25
REMARK    5  A    between atoms: C_7  and  O_8
REMARK    6  A    between atoms: O_8  and  C_9
REMARK    7  A    between atoms: C_12  and  C_13
REMARK    8  A    between atoms: C_13  and  O_15
REMARK    9  A    between atoms: O_15  and  C_16
REMARK   10  A    between atoms: C_16  and  C_17
REMARK   11  A    between atoms: C_18  and  C_19
REMARK   12  A    between atoms: C_21  and  N_22
REMARK   13  A    between atoms: S_25  and  C_26
REMARK                            x       y       z     vdW  Elec       q    Type
REMARK                         _______ _______ _______ _____ _____    ______ ____
ROOT
ATOM      1  C   UNL     1      -0.937  11.349  18.898  0.00  0.00    +0.000 A 
ATOM      2  C   UNL     1      -1.391  10.647  17.786  0.00  0.00    +0.000 A 
ATOM      3  C   UNL     1      -2.746  10.634  17.410  0.00  0.00    +0.000 A 
ATOM      4  C   UNL     1      -3.668  11.328  18.224  0.00  0.00    +0.000 A 
ATOM      5  N   UNL     1      -5.027  11.484  18.140  0.00  0.00    +0.000 N 
ATOM      6  C   UNL     1      -5.539  12.232  19.174  0.00  0.00    +0.000 A 
ATOM      7  C   UNL     1      -4.466  12.578  19.990  0.00  0.00    +0.000 A 
ATOM      8  C   UNL     1      -4.508  13.335  21.281  0.00  0.00    +0.000 C 
ATOM      9  C   UNL     1      -3.267  12.047  19.365  0.00  0.00    +0.000 A 
ATOM     10  C   UNL     1      -1.874  12.071  19.651  0.00  0.00    +0.000 A 
ATOM     11  H   UNL     1      -5.624  11.113  17.415  0.00  0.00    +0.000 HD
ENDROOT
BRANCH  10  12
ATOM     12  N   UNL     1      -1.422  12.955  20.692  0.00  0.00    +0.000 N 
ATOM     13  O   UNL     1      -1.271  14.149  20.415  0.00  0.00    +0.000 OA
ATOM     14  O   UNL     1      -1.236  12.449  21.810  0.00  0.00    +0.000 OA
ENDBRANCH  10  12
BRANCH   3  15
ATOM     15  O   UNL     1      -2.976   9.889  16.263  0.00  0.00    +0.000 OA
ATOM     16  C   UNL     1      -3.180  10.567  15.036  0.00  0.00    +0.000 C 
ENDBRANCH   3  15
BRANCH   6  17
ATOM     17  C   UNL     1      -6.958  12.522  19.190  0.00  0.00    +0.000 C 
ATOM     18  O   UNL     1      -7.418  13.657  19.164  0.00  0.00    +0.000 OA
BRANCH  17  19
ATOM     19  O   UNL     1      -7.680  11.388  19.345  0.00  0.00    +0.000 OA
BRANCH  19  20
ATOM     20  C   UNL     1      -7.581  10.751  20.623  0.00  0.00    +0.000 C 
ATOM     21  C   UNL     1      -7.483   9.254  20.384  0.00  0.00    +0.000 C 
ENDBRANCH  19  20
ENDBRANCH  17  19
ENDBRANCH   6  17
BRANCH   1  22
ATOM     22  N   UNL     1       0.449  11.191  19.254  0.00  0.00    +0.000 N 
BRANCH  22  23
ATOM     23  S   UNL     1       1.521  12.395  18.717  0.00  0.00    +0.000 S 
ATOM     24  C   UNL     1       2.130  13.026  20.262  0.00  0.00    +0.000 C 
ATOM     25  O   UNL     1       2.635  11.771  18.039  0.00  0.00    +0.000 OA
ATOM     26  O   UNL     1       0.762  13.469  18.104  0.00  0.00    +0.000 OA
ENDBRANCH  22  23
BRANCH  22  27
ATOM     27  C   UNL     1       0.979   9.892  19.698  0.00  0.00    +0.000 C 
BRANCH  27  29
ATOM     28  C   UNL     1      -0.212   8.814  21.637  0.00  0.00    +0.000 C 
ATOM     29  C   UNL     1       0.665   9.704  21.159  0.00  0.00    +0.000 C 
ENDBRANCH  27  29
ENDBRANCH  22  27
ENDBRANCH   1  22
TORSDOF 9
ENDMDL
MODEL 2
REMARK VINA RESULT:      -5.2      2.569      3.584
REMARK  Name = 
REMARK  13 active torsions:
REMARK  status: ('A' for Active; 'I' for Inactive)
REMARK    1  A    between atoms: C_2  and  C_3
REMARK    2  A    between atoms: C_3  and  N_4
REMARK    3  A    between atoms: N_4  and  C_5
REMARK    4  A    between atoms: N_4  and  S_25
REMARK    5  A    between atoms: C_7  and  O_8
REMARK    6  A    between atoms: O_8  and  C_9
REMARK    7  A    between atoms: C_12  and  C_13
REMARK    8  A    between atoms: C_13  and  O_15
REMARK    9  A    between atoms: O_15  and  C_16
REMARK   10  A    between atoms: C_16  and  C_17
REMARK   11  A    between atoms: C_18  and  C_19
REMARK   12  A    between atoms: C_21  and  N_22
REMARK   13  A    between atoms: S_25  and  C_26
REMARK                            x       y       z     vdW  Elec       q    Type
REMARK                         _______ _______ _______ _____ _____    ______ ____
ROOT
ATOM      1  C   UNL     1      -1.828  12.193  20.563  0.00  0.00    +0.000 A 
ATOM      2  C   UNL     1      -2.757  12.168  19.527  0.00  0.00    +0.000 A 
ATOM      3  C   UNL     1      -4.126  12.405  19.743  0.00  0.00    +0.000 A 
ATOM      4  C   UNL     1      -4.560  12.632  21.067  0.00  0.00    +0.000 A 
ATOM      5  N   UNL     1      -5.803  12.868  21.595  0.00  0.00    +0.000 N 
ATOM      6  C   UNL     1      -5.778  13.015  22.963  0.00  0.00    +0.000 A 
ATOM      7  C   UNL     1      -4.454  12.855  23.360  0.00  0.00    +0.000 A 
ATOM      8  C   UNL     1      -3.913  12.859  24.756  0.00  0.00    +0.000 C 
ATOM      9  C   UNL     1      -3.668  12.660  22.155  0.00  0.00    +0.000 A 
ATOM     10  C   UNL     1      -2.289  12.476  21.857  0.00  0.00    +0.000 A 
ATOM     11  H   UNL     1      -6.665  12.940  21.076  0.00  0.00    +0.000 HD
ENDROOT
BRANCH  10  12
ATOM     12  N   UNL     1      -1.342  12.694  22.917  0.00  0.00    +0.000 N 
ATOM     13  O   UNL     1      -0.837  11.705  23.459  0.00  0.00    +0.000 OA
ATOM     14  O   UNL     1      -1.082  13.875  23.197  0.00  0.00    +0.000 OA
ENDBRANCH  10  12
BRANCH   3  15
ATOM     15  O   UNL     1      -4.869  12.350  18.573  0.00  0.00    +0.000 OA
ATOM     16  C   UNL     1      -4.381  11.584  17.487  0.00  0.00    +0.000 C 
ENDBRANCH   3  15
BRANCH   6  17
ATOM     17  C   UNL     1      -7.013  13.318  23.655  0.00  0.00    +0.000 C 
ATOM     18  O   UNL     1      -7.916  12.507  23.817  0.00  0.00    +0.000 OA
BRANCH  17  19
ATOM     19  O   UNL     1      -7.068  14.629  23.989  0.00  0.00    +0.000 OA
BRANCH  19  20
ATOM     20  C   UNL     1      -7.089  15.555  22.899  0.00  0.00    +0.000 C 
ATOM     21  C   UNL     1      -6.839  16.941  23.469  0.00  0.00    +0.000 C 
ENDBRANCH  19  20
ENDBRANCH  17  19
ENDBRANCH   6  17
BRANCH   1  22
ATOM     22  N   UNL     1      -0.476  11.817  20.242  0.00  0.00    +0.000 N 
BRANCH  22  23
ATOM     23  S   UNL     1       0.651  13.078  20.071  0.00  0.00    +0.000 S 
ATOM     24  C   UNL     1       1.619  12.489  18.703  0.00  0.00    +0.000 C 
ATOM     25  O   UNL     1      -0.036  14.271  19.629  0.00  0.00    +0.000 OA
ATOM     26  O   UNL     1       1.530  13.089  21.224  0.00  0.00    +0.000 OA
ENDBRANCH  22  23
BRANCH  22  27
ATOM     27  C   UNL     1      -0.162  10.484  19.703  0.00  0.00    +0.000 C 
BRANCH  27  29
ATOM     28  C   UNL     1       0.652   8.772  21.359  0.00  0.00    +0.000 C 
ATOM     29  C   UNL     1      -0.345   9.456  20.788  0.00  0.00    +0.000 C 
ENDBRANCH  27  29
ENDBRANCH  22  27
ENDBRANCH   1  22
TORSDOF 9
ENDMDL
MODEL 3
REMARK VINA RESULT:      -5.2      2.048      2.785
REMARK  Name = 
REMARK  13 active torsions:
REMARK  status: ('A' for Active; 'I' for Inactive)
REMARK    1  A    between atoms: C_2  and  C_3
REMARK    2  A    between atoms: C_3  and  N_4
REMARK    3  A    between atoms: N_4  and  C_5
REMARK    4  A    between atoms: N_4  and  S_25
REMARK    5  A    between atoms: C_7  and  O_8
REMARK    6  A    between atoms: O_8  and  C_9
REMARK    7  A    between atoms: C_12  and  C_13
REMARK    8  A    between atoms: C_13  and  O_15
REMARK    9  A    between atoms: O_15  and  C_16
REMARK   10  A    between atoms: C_16  and  C_17
REMARK   11  A    between atoms: C_18  and  C_19
REMARK   12  A    between atoms: C_21  and  N_22
REMARK   13  A    between atoms: S_25  and  C_26
REMARK                            x       y       z     vdW  Elec       q    Type
REMARK                         _______ _______ _______ _____ _____    ______ ____
ROOT
ATOM      1  C   UNL     1      -1.017  11.982  20.119  0.00  0.00    +0.000 A 
ATOM      2  C   UNL     1      -1.774  11.813  18.964  0.00  0.00    +0.000 A 
ATOM      3  C   UNL     1      -3.172  11.969  18.955  0.00  0.00    +0.000 A 
ATOM      4  C   UNL     1      -3.815  12.268  20.176  0.00  0.00    +0.000 A 
ATOM      5  N   UNL     1      -5.135  12.456  20.493  0.00  0.00    +0.000 N 
ATOM      6  C   UNL     1      -5.327  12.709  21.832  0.00  0.00    +0.000 A 
ATOM      7  C   UNL     1      -4.072  12.674  22.432  0.00  0.00    +0.000 A 
ATOM      8  C   UNL     1      -3.752  12.823  23.886  0.00  0.00    +0.000 C 
ATOM      9  C   UNL     1      -3.102  12.442  21.376  0.00  0.00    +0.000 A 
ATOM     10  C   UNL     1      -1.685  12.331  21.302  0.00  0.00    +0.000 A 
ATOM     11  H   UNL     1      -5.911  12.428  19.848  0.00  0.00    +0.000 HD
ENDROOT
BRANCH  10  12
ATOM     12  N   UNL     1      -0.925  12.696  22.467  0.00  0.00    +0.000 N 
ATOM     13  O   UNL     1      -0.673  13.893  22.646  0.00  0.00    +0.000 OA
ATOM     14  O   UNL     1      -0.595  11.773  23.228  0.00  0.00    +0.000 OA
ENDBRANCH  10  12
BRANCH   3  15
ATOM     15  O   UNL     1      -3.724  11.773  17.698  0.00  0.00    +0.000 OA
ATOM     16  C   UNL     1      -3.621  10.495  17.096  0.00  0.00    +0.000 C 
ENDBRANCH   3  15
BRANCH   6  17
ATOM     17  C   UNL     1      -6.669  12.979  22.305  0.00  0.00    +0.000 C 
ATOM     18  O   UNL     1      -7.315  12.196  22.991  0.00  0.00    +0.000 OA
BRANCH  17  19
ATOM     19  O   UNL     1      -7.134  14.145  21.799  0.00  0.00    +0.000 OA
BRANCH  19  20
ATOM     20  C   UNL     1      -6.445  15.328  22.213  0.00  0.00    +0.000 C 
ATOM     21  C   UNL     1      -6.915  15.666  23.618  0.00  0.00    +0.000 C 
ENDBRANCH  19  20
ENDBRANCH  17  19
ENDBRANCH   6  17
BRANCH   1  22
ATOM     22  N   UNL     1       0.387  11.678  20.034  0.00  0.00    +0.000 N 
BRANCH  22  23
ATOM     23  S   UNL     1       1.446  12.991  19.830  0.00  0.00    +0.000 S 
ATOM     24  C   UNL     1       2.374  12.466  18.409  0.00  0.00    +0.000 C 
ATOM     25  O   UNL     1       0.685  14.157  19.438  0.00  0.00    +0.000 OA
ATOM     26  O   UNL     1       2.378  13.029  20.940  0.00  0.00    +0.000 OA
ENDBRANCH  22  23
BRANCH  22  27
ATOM     27  C   UNL     1       0.856  10.315  19.740  0.00  0.00    +0.000 C 
BRANCH  27  29
ATOM     28  C   UNL     1      -0.072   8.777  21.505  0.00  0.00    +0.000 C 
ATOM     29  C   UNL     1       0.925   9.528  21.023  0.00  0.00    +0.000 C 
ENDBRANCH  27  29
ENDBRANCH  22  27
ENDBRANCH   1  22
TORSDOF 9
ENDMDL
MODEL 4
REMARK VINA RESULT:      -5.2      2.944      6.526
REMARK  Name = 
REMARK  13 active torsions:
REMARK  status: ('A' for Active; 'I' for Inactive)
REMARK    1  A    between atoms: C_2  and  C_3
REMARK    2  A    between atoms: C_3  and  N_4
REMARK    3  A    between atoms: N_4  and  C_5
REMARK    4  A    between atoms: N_4  and  S_25
REMARK    5  A    between atoms: C_7  and  O_8
REMARK    6  A    between atoms: O_8  and  C_9
REMARK    7  A    between atoms: C_12  and  C_13
REMARK    8  A    between atoms: C_13  and  O_15
REMARK    9  A    between atoms: O_15  and  C_16
REMARK   10  A    between atoms: C_16  and  C_17
REMARK   11  A    between atoms: C_18  and  C_19
REMARK   12  A    between atoms: C_21  and  N_22
REMARK   13  A    between atoms: S_25  and  C_26
REMARK                            x       y       z     vdW  Elec       q    Type
REMARK                         _______ _______ _______ _____ _____    ______ ____
ROOT
ATOM      1  C   UNL     1      -2.521  12.476  20.636  0.00  0.00    +0.000 A 
ATOM      2  C   UNL     1      -2.914  12.398  19.303  0.00  0.00    +0.000 A 
ATOM      3  C   UNL     1      -2.223  11.612  18.363  0.00  0.00    +0.000 A 
ATOM      4  C   UNL     1      -1.070  10.920  18.794  0.00  0.00    +0.000 A 
ATOM      5  N   UNL     1      -0.188  10.108  18.131  0.00  0.00    +0.000 N 
ATOM      6  C   UNL     1       0.825   9.652  18.941  0.00  0.00    +0.000 A 
ATOM      7  C   UNL     1       0.610  10.202  20.202  0.00  0.00    +0.000 A 
ATOM      8  C   UNL     1       1.472  10.063  21.417  0.00  0.00    +0.000 C 
ATOM      9  C   UNL     1      -0.621  10.970  20.127  0.00  0.00    +0.000 A 
ATOM     10  C   UNL     1      -1.403  11.732  21.039  0.00  0.00    +0.000 A 
ATOM     11  H   UNL     1      -0.242   9.842  17.158  0.00  0.00    +0.000 HD
ENDROOT
BRANCH  10  12
ATOM     12  N   UNL     1      -1.077  11.639  22.437  0.00  0.00    +0.000 N 
ATOM     13  O   UNL     1      -1.489  10.658  23.066  0.00  0.00    +0.000 OA
ATOM     14  O   UNL     1      -0.378  12.550  22.908  0.00  0.00    +0.000 OA
ENDBRANCH  10  12
BRANCH   3  15
ATOM     15  O   UNL     1      -2.794  11.663  17.100  0.00  0.00    +0.000 OA
ATOM     16  C   UNL     1      -4.182  11.416  16.966  0.00  0.00    +0.000 C 
ENDBRANCH   3  15
BRANCH   6  17
ATOM     17  C   UNL     1       1.806   8.742  18.388  0.00  0.00    +0.000 C 
ATOM     18  O   UNL     1       2.346   8.907  17.301  0.00  0.00    +0.000 OA
BRANCH  17  19
ATOM     19  O   UNL     1       1.952   7.652  19.178  0.00  0.00    +0.000 OA
BRANCH  19  20
ATOM     20  C   UNL     1       2.938   6.703  18.763  0.00  0.00    +0.000 C 
ATOM     21  C   UNL     1       2.206   5.492  18.210  0.00  0.00    +0.000 C 
ENDBRANCH  19  20
ENDBRANCH  17  19
ENDBRANCH   6  17
BRANCH   1  22
ATOM     22  N   UNL     1      -3.230  13.405  21.476  0.00  0.00    +0.000 N 
BRANCH  22  23
ATOM     23  S   UNL     1      -4.572  12.800  22.325  0.00  0.00    +0.000 S 
ATOM     24  C   UNL     1      -5.489  14.291  22.624  0.00  0.00    +0.000 C 
ATOM     25  O   UNL     1      -5.365  11.979  21.437  0.00  0.00    +0.000 OA
ATOM     26  O   UNL     1      -4.137  12.316  23.621  0.00  0.00    +0.000 OA
ENDBRANCH  22  23
BRANCH  22  27
ATOM     27  C   UNL     1      -3.068  14.858  21.314  0.00  0.00    +0.000 C 
BRANCH  27  29
ATOM     28  C   UNL     1      -2.115  15.738  23.472  0.00  0.00    +0.000 C 
ATOM     29  C   UNL     1      -1.952  15.333  22.207  0.00  0.00    +0.000 C 
ENDBRANCH  27  29
ENDBRANCH  22  27
ENDBRANCH   1  22
TORSDOF 9
ENDMDL
MODEL 5
REMARK VINA RESULT:      -5.1      1.707      2.072
REMARK  Name = 
REMARK  13 active torsions:
REMARK  status: ('A' for Active; 'I' for Inactive)
REMARK    1  A    between atoms: C_2  and  C_3
REMARK    2  A    between atoms: C_3  and  N_4
REMARK    3  A    between atoms: N_4  and  C_5
REMARK    4  A    between atoms: N_4  and  S_25
REMARK    5  A    between atoms: C_7  and  O_8
REMARK    6  A    between atoms: O_8  and  C_9
REMARK    7  A    between atoms: C_12  and  C_13
REMARK    8  A    between atoms: C_13  and  O_15
REMARK    9  A    between atoms: O_15  and  C_16
REMARK   10  A    between atoms: C_16  and  C_17
REMARK   11  A    between atoms: C_18  and  C_19
REMARK   12  A    between atoms: C_21  and  N_22
REMARK   13  A    between atoms: S_25  and  C_26
REMARK                            x       y       z     vdW  Elec       q    Type
REMARK                         _______ _______ _______ _____ _____    ______ ____
ROOT
ATOM      1  C   UNL     1      -0.660  11.734  19.567  0.00  0.00    +0.000 A 
ATOM      2  C   UNL     1      -1.356  11.490  18.388  0.00  0.00    +0.000 A 
ATOM      3  C   UNL     1      -2.745  11.684  18.284  0.00  0.00    +0.000 A 
ATOM      4  C   UNL     1      -3.446  12.101  19.436  0.00  0.00    +0.000 A 
ATOM      5  N   UNL     1      -4.775  12.353  19.659  0.00  0.00    +0.000 N 
ATOM      6  C   UNL     1      -5.033  12.722  20.959  0.00  0.00    +0.000 A 
ATOM      7  C   UNL     1      -3.815  12.701  21.633  0.00  0.00    +0.000 A 
ATOM      8  C   UNL     1      -3.572  12.962  23.086  0.00  0.00    +0.000 C 
ATOM      9  C   UNL     1      -2.795  12.355  20.658  0.00  0.00    +0.000 A 
ATOM     10  C   UNL     1      -1.381  12.199  20.676  0.00  0.00    +0.000 A 
ATOM     11  H   UNL     1      -5.513  12.292  18.974  0.00  0.00    +0.000 HD
ENDROOT
BRANCH  10  12
ATOM     12  N   UNL     1      -0.676  12.638  21.850  0.00  0.00    +0.000 N 
ATOM     13  O   UNL     1      -0.374  11.792  22.698  0.00  0.00    +0.000 OA
ATOM     14  O   UNL     1      -0.400  13.847  21.914  0.00  0.00    +0.000 OA
ENDBRANCH  10  12
BRANCH   3  15
ATOM     15  O   UNL     1      -3.232  11.400  17.016  0.00  0.00    +0.000 OA
ATOM     16  C   UNL     1      -2.692  10.299  16.307  0.00  0.00    +0.000 C 
ENDBRANCH   3  15
BRANCH   6  17
ATOM     17  C   UNL     1      -6.389  13.067  21.330  0.00  0.00    +0.000 C 
ATOM     18  O   UNL     1      -6.910  14.145  21.069  0.00  0.00    +0.000 OA
BRANCH  17  19
ATOM     19  O   UNL     1      -6.945  12.092  22.086  0.00  0.00    +0.000 OA
BRANCH  19  20
ATOM     20  C   UNL     1      -7.911  12.518  23.051  0.00  0.00    +0.000 C 
ATOM     21  C   UNL     1      -7.154  13.005  24.275  0.00  0.00    +0.000 C 
ENDBRANCH  19  20
ENDBRANCH  17  19
ENDBRANCH   6  17
BRANCH   1  22
ATOM     22  N   UNL     1       0.736  11.384  19.590  0.00  0.00    +0.000 N 
BRANCH  22  23
ATOM     23  S   UNL     1       1.844  12.627  19.247  0.00  0.00    +0.000 S 
ATOM     24  C   UNL     1       0.759  13.897  18.644  0.00  0.00    +0.000 C 
ATOM     25  O   UNL     1       2.418  13.105  20.486  0.00  0.00    +0.000 OA
ATOM     26  O   UNL     1       2.675  12.228  18.128  0.00  0.00    +0.000 OA
ENDBRANCH  22  23
BRANCH  22  27
ATOM     27  C   UNL     1       1.173   9.981  19.515  0.00  0.00    +0.000 C 
BRANCH  27  29
ATOM     28  C   UNL     1       0.091   8.604  21.323  0.00  0.00    +0.000 C 
ATOM     29  C   UNL     1       1.100   9.366  20.887  0.00  0.00    +0.000 C 
ENDBRANCH  27  29
ENDBRANCH  22  27
ENDBRANCH   1  22
TORSDOF 9
ENDMDL
MODEL 6
REMARK VINA RESULT:      -5.1      8.196     12.186
REMARK  Name = 
REMARK  13 active torsions:
REMARK  status: ('A' for Active; 'I' for Inactive)
REMARK    1  A    between atoms: C_2  and  C_3
REMARK    2  A    between atoms: C_3  and  N_4
REMARK    3  A    between atoms: N_4  and  C_5
REMARK    4  A    between atoms: N_4  and  S_25
REMARK    5  A    between atoms: C_7  and  O_8
REMARK    6  A    between atoms: O_8  and  C_9
REMARK    7  A    between atoms: C_12  and  C_13
REMARK    8  A    between atoms: C_13  and  O_15
REMARK    9  A    between atoms: O_15  and  C_16
REMARK   10  A    between atoms: C_16  and  C_17
REMARK   11  A    between atoms: C_18  and  C_19
REMARK   12  A    between atoms: C_21  and  N_22
REMARK   13  A    between atoms: S_25  and  C_26
REMARK                            x       y       z     vdW  Elec       q    Type
REMARK                         _______ _______ _______ _____ _____    ______ ____
ROOT
ATOM      1  C   UNL     1       4.020   4.674  19.267  0.00  0.00    +0.000 A 
ATOM      2  C   UNL     1       5.263   5.079  19.744  0.00  0.00    +0.000 A 
ATOM      3  C   UNL     1       6.369   5.257  18.895  0.00  0.00    +0.000 A 
ATOM      4  C   UNL     1       6.206   4.971  17.521  0.00  0.00    +0.000 A 
ATOM      5  N   UNL     1       7.078   5.024  16.465  0.00  0.00    +0.000 N 
ATOM      6  C   UNL     1       6.499   4.631  15.281  0.00  0.00    +0.000 A 
ATOM      7  C   UNL     1       5.181   4.289  15.571  0.00  0.00    +0.000 A 
ATOM      8  C   UNL     1       4.154   3.738  14.632  0.00  0.00    +0.000 C 
ATOM      9  C   UNL     1       4.975   4.549  16.985  0.00  0.00    +0.000 A 
ATOM     10  C   UNL     1       3.882   4.451  17.890  0.00  0.00    +0.000 A 
ATOM     11  H   UNL     1       8.043   5.317  16.505  0.00  0.00    +0.000 HD
ENDROOT
BRANCH  10  12
ATOM     12  N   UNL     1       2.576   4.214  17.335  0.00  0.00    +0.000 N 
ATOM     13  O   UNL     1       2.286   3.059  17.004  0.00  0.00    +0.000 OA
ATOM     14  O   UNL     1       1.821   5.195  17.250  0.00  0.00    +0.000 OA
ENDBRANCH  10  12
BRANCH   3  15
ATOM     15  O   UNL     1       7.502   5.681  19.573  0.00  0.00    +0.000 OA
ATOM     16  C   UNL     1       8.247   6.767  19.050  0.00  0.00    +0.000 C 
ENDBRANCH   3  15
BRANCH   6  17
ATOM     17  C   UNL     1       7.288   4.684  14.067  0.00  0.00    +0.000 C 
ATOM     18  O   UNL     1       7.949   5.658  13.731  0.00  0.00    +0.000 OA
BRANCH  17  19
ATOM     19  O   UNL     1       7.102   3.568  13.323  0.00  0.00    +0.000 OA
BRANCH  19  20
ATOM     20  C   UNL     1       6.575   3.770  12.009  0.00  0.00    +0.000 C 
ATOM     21  C   UNL     1       5.766   2.537  11.643  0.00  0.00    +0.000 C 
ENDBRANCH  19  20
ENDBRANCH  17  19
ENDBRANCH   6  17
BRANCH   1  22
ATOM     22  N   UNL     1       2.997   4.408  20.244  0.00  0.00    +0.000 N 
BRANCH  22  23
ATOM     23  S   UNL     1       2.767   2.785  20.692  0.00  0.00    +0.000 S 
ATOM     24  C   UNL     1       1.128   2.488  20.076  0.00  0.00    +0.000 C 
ATOM     25  O   UNL     1       3.669   1.950  19.930  0.00  0.00    +0.000 OA
ATOM     26  O   UNL     1       2.687   2.696  22.137  0.00  0.00    +0.000 OA
ENDBRANCH  22  23
BRANCH  22  27
ATOM     27  C   UNL     1       1.951   5.398  20.542  0.00  0.00    +0.000 C 
BRANCH  27  29
ATOM     28  C   UNL     1       1.729   7.893  20.280  0.00  0.00    +0.000 C 
ATOM     29  C   UNL     1       2.422   6.761  20.107  0.00  0.00    +0.000 C 
ENDBRANCH  27  29
ENDBRANCH  22  27
ENDBRANCH   1  22
TORSDOF 9
ENDMDL
MODEL 7
REMARK VINA RESULT:      -5.0      2.470      3.525
REMARK  Name = 
REMARK  13 active torsions:
REMARK  status: ('A' for Active; 'I' for Inactive)
REMARK    1  A    between atoms: C_2  and  C_3
REMARK    2  A    between atoms: C_3  and  N_4
REMARK    3  A    between atoms: N_4  and  C_5
REMARK    4  A    between atoms: N_4  and  S_25
REMARK    5  A    between atoms: C_7  and  O_8
REMARK    6  A    between atoms: O_8  and  C_9
REMARK    7  A    between atoms: C_12  and  C_13
REMARK    8  A    between atoms: C_13  and  O_15
REMARK    9  A    between atoms: O_15  and  C_16
REMARK   10  A    between atoms: C_16  and  C_17
REMARK   11  A    between atoms: C_18  and  C_19
REMARK   12  A    between atoms: C_21  and  N_22
REMARK   13  A    between atoms: S_25  and  C_26
REMARK                            x       y       z     vdW  Elec       q    Type
REMARK                         _______ _______ _______ _____ _____    ______ ____
ROOT
ATOM      1  C   UNL     1      -1.979  12.362  20.414  0.00  0.00    +0.000 A 
ATOM      2  C   UNL     1      -2.966  12.172  19.452  0.00  0.00    +0.000 A 
ATOM      3  C   UNL     1      -4.336  12.255  19.758  0.00  0.00    +0.000 A 
ATOM      4  C   UNL     1      -4.704  12.499  21.100  0.00  0.00    +0.000 A 
ATOM      5  N   UNL     1      -5.927  12.613  21.708  0.00  0.00    +0.000 N 
ATOM      6  C   UNL     1      -5.826  12.833  23.062  0.00  0.00    +0.000 A 
ATOM      7  C   UNL     1      -4.468  12.854  23.367  0.00  0.00    +0.000 A 
ATOM      8  C   UNL     1      -3.838  12.996  24.717  0.00  0.00    +0.000 C 
ATOM      9  C   UNL     1      -3.749  12.691  22.116  0.00  0.00    +0.000 A 
ATOM     10  C   UNL     1      -2.381  12.657  21.725  0.00  0.00    +0.000 A 
ATOM     11  H   UNL     1      -6.825  12.554  21.251  0.00  0.00    +0.000 HD
ENDROOT
BRANCH  10  12
ATOM     12  N   UNL     1      -1.398  13.042  22.701  0.00  0.00    +0.000 N 
ATOM     13  O   UNL     1      -1.207  14.248  22.889  0.00  0.00    +0.000 OA
ATOM     14  O   UNL     1      -0.825  12.123  23.306  0.00  0.00    +0.000 OA
ENDBRANCH  10  12
BRANCH   3  15
ATOM     15  O   UNL     1      -5.145  12.051  18.651  0.00  0.00    +0.000 OA
ATOM     16  C   UNL     1      -6.099  13.040  18.308  0.00  0.00    +0.000 C 
ENDBRANCH   3  15
BRANCH   6  17
ATOM     17  C   UNL     1      -7.039  13.024  23.830  0.00  0.00    +0.000 C 
ATOM     18  O   UNL     1      -7.917  12.175  23.932  0.00  0.00    +0.000 OA
BRANCH  17  19
ATOM     19  O   UNL     1      -7.110  14.286  24.313  0.00  0.00    +0.000 OA
BRANCH  19  20
ATOM     20  C   UNL     1      -7.113  15.333  23.338  0.00  0.00    +0.000 C 
ATOM     21  C   UNL     1      -6.217  16.445  23.855  0.00  0.00    +0.000 C 
ENDBRANCH  19  20
ENDBRANCH  17  19
ENDBRANCH   6  17
BRANCH   1  22
ATOM     22  N   UNL     1      -0.616  12.134  20.010  0.00  0.00    +0.000 N 
BRANCH  22  23
ATOM     23  S   UNL     1       0.262  13.486  19.474  0.00  0.00    +0.000 S 
ATOM     24  C   UNL     1       1.528  13.588  20.717  0.00  0.00    +0.000 C 
ATOM     25  O   UNL     1       0.913  13.164  18.224  0.00  0.00    +0.000 OA
ATOM     26  O   UNL     1      -0.556  14.674  19.622  0.00  0.00    +0.000 OA
ENDBRANCH  22  23
BRANCH  22  27
ATOM     27  C   UNL     1      -0.130  10.781  19.696  0.00  0.00    +0.000 C 
BRANCH  27  29
ATOM     28  C   UNL     1      -0.153   8.906  21.376  0.00  0.00    +0.000 C 
ATOM     29  C   UNL     1       0.294  10.100  20.971  0.00  0.00    +0.000 C 
ENDBRANCH  27  29
ENDBRANCH  22  27
ENDBRANCH   1  22
TORSDOF 9
ENDMDL
MODEL 8
REMARK VINA RESULT:      -5.0      1.390      1.740
REMARK  Name = 
REMARK  13 active torsions:
REMARK  status: ('A' for Active; 'I' for Inactive)
REMARK    1  A    between atoms: C_2  and  C_3
REMARK    2  A    between atoms: C_3  and  N_4
REMARK    3  A    between atoms: N_4  and  C_5
REMARK    4  A    between atoms: N_4  and  S_25
REMARK    5  A    between atoms: C_7  and  O_8
REMARK    6  A    between atoms: O_8  and  C_9
REMARK    7  A    between atoms: C_12  and  C_13
REMARK    8  A    between atoms: C_13  and  O_15
REMARK    9  A    between atoms: O_15  and  C_16
REMARK   10  A    between atoms: C_16  and  C_17
REMARK   11  A    between atoms: C_18  and  C_19
REMARK   12  A    between atoms: C_21  and  N_22
REMARK   13  A    between atoms: S_25  and  C_26
REMARK                            x       y       z     vdW  Elec       q    Type
REMARK                         _______ _______ _______ _____ _____    ______ ____
ROOT
ATOM      1  C   UNL     1      -1.050  11.758  19.338  0.00  0.00    +0.000 A 
ATOM      2  C   UNL     1      -1.681  11.352  18.166  0.00  0.00    +0.000 A 
ATOM      3  C   UNL     1      -3.069  11.477  17.980  0.00  0.00    +0.000 A 
ATOM      4  C   UNL     1      -3.838  11.996  19.045  0.00  0.00    +0.000 A 
ATOM      5  N   UNL     1      -5.184  12.217  19.180  0.00  0.00    +0.000 N 
ATOM      6  C   UNL     1      -5.516  12.723  20.415  0.00  0.00    +0.000 A 
ATOM      7  C   UNL     1      -4.332  12.829  21.138  0.00  0.00    +0.000 A 
ATOM      8  C   UNL     1      -4.167  13.265  22.561  0.00  0.00    +0.000 C 
ATOM      9  C   UNL     1      -3.255  12.414  20.256  0.00  0.00    +0.000 A 
ATOM     10  C   UNL     1      -1.839  12.318  20.352  0.00  0.00    +0.000 A 
ATOM     11  H   UNL     1      -5.887  12.049  18.476  0.00  0.00    +0.000 HD
ENDROOT
BRANCH  10  12
ATOM     12  N   UNL     1      -1.207  12.918  21.497  0.00  0.00    +0.000 N 
ATOM     13  O   UNL     1      -0.914  12.187  22.449  0.00  0.00    +0.000 OA
ATOM     14  O   UNL     1      -0.979  14.136  21.432  0.00  0.00    +0.000 OA
ENDBRANCH  10  12
BRANCH   3  15
ATOM     15  O   UNL     1      -3.485  11.030  16.735  0.00  0.00    +0.000 OA
ATOM     16  C   UNL     1      -2.655  10.135  16.016  0.00  0.00    +0.000 C 
ENDBRANCH   3  15
BRANCH   6  17
ATOM     17  C   UNL     1      -6.900  13.054  20.684  0.00  0.00    +0.000 C 
ATOM     18  O   UNL     1      -7.795  12.949  19.855  0.00  0.00    +0.000 OA
BRANCH  17  19
ATOM     19  O   UNL     1      -7.036  13.587  21.921  0.00  0.00    +0.000 OA
BRANCH  19  20
ATOM     20  C   UNL     1      -7.775  12.806  22.864  0.00  0.00    +0.000 C 
ATOM     21  C   UNL     1      -7.632  13.470  24.223  0.00  0.00    +0.000 C 
ENDBRANCH  19  20
ENDBRANCH  17  19
ENDBRANCH   6  17
BRANCH   1  22
ATOM     22  N   UNL     1       0.355  11.470  19.461  0.00  0.00    +0.000 N 
BRANCH  22  23
ATOM     23  S   UNL     1       1.434  12.682  18.956  0.00  0.00    +0.000 S 
ATOM     24  C   UNL     1       2.188  13.135  20.499  0.00  0.00    +0.000 C 
ATOM     25  O   UNL     1       2.464  12.088  18.133  0.00  0.00    +0.000 OA
ATOM     26  O   UNL     1       0.678  13.837  18.512  0.00  0.00    +0.000 OA
ENDBRANCH  22  23
BRANCH  22  27
ATOM     27  C   UNL     1       0.839  10.091  19.630  0.00  0.00    +0.000 C 
BRANCH  27  29
ATOM     28  C   UNL     1      -0.166   8.799  21.543  0.00  0.00    +0.000 C 
ATOM     29  C   UNL     1       0.711   9.695  21.077  0.00  0.00    +0.000 C 
ENDBRANCH  27  29
ENDBRANCH  22  27
ENDBRANCH   1  22
TORSDOF 9
ENDMDL
MODEL 9
REMARK VINA RESULT:      -5.0      1.506      1.796
REMARK  Name = 
REMARK  13 active torsions:
REMARK  status: ('A' for Active; 'I' for Inactive)
REMARK    1  A    between atoms: C_2  and  C_3
REMARK    2  A    between atoms: C_3  and  N_4
REMARK    3  A    between atoms: N_4  and  C_5
REMARK    4  A    between atoms: N_4  and  S_25
REMARK    5  A    between atoms: C_7  and  O_8
REMARK    6  A    between atoms: O_8  and  C_9
REMARK    7  A    between atoms: C_12  and  C_13
REMARK    8  A    between atoms: C_13  and  O_15
REMARK    9  A    between atoms: O_15  and  C_16
REMARK   10  A    between atoms: C_16  and  C_17
REMARK   11  A    between atoms: C_18  and  C_19
REMARK   12  A    between atoms: C_21  and  N_22
REMARK   13  A    between atoms: S_25  and  C_26
REMARK                            x       y       z     vdW  Elec       q    Type
REMARK                         _______ _______ _______ _____ _____    ______ ____
ROOT
ATOM      1  C   UNL     1      -1.195  11.752  19.296  0.00  0.00    +0.000 A 
ATOM      2  C   UNL     1      -1.849  11.288  18.159  0.00  0.00    +0.000 A 
ATOM      3  C   UNL     1      -3.232  11.461  17.967  0.00  0.00    +0.000 A 
ATOM      4  C   UNL     1      -3.971  12.092  18.992  0.00  0.00    +0.000 A 
ATOM      5  N   UNL     1      -5.305  12.383  19.112  0.00  0.00    +0.000 N 
ATOM      6  C   UNL     1      -5.608  12.993  20.307  0.00  0.00    +0.000 A 
ATOM      7  C   UNL     1      -4.416  13.099  21.018  0.00  0.00    +0.000 A 
ATOM      8  C   UNL     1      -4.225  13.632  22.403  0.00  0.00    +0.000 C 
ATOM      9  C   UNL     1      -3.364  12.572  20.167  0.00  0.00    +0.000 A 
ATOM     10  C   UNL     1      -1.953  12.421  20.267  0.00  0.00    +0.000 A 
ATOM     11  H   UNL     1      -6.019  12.194  18.424  0.00  0.00    +0.000 HD
ENDROOT
BRANCH  10  12
ATOM     12  N   UNL     1      -1.289  13.075  21.362  0.00  0.00    +0.000 N 
ATOM     13  O   UNL     1      -0.972  12.392  22.342  0.00  0.00    +0.000 OA
ATOM     14  O   UNL     1      -1.059  14.287  21.230  0.00  0.00    +0.000 OA
ENDBRANCH  10  12
BRANCH   3  15
ATOM     15  O   UNL     1      -3.674  10.941  16.759  0.00  0.00    +0.000 OA
ATOM     16  C   UNL     1      -2.759  10.834  15.684  0.00  0.00    +0.000 C 
ENDBRANCH   3  15
BRANCH   6  17
ATOM     17  C   UNL     1      -6.975  13.405  20.553  0.00  0.00    +0.000 C 
ATOM     18  O   UNL     1      -7.477  14.411  20.068  0.00  0.00    +0.000 OA
BRANCH  17  19
ATOM     19  O   UNL     1      -7.565  12.595  21.463  0.00  0.00    +0.000 OA
BRANCH  19  20
ATOM     20  C   UNL     1      -7.916  13.203  22.710  0.00  0.00    +0.000 C 
ATOM     21  C   UNL     1      -7.338  12.342  23.820  0.00  0.00    +0.000 C 
ENDBRANCH  19  20
ENDBRANCH  17  19
ENDBRANCH   6  17
BRANCH   1  22
ATOM     22  N   UNL     1       0.196  11.411  19.438  0.00  0.00    +0.000 N 
BRANCH  22  23
ATOM     23  S   UNL     1       1.323  12.644  19.126  0.00  0.00    +0.000 S 
ATOM     24  C   UNL     1       2.440  11.816  18.020  0.00  0.00    +0.000 C 
ATOM     25  O   UNL     1       0.679  13.698  18.376  0.00  0.00    +0.000 OA
ATOM     26  O   UNL     1       2.072  12.921  20.337  0.00  0.00    +0.000 OA
ENDBRANCH  22  23
BRANCH  22  27
ATOM     27  C   UNL     1       0.640  10.008  19.455  0.00  0.00    +0.000 C 
BRANCH  27  29
ATOM     28  C   UNL     1       0.783   8.326  21.324  0.00  0.00    +0.000 C 
ATOM     29  C   UNL     1       0.883   9.585  20.880  0.00  0.00    +0.000 C 
ENDBRANCH  27  29
ENDBRANCH  22  27
ENDBRANCH   1  22
TORSDOF 9
ENDMDL
