MODEL 1
REMARK VINA RESULT:      -7.6      0.000      0.000
REMARK  Name = 
REMARK  9 active torsions:
REMARK  status: ('A' for Active; 'I' for Inactive)
REMARK    1  A    between atoms: C_1  and  C_2
REMARK    2  A    between atoms: C_2  and  C_3
REMARK    3  A    between atoms: C_2  and  N_7
REMARK    4  A    between atoms: C_3  and  C_4
REMARK    5  A    between atoms: C_4  and  O_6
REMARK    6  A    between atoms: C_8  and  C_10
REMARK    7  A    between atoms: N_17  and  C_18
REMARK    8  A    between atoms: C_18  and  C_19
REMARK    9  A    between atoms: C_19  and  C_20
REMARK                            x       y       z     vdW  Elec       q    Type
REMARK                         _______ _______ _______ _____ _____    ______ ____
ROOT
ATOM      1  C   UNL     1       2.856   6.959  18.543  0.00  0.00    +0.000 A 
ATOM      2  C   UNL     1       2.498   8.214  18.097  0.00  0.00    +0.000 A 
ATOM      3  C   UNL     1       1.633   8.900  19.013  0.00  0.00    +0.000 A 
ATOM      4  C   UNL     1       1.383   8.144  20.128  0.00  0.00    +0.000 A 
ATOM      5  S   UNL     1       2.225   6.670  20.117  0.00  0.00    +0.000 S 
ATOM      6  C   UNL     1       0.478   8.536  21.232  0.00  0.00    +0.000 C 
ATOM      7  C   UNL     1      -0.233   9.873  20.954  0.00  0.00    +0.000 C 
ATOM      8  N   UNL     1      -0.021  10.543  19.657  0.00  0.00    +0.000 N 
ATOM      9  C   UNL     1       1.036  10.203  18.802  0.00  0.00    +0.000 C 
ATOM     10  O   UNL     1       1.439  10.908  17.883  0.00  0.00    +0.000 OA
ENDROOT
BRANCH   1  12
ATOM     11  N   UNL     1       4.783   6.297  17.263  0.00  0.00    +0.000 N 
ATOM     12  C   UNL     1       3.611   5.902  17.885  0.00  0.00    +0.000 C 
ATOM     13  O   UNL     1       3.237   4.730  17.831  0.00  0.00    +0.000 OA
ATOM     14  H   UNL     1       5.206   7.181  17.531  0.00  0.00    +0.000 HD
BRANCH  11  16
ATOM     15  C   UNL     1       7.039   5.316  17.204  0.00  0.00    +0.000 C 
ATOM     16  C   UNL     1       5.639   5.328  16.592  0.00  0.00    +0.000 C 
BRANCH  16  17
ATOM     17  C   UNL     1       5.632   5.493  15.066  0.00  0.00    +0.000 C 
BRANCH  17  18
ATOM     18  C   UNL     1       6.759   4.798  14.347  0.00  0.00    +0.000 C 
ATOM     19  O   UNL     1       7.779   5.334  13.944  0.00  0.00    +0.000 OA
BRANCH  18  20
ATOM     20  O   UNL     1       6.506   3.482  14.149  0.00  0.00    +0.000 OA
ATOM     21  H   UNL     1       5.710   3.153  14.608  0.00  0.00    +0.000 HD
ENDBRANCH  18  20
ENDBRANCH  17  18
ENDBRANCH  16  17
ENDBRANCH  11  16
ENDBRANCH   1  12
BRANCH   8  22
ATOM     22  C   UNL     1      -0.716  11.827  19.468  0.00  0.00    +0.000 C 
BRANCH  22  23
ATOM     23  C   UNL     1      -1.708  11.828  18.299  0.00  0.00    +0.000 C 
BRANCH  23  24
ATOM     24  C   UNL     1      -2.499  10.526  18.074  0.00  0.00    +0.000 C 
ATOM     25  C   UNL     1      -2.217   9.840  16.733  0.00  0.00    +0.000 C 
ATOM     26  C   UNL     1      -2.762  10.648  15.555  0.00  0.00    +0.000 C 
ATOM     27  N   UNL     1      -4.197  10.905  15.688  0.00  0.00    +0.000 NA
ATOM     28  C   UNL     1      -4.507  11.608  16.937  0.00  0.00    +0.000 C 
ATOM     29  C   UNL     1      -4.008  10.836  18.162  0.00  0.00    +0.000 C 
ATOM     30  H   UNL     1      -4.692  10.013  15.690  0.00  0.00    +0.000 HD
ENDBRANCH  23  24
ENDBRANCH  22  23
ENDBRANCH   8  22
TORSDOF 8
ENDMDL
MODEL 2
REMARK VINA RESULT:      -7.4      2.121      2.658
REMARK  Name = 
REMARK  9 active torsions:
REMARK  status: ('A' for Active; 'I' for Inactive)
REMARK    1  A    between atoms: C_1  and  C_2
REMARK    2  A    between atoms: C_2  and  C_3
REMARK    3  A    between atoms: C_2  and  N_7
REMARK    4  A    between atoms: C_3  and  C_4
REMARK    5  A    between atoms: C_4  and  O_6
REMARK    6  A    between atoms: C_8  and  C_10
REMARK    7  A    between atoms: N_17  and  C_18
REMARK    8  A    between atoms: C_18  and  C_19
REMARK    9  A    between atoms: C_19  and  C_20
REMARK                            x       y       z     vdW  Elec       q    Type
REMARK                         _______ _______ _______ _____ _____    ______ ____
ROOT
ATOM      1  C   UNL     1       2.576   6.810  19.370  0.00  0.00    +0.000 A 
ATOM      2  C   UNL     1       2.453   7.931  18.576  0.00  0.00    +0.000 A 
ATOM      3  C   UNL     1       1.587   8.921  19.147  0.00  0.00    +0.000 A 
ATOM      4  C   UNL     1       1.101   8.519  20.363  0.00  0.00    +0.000 A 
ATOM      5  S   UNL     1       1.724   7.018  20.851  0.00  0.00    +0.000 S 
ATOM      6  C   UNL     1       0.131   9.283  21.182  0.00  0.00    +0.000 C 
ATOM      7  C   UNL     1      -0.348  10.562  20.473  0.00  0.00    +0.000 C 
ATOM      8  N   UNL     1       0.112  10.836  19.098  0.00  0.00    +0.000 N 
ATOM      9  C   UNL     1       1.207  10.175  18.528  0.00  0.00    +0.000 C 
ATOM     10  O   UNL     1       1.813  10.564  17.535  0.00  0.00    +0.000 OA
ENDROOT
BRANCH   1  12
ATOM     11  N   UNL     1       3.337   5.158  17.794  0.00  0.00    +0.000 N 
ATOM     12  C   UNL     1       3.251   5.544  19.122  0.00  0.00    +0.000 C 
ATOM     13  O   UNL     1       3.690   4.819  20.014  0.00  0.00    +0.000 OA
ATOM     14  H   UNL     1       3.217   5.861  17.071  0.00  0.00    +0.000 HD
BRANCH  11  16
ATOM     15  C   UNL     1       4.912   4.142  16.201  0.00  0.00    +0.000 C 
ATOM     16  C   UNL     1       4.011   3.924  17.415  0.00  0.00    +0.000 C 
BRANCH  16  17
ATOM     17  C   UNL     1       3.039   2.746  17.261  0.00  0.00    +0.000 C 
BRANCH  17  18
ATOM     18  C   UNL     1       3.008   1.792  18.427  0.00  0.00    +0.000 C 
ATOM     19  O   UNL     1       2.292   1.899  19.410  0.00  0.00    +0.000 OA
BRANCH  18  20
ATOM     20  O   UNL     1       3.911   0.791  18.294  0.00  0.00    +0.000 OA
ATOM     21  H   UNL     1       3.707   0.159  17.578  0.00  0.00    +0.000 HD
ENDBRANCH  18  20
ENDBRANCH  17  18
ENDBRANCH  16  17
ENDBRANCH  11  16
ENDBRANCH   1  12
BRANCH   8  22
ATOM     22  C   UNL     1      -0.370  12.088  18.490  0.00  0.00    +0.000 C 
BRANCH  22  23
ATOM     23  C   UNL     1      -1.822  12.019  18.000  0.00  0.00    +0.000 C 
BRANCH  23  24
ATOM     24  C   UNL     1      -2.422  10.611  17.840  0.00  0.00    +0.000 C 
ATOM     25  C   UNL     1      -2.125   9.946  16.492  0.00  0.00    +0.000 C 
ATOM     26  C   UNL     1      -2.855  10.640  15.343  0.00  0.00    +0.000 C 
ATOM     27  N   UNL     1      -4.302  10.685  15.565  0.00  0.00    +0.000 NA
ATOM     28  C   UNL     1      -4.635  11.361  16.822  0.00  0.00    +0.000 C 
ATOM     29  C   UNL     1      -3.953  10.697  18.022  0.00  0.00    +0.000 C 
ATOM     30  H   UNL     1      -4.658   9.730  15.608  0.00  0.00    +0.000 HD
ENDBRANCH  23  24
ENDBRANCH  22  23
ENDBRANCH   8  22
TORSDOF 8
ENDMDL
MODEL 3
REMARK VINA RESULT:      -7.4      2.389      3.532
REMARK  Name = 
REMARK  9 active torsions:
REMARK  status: ('A' for Active; 'I' for Inactive)
REMARK    1  A    between atoms: C_1  and  C_2
REMARK    2  A    between atoms: C_2  and  C_3
REMARK    3  A    between atoms: C_2  and  N_7
REMARK    4  A    between atoms: C_3  and  C_4
REMARK    5  A    between atoms: C_4  and  O_6
REMARK    6  A    between atoms: C_8  and  C_10
REMARK    7  A    between atoms: N_17  and  C_18
REMARK    8  A    between atoms: C_18  and  C_19
REMARK    9  A    between atoms: C_19  and  C_20
REMARK                            x       y       z     vdW  Elec       q    Type
REMARK                         _______ _______ _______ _____ _____    ______ ____
ROOT
ATOM      1  C   UNL     1       2.506   7.137  19.180  0.00  0.00    +0.000 A 
ATOM      2  C   UNL     1       2.247   8.322  18.524  0.00  0.00    +0.000 A 
ATOM      3  C   UNL     1       1.397   9.197  19.277  0.00  0.00    +0.000 A 
ATOM      4  C   UNL     1       1.058   8.648  20.485  0.00  0.00    +0.000 A 
ATOM      5  S   UNL     1       1.800   7.145  20.750  0.00  0.00    +0.000 S 
ATOM      6  C   UNL     1       0.141   9.267  21.470  0.00  0.00    +0.000 C 
ATOM      7  C   UNL     1      -0.470  10.580  20.950  0.00  0.00    +0.000 C 
ATOM      8  N   UNL     1      -0.167  11.017  19.574  0.00  0.00    +0.000 N 
ATOM      9  C   UNL     1       0.895  10.482  18.833  0.00  0.00    +0.000 C 
ATOM     10  O   UNL     1       1.376  11.003  17.833  0.00  0.00    +0.000 OA
ENDROOT
BRANCH   1  12
ATOM     11  N   UNL     1       2.602   4.737  19.031  0.00  0.00    +0.000 N 
ATOM     12  C   UNL     1       3.213   5.944  18.735  0.00  0.00    +0.000 C 
ATOM     13  O   UNL     1       4.305   5.971  18.167  0.00  0.00    +0.000 OA
ATOM     14  H   UNL     1       1.610   4.731  19.251  0.00  0.00    +0.000 HD
BRANCH  11  16
ATOM     15  C   UNL     1       2.537   2.946  17.345  0.00  0.00    +0.000 C 
ATOM     16  C   UNL     1       3.198   3.474  18.617  0.00  0.00    +0.000 C 
BRANCH  16  17
ATOM     17  C   UNL     1       3.255   2.448  19.756  0.00  0.00    +0.000 C 
BRANCH  17  18
ATOM     18  C   UNL     1       2.190   2.612  20.811  0.00  0.00    +0.000 C 
ATOM     19  O   UNL     1       1.008   2.826  20.596  0.00  0.00    +0.000 OA
BRANCH  18  20
ATOM     20  O   UNL     1       2.696   2.535  22.065  0.00  0.00    +0.000 OA
ATOM     21  H   UNL     1       3.011   3.386  22.424  0.00  0.00    +0.000 HD
ENDBRANCH  18  20
ENDBRANCH  17  18
ENDBRANCH  16  17
ENDBRANCH  11  16
ENDBRANCH   1  12
BRANCH   8  22
ATOM     22  C   UNL     1      -0.769  12.292  19.150  0.00  0.00    +0.000 C 
BRANCH  22  23
ATOM     23  C   UNL     1      -1.864  12.138  18.087  0.00  0.00    +0.000 C 
BRANCH  23  24
ATOM     24  C   UNL     1      -2.555  10.764  18.015  0.00  0.00    +0.000 C 
ATOM     25  C   UNL     1      -2.199   9.943  16.771  0.00  0.00    +0.000 C 
ATOM     26  C   UNL     1      -2.775  10.560  15.497  0.00  0.00    +0.000 C 
ATOM     27  N   UNL     1      -4.228  10.724  15.582  0.00  0.00    +0.000 NA
ATOM     28  C   UNL     1      -4.612  11.550  16.731  0.00  0.00    +0.000 C 
ATOM     29  C   UNL     1      -4.084  10.971  18.047  0.00  0.00    +0.000 C 
ATOM     30  H   UNL     1      -4.658   9.806  15.687  0.00  0.00    +0.000 HD
ENDBRANCH  23  24
ENDBRANCH  22  23
ENDBRANCH   8  22
TORSDOF 8
ENDMDL
MODEL 4
REMARK VINA RESULT:      -7.3      0.941      1.020
REMARK  Name = 
REMARK  9 active torsions:
REMARK  status: ('A' for Active; 'I' for Inactive)
REMARK    1  A    between atoms: C_1  and  C_2
REMARK    2  A    between atoms: C_2  and  C_3
REMARK    3  A    between atoms: C_2  and  N_7
REMARK    4  A    between atoms: C_3  and  C_4
REMARK    5  A    between atoms: C_4  and  O_6
REMARK    6  A    between atoms: C_8  and  C_10
REMARK    7  A    between atoms: N_17  and  C_18
REMARK    8  A    between atoms: C_18  and  C_19
REMARK    9  A    between atoms: C_19  and  C_20
REMARK                            x       y       z     vdW  Elec       q    Type
REMARK                         _______ _______ _______ _____ _____    ______ ____
ROOT
ATOM      1  C   UNL     1       3.489   6.406  18.230  0.00  0.00    +0.000 A 
ATOM      2  C   UNL     1       3.100   7.647  17.768  0.00  0.00    +0.000 A 
ATOM      3  C   UNL     1       2.196   8.311  18.660  0.00  0.00    +0.000 A 
ATOM      4  C   UNL     1       1.947   7.555  19.775  0.00  0.00    +0.000 A 
ATOM      5  S   UNL     1       2.835   6.108  19.793  0.00  0.00    +0.000 S 
ATOM      6  C   UNL     1       1.008   7.926  20.859  0.00  0.00    +0.000 C 
ATOM      7  C   UNL     1       0.261   9.237  20.556  0.00  0.00    +0.000 C 
ATOM      8  N   UNL     1       0.478   9.904  19.259  0.00  0.00    +0.000 N 
ATOM      9  C   UNL     1       1.562   9.593  18.427  0.00  0.00    +0.000 C 
ATOM     10  O   UNL     1       1.961  10.304  17.512  0.00  0.00    +0.000 OA
ENDROOT
BRANCH   1  12
ATOM     11  N   UNL     1       5.611   5.700  17.342  0.00  0.00    +0.000 N 
ATOM     12  C   UNL     1       4.290   5.369  17.595  0.00  0.00    +0.000 C 
ATOM     13  O   UNL     1       3.842   4.274  17.255  0.00  0.00    +0.000 OA
ATOM     14  H   UNL     1       6.028   6.474  17.850  0.00  0.00    +0.000 HD
BRANCH  11  16
ATOM     15  C   UNL     1       7.727   4.478  17.635  0.00  0.00    +0.000 C 
ATOM     16  C   UNL     1       6.521   4.738  16.734  0.00  0.00    +0.000 C 
BRANCH  16  17
ATOM     17  C   UNL     1       6.893   5.110  15.293  0.00  0.00    +0.000 C 
BRANCH  17  18
ATOM     18  C   UNL     1       6.185   4.311  14.228  0.00  0.00    +0.000 C 
ATOM     19  O   UNL     1       6.729   3.719  13.310  0.00  0.00    +0.000 OA
BRANCH  18  20
ATOM     20  O   UNL     1       4.839   4.348  14.370  0.00  0.00    +0.000 OA
ATOM     21  H   UNL     1       4.422   5.168  14.042  0.00  0.00    +0.000 HD
ENDBRANCH  18  20
ENDBRANCH  17  18
ENDBRANCH  16  17
ENDBRANCH  11  16
ENDBRANCH   1  12
BRANCH   8  22
ATOM     22  C   UNL     1      -0.253  11.164  19.046  0.00  0.00    +0.000 C 
BRANCH  22  23
ATOM     23  C   UNL     1      -1.071  11.195  17.749  0.00  0.00    +0.000 C 
BRANCH  23  24
ATOM     24  C   UNL     1      -2.065  10.037  17.541  0.00  0.00    +0.000 C 
ATOM     25  C   UNL     1      -2.383   9.734  16.074  0.00  0.00    +0.000 C 
ATOM     26  C   UNL     1      -3.193  10.854  15.423  0.00  0.00    +0.000 C 
ATOM     27  N   UNL     1      -4.434  11.123  16.153  0.00  0.00    +0.000 NA
ATOM     28  C   UNL     1      -4.173  11.471  17.553  0.00  0.00    +0.000 C 
ATOM     29  C   UNL     1      -3.382  10.374  18.272  0.00  0.00    +0.000 C 
ATOM     30  H   UNL     1      -5.016  10.286  16.133  0.00  0.00    +0.000 HD
ENDBRANCH  23  24
ENDBRANCH  22  23
ENDBRANCH   8  22
TORSDOF 8
ENDMDL
MODEL 5
REMARK VINA RESULT:      -7.1      4.456      9.979
REMARK  Name = 
REMARK  9 active torsions:
REMARK  status: ('A' for Active; 'I' for Inactive)
REMARK    1  A    between atoms: C_1  and  C_2
REMARK    2  A    between atoms: C_2  and  C_3
REMARK    3  A    between atoms: C_2  and  N_7
REMARK    4  A    between atoms: C_3  and  C_4
REMARK    5  A    between atoms: C_4  and  O_6
REMARK    6  A    between atoms: C_8  and  C_10
REMARK    7  A    between atoms: N_17  and  C_18
REMARK    8  A    between atoms: C_18  and  C_19
REMARK    9  A    between atoms: C_19  and  C_20
REMARK                            x       y       z     vdW  Elec       q    Type
REMARK                         _______ _______ _______ _____ _____    ______ ____
ROOT
ATOM      1  C   UNL     1      -0.579  11.113  20.548  0.00  0.00    +0.000 A 
ATOM      2  C   UNL     1       0.052  10.027  21.117  0.00  0.00    +0.000 A 
ATOM      3  C   UNL     1       0.906   9.338  20.194  0.00  0.00    +0.000 A 
ATOM      4  C   UNL     1       0.903   9.940  18.963  0.00  0.00    +0.000 A 
ATOM      5  S   UNL     1      -0.045  11.348  18.929  0.00  0.00    +0.000 S 
ATOM      6  C   UNL     1       1.629   9.439  17.773  0.00  0.00    +0.000 C 
ATOM      7  C   UNL     1       2.335   8.099  18.044  0.00  0.00    +0.000 C 
ATOM      8  N   UNL     1       2.156   7.445  19.354  0.00  0.00    +0.000 N 
ATOM      9  C   UNL     1       1.653   8.127  20.470  0.00  0.00    +0.000 C 
ATOM     10  O   UNL     1       1.766   7.741  21.628  0.00  0.00    +0.000 OA
ENDROOT
BRANCH   1  12
ATOM     11  N   UNL     1      -1.485  12.306  22.431  0.00  0.00    +0.000 N 
ATOM     12  C   UNL     1      -1.600  12.002  21.085  0.00  0.00    +0.000 C 
ATOM     13  O   UNL     1      -2.540  12.440  20.422  0.00  0.00    +0.000 OA
ATOM     14  H   UNL     1      -0.590  12.165  22.891  0.00  0.00    +0.000 HD
BRANCH  11  16
ATOM     15  C   UNL     1      -1.703  14.246  23.929  0.00  0.00    +0.000 C 
ATOM     16  C   UNL     1      -2.431  13.205  23.080  0.00  0.00    +0.000 C 
BRANCH  16  17
ATOM     17  C   UNL     1      -3.535  12.453  23.834  0.00  0.00    +0.000 C 
BRANCH  17  18
ATOM     18  C   UNL     1      -4.937  12.924  23.543  0.00  0.00    +0.000 C 
ATOM     19  O   UNL     1      -5.708  12.405  22.752  0.00  0.00    +0.000 OA
BRANCH  18  20
ATOM     20  O   UNL     1      -5.256  14.042  24.238  0.00  0.00    +0.000 OA
ATOM     21  H   UNL     1      -5.335  14.846  23.691  0.00  0.00    +0.000 HD
ENDBRANCH  18  20
ENDBRANCH  17  18
ENDBRANCH  16  17
ENDBRANCH  11  16
ENDBRANCH   1  12
BRANCH   8  22
ATOM     22  C   UNL     1       2.876   6.176  19.550  0.00  0.00    +0.000 C 
BRANCH  22  23
ATOM     23  C   UNL     1       1.956   4.958  19.694  0.00  0.00    +0.000 C 
BRANCH  23  24
ATOM     24  C   UNL     1       1.564   4.242  18.388  0.00  0.00    +0.000 C 
ATOM     25  C   UNL     1       0.859   2.897  18.592  0.00  0.00    +0.000 C 
ATOM     26  C   UNL     1       1.806   1.839  19.160  0.00  0.00    +0.000 C 
ATOM     27  N   UNL     1       2.987   1.656  18.315  0.00  0.00    +0.000 NA
ATOM     28  C   UNL     1       3.723   2.911  18.135  0.00  0.00    +0.000 C 
ATOM     29  C   UNL     1       2.835   4.010  17.544  0.00  0.00    +0.000 C 
ATOM     30  H   UNL     1       2.688   1.325  17.398  0.00  0.00    +0.000 HD
ENDBRANCH  23  24
ENDBRANCH  22  23
ENDBRANCH   8  22
TORSDOF 8
ENDMDL
MODEL 6
REMARK VINA RESULT:      -7.1      2.222      2.760
REMARK  Name = 
REMARK  9 active torsions:
REMARK  status: ('A' for Active; 'I' for Inactive)
REMARK    1  A    between atoms: C_1  and  C_2
REMARK    2  A    between atoms: C_2  and  C_3
REMARK    3  A    between atoms: C_2  and  N_7
REMARK    4  A    between atoms: C_3  and  C_4
REMARK    5  A    between atoms: C_4  and  O_6
REMARK    6  A    between atoms: C_8  and  C_10
REMARK    7  A    between atoms: N_17  and  C_18
REMARK    8  A    between atoms: C_18  and  C_19
REMARK    9  A    between atoms: C_19  and  C_20
REMARK                            x       y       z     vdW  Elec       q    Type
REMARK                         _______ _______ _______ _____ _____    ______ ____
ROOT
ATOM      1  C   UNL     1       2.463   7.020  19.613  0.00  0.00    +0.000 A 
ATOM      2  C   UNL     1       2.306   8.174  18.875  0.00  0.00    +0.000 A 
ATOM      3  C   UNL     1       1.402   9.104  19.488  0.00  0.00    +0.000 A 
ATOM      4  C   UNL     1       0.923   8.626  20.678  0.00  0.00    +0.000 A 
ATOM      5  S   UNL     1       1.595   7.124  21.095  0.00  0.00    +0.000 S 
ATOM      6  C   UNL     1      -0.078   9.313  21.527  0.00  0.00    +0.000 C 
ATOM      7  C   UNL     1      -0.596  10.609  20.879  0.00  0.00    +0.000 C 
ATOM      8  N   UNL     1      -0.138  10.968  19.524  0.00  0.00    +0.000 N 
ATOM      9  C   UNL     1       0.983  10.374  18.929  0.00  0.00    +0.000 C 
ATOM     10  O   UNL     1       1.581  10.833  17.962  0.00  0.00    +0.000 OA
ENDROOT
BRANCH   1  12
ATOM     11  N   UNL     1       3.250   5.452  17.966  0.00  0.00    +0.000 N 
ATOM     12  C   UNL     1       3.183   5.792  19.307  0.00  0.00    +0.000 C 
ATOM     13  O   UNL     1       3.675   5.059  20.164  0.00  0.00    +0.000 OA
ATOM     14  H   UNL     1       3.082   6.172  17.269  0.00  0.00    +0.000 HD
BRANCH  11  16
ATOM     15  C   UNL     1       4.795   4.544  16.280  0.00  0.00    +0.000 C 
ATOM     16  C   UNL     1       3.964   4.260  17.530  0.00  0.00    +0.000 C 
BRANCH  16  17
ATOM     17  C   UNL     1       3.044   3.039  17.397  0.00  0.00    +0.000 C 
BRANCH  17  18
ATOM     18  C   UNL     1       1.646   3.237  17.923  0.00  0.00    +0.000 C 
ATOM     19  O   UNL     1       1.168   2.671  18.893  0.00  0.00    +0.000 OA
BRANCH  18  20
ATOM     20  O   UNL     1       0.932   4.104  17.166  0.00  0.00    +0.000 OA
ATOM     21  H   UNL     1       0.609   3.731  16.324  0.00  0.00    +0.000 HD
ENDBRANCH  18  20
ENDBRANCH  17  18
ENDBRANCH  16  17
ENDBRANCH  11  16
ENDBRANCH   1  12
BRANCH   8  22
ATOM     22  C   UNL     1      -0.659  12.231  18.975  0.00  0.00    +0.000 C 
BRANCH  22  23
ATOM     23  C   UNL     1      -1.696  12.041  17.861  0.00  0.00    +0.000 C 
BRANCH  23  24
ATOM     24  C   UNL     1      -2.446  10.697  17.848  0.00  0.00    +0.000 C 
ATOM     25  C   UNL     1      -2.220   9.860  16.585  0.00  0.00    +0.000 C 
ATOM     26  C   UNL     1      -2.867  10.497  15.356  0.00  0.00    +0.000 C 
ATOM     27  N   UNL     1      -4.301  10.721  15.552  0.00  0.00    +0.000 NA
ATOM     28  C   UNL     1      -4.562  11.564  16.723  0.00  0.00    +0.000 C 
ATOM     29  C   UNL     1      -3.958  10.967  17.997  0.00  0.00    +0.000 C 
ATOM     30  H   UNL     1      -4.759   9.821  15.695  0.00  0.00    +0.000 HD
ENDBRANCH  23  24
ENDBRANCH  22  23
ENDBRANCH   8  22
TORSDOF 8
ENDMDL
MODEL 7
REMARK VINA RESULT:      -7.0      4.059      9.593
REMARK  Name = 
REMARK  9 active torsions:
REMARK  status: ('A' for Active; 'I' for Inactive)
REMARK    1  A    between atoms: C_1  and  C_2
REMARK    2  A    between atoms: C_2  and  C_3
REMARK    3  A    between atoms: C_2  and  N_7
REMARK    4  A    between atoms: C_3  and  C_4
REMARK    5  A    between atoms: C_4  and  O_6
REMARK    6  A    between atoms: C_8  and  C_10
REMARK    7  A    between atoms: N_17  and  C_18
REMARK    8  A    between atoms: C_18  and  C_19
REMARK    9  A    between atoms: C_19  and  C_20
REMARK                            x       y       z     vdW  Elec       q    Type
REMARK                         _______ _______ _______ _____ _____    ______ ____
ROOT
ATOM      1  C   UNL     1      -0.240  11.559  20.694  0.00  0.00    +0.000 A 
ATOM      2  C   UNL     1       0.376  11.149  19.530  0.00  0.00    +0.000 A 
ATOM      3  C   UNL     1       0.874   9.807  19.610  0.00  0.00    +0.000 A 
ATOM      4  C   UNL     1       0.600   9.244  20.828  0.00  0.00    +0.000 A 
ATOM      5  S   UNL     1      -0.301  10.272  21.835  0.00  0.00    +0.000 S 
ATOM      6  C   UNL     1       1.036   7.893  21.255  0.00  0.00    +0.000 C 
ATOM      7  C   UNL     1       1.917   7.206  20.196  0.00  0.00    +0.000 C 
ATOM      8  N   UNL     1       2.288   7.950  18.978  0.00  0.00    +0.000 N 
ATOM      9  C   UNL     1       1.622   9.116  18.579  0.00  0.00    +0.000 C 
ATOM     10  O   UNL     1       1.675   9.595  17.451  0.00  0.00    +0.000 OA
ENDROOT
BRANCH   1  12
ATOM     11  N   UNL     1      -1.435  12.906  22.290  0.00  0.00    +0.000 N 
ATOM     12  C   UNL     1      -0.771  12.860  21.076  0.00  0.00    +0.000 C 
ATOM     13  O   UNL     1      -0.690  13.864  20.368  0.00  0.00    +0.000 OA
ATOM     14  H   UNL     1      -1.270  12.166  22.967  0.00  0.00    +0.000 HD
BRANCH  11  16
ATOM     15  C   UNL     1      -1.170  14.685  23.968  0.00  0.00    +0.000 C 
ATOM     16  C   UNL     1      -1.991  14.155  22.794  0.00  0.00    +0.000 C 
BRANCH  16  17
ATOM     17  C   UNL     1      -3.494  14.056  23.084  0.00  0.00    +0.000 C 
BRANCH  17  18
ATOM     18  C   UNL     1      -4.039  12.652  23.137  0.00  0.00    +0.000 C 
ATOM     19  O   UNL     1      -3.995  11.912  24.107  0.00  0.00    +0.000 OA
BRANCH  18  20
ATOM     20  O   UNL     1      -4.565  12.261  21.952  0.00  0.00    +0.000 OA
ATOM     21  H   UNL     1      -3.966  11.717  21.406  0.00  0.00    +0.000 HD
ENDBRANCH  18  20
ENDBRANCH  17  18
ENDBRANCH  16  17
ENDBRANCH  11  16
ENDBRANCH   1  12
BRANCH   8  22
ATOM     22  C   UNL     1       3.116   7.224  18.001  0.00  0.00    +0.000 C 
BRANCH  22  23
ATOM     23  C   UNL     1       3.483   5.800  18.437  0.00  0.00    +0.000 C 
BRANCH  23  24
ATOM     24  C   UNL     1       2.975   4.658  17.536  0.00  0.00    +0.000 C 
ATOM     25  C   UNL     1       1.536   4.219  17.825  0.00  0.00    +0.000 C 
ATOM     26  C   UNL     1       1.415   3.517  19.177  0.00  0.00    +0.000 C 
ATOM     27  N   UNL     1       2.314   2.365  19.275  0.00  0.00    +0.000 NA
ATOM     28  C   UNL     1       3.712   2.750  19.057  0.00  0.00    +0.000 C 
ATOM     29  C   UNL     1       3.906   3.439  17.703  0.00  0.00    +0.000 C 
ATOM     30  H   UNL     1       2.054   1.683  18.563  0.00  0.00    +0.000 HD
ENDBRANCH  23  24
ENDBRANCH  22  23
ENDBRANCH   8  22
TORSDOF 8
ENDMDL
MODEL 8
REMARK VINA RESULT:      -7.0      3.984      9.759
REMARK  Name = 
REMARK  9 active torsions:
REMARK  status: ('A' for Active; 'I' for Inactive)
REMARK    1  A    between atoms: C_1  and  C_2
REMARK    2  A    between atoms: C_2  and  C_3
REMARK    3  A    between atoms: C_2  and  N_7
REMARK    4  A    between atoms: C_3  and  C_4
REMARK    5  A    between atoms: C_4  and  O_6
REMARK    6  A    between atoms: C_8  and  C_10
REMARK    7  A    between atoms: N_17  and  C_18
REMARK    8  A    between atoms: C_18  and  C_19
REMARK    9  A    between atoms: C_19  and  C_20
REMARK                            x       y       z     vdW  Elec       q    Type
REMARK                         _______ _______ _______ _____ _____    ______ ____
ROOT
ATOM      1  C   UNL     1      -0.510  10.980  21.882  0.00  0.00    +0.000 A 
ATOM      2  C   UNL     1      -0.088  10.934  20.570  0.00  0.00    +0.000 A 
ATOM      3  C   UNL     1       0.579   9.706  20.247  0.00  0.00    +0.000 A 
ATOM      4  C   UNL     1       0.620   8.860  21.323  0.00  0.00    +0.000 A 
ATOM      5  S   UNL     1      -0.187   9.488  22.678  0.00  0.00    +0.000 S 
ATOM      6  C   UNL     1       1.294   7.541  21.339  0.00  0.00    +0.000 C 
ATOM      7  C   UNL     1       2.030   7.249  20.019  0.00  0.00    +0.000 C 
ATOM      8  N   UNL     1       2.061   8.285  18.970  0.00  0.00    +0.000 N 
ATOM      9  C   UNL     1       1.191   9.382  18.974  0.00  0.00    +0.000 C 
ATOM     10  O   UNL     1       0.963  10.091  17.999  0.00  0.00    +0.000 OA
ENDROOT
BRANCH   1  12
ATOM     11  N   UNL     1      -2.498  12.061  22.702  0.00  0.00    +0.000 N 
ATOM     12  C   UNL     1      -1.114  12.064  22.644  0.00  0.00    +0.000 C 
ATOM     13  O   UNL     1      -0.467  12.964  23.179  0.00  0.00    +0.000 OA
ATOM     14  H   UNL     1      -2.995  11.199  22.495  0.00  0.00    +0.000 HD
BRANCH  11  16
ATOM     15  C   UNL     1      -4.136  12.443  24.497  0.00  0.00    +0.000 C 
ATOM     16  C   UNL     1      -3.219  13.079  23.454  0.00  0.00    +0.000 C 
BRANCH  16  17
ATOM     17  C   UNL     1      -3.924  14.093  22.545  0.00  0.00    +0.000 C 
BRANCH  17  18
ATOM     18  C   UNL     1      -4.140  13.632  21.126  0.00  0.00    +0.000 C 
ATOM     19  O   UNL     1      -5.000  12.847  20.760  0.00  0.00    +0.000 OA
BRANCH  18  20
ATOM     20  O   UNL     1      -3.230  14.159  20.272  0.00  0.00    +0.000 OA
ATOM     21  H   UNL     1      -3.598  14.805  19.641  0.00  0.00    +0.000 HD
ENDBRANCH  18  20
ENDBRANCH  17  18
ENDBRANCH  16  17
ENDBRANCH  11  16
ENDBRANCH   1  12
BRANCH   8  22
ATOM     22  C   UNL     1       2.765   7.928  17.727  0.00  0.00    +0.000 C 
BRANCH  22  23
ATOM     23  C   UNL     1       3.986   7.026  17.943  0.00  0.00    +0.000 C 
BRANCH  23  24
ATOM     24  C   UNL     1       3.967   5.667  17.220  0.00  0.00    +0.000 C 
ATOM     25  C   UNL     1       3.404   4.514  18.057  0.00  0.00    +0.000 C 
ATOM     26  C   UNL     1       4.330   4.146  19.216  0.00  0.00    +0.000 C 
ATOM     27  N   UNL     1       5.676   3.808  18.749  0.00  0.00    +0.000 NA
ATOM     28  C   UNL     1       6.276   4.906  17.986  0.00  0.00    +0.000 C 
ATOM     29  C   UNL     1       5.406   5.308  16.791  0.00  0.00    +0.000 C 
ATOM     30  H   UNL     1       5.619   2.989  18.144  0.00  0.00    +0.000 HD
ENDBRANCH  23  24
ENDBRANCH  22  23
ENDBRANCH   8  22
TORSDOF 8
ENDMDL
MODEL 9
REMARK VINA RESULT:      -7.0      4.469     10.054
REMARK  Name = 
REMARK  9 active torsions:
REMARK  status: ('A' for Active; 'I' for Inactive)
REMARK    1  A    between atoms: C_1  and  C_2
REMARK    2  A    between atoms: C_2  and  C_3
REMARK    3  A    between atoms: C_2  and  N_7
REMARK    4  A    between atoms: C_3  and  C_4
REMARK    5  A    between atoms: C_4  and  O_6
REMARK    6  A    between atoms: C_8  and  C_10
REMARK    7  A    between atoms: N_17  and  C_18
REMARK    8  A    between atoms: C_18  and  C_19
REMARK    9  A    between atoms: C_19  and  C_20
REMARK                            x       y       z     vdW  Elec       q    Type
REMARK                         _______ _______ _______ _____ _____    ______ ____
ROOT
ATOM      1  C   UNL     1      -0.408  11.003  20.458  0.00  0.00    +0.000 A 
ATOM      2  C   UNL     1       0.096   9.805  20.920  0.00  0.00    +0.000 A 
ATOM      3  C   UNL     1       1.026   9.208  20.007  0.00  0.00    +0.000 A 
ATOM      4  C   UNL     1       1.205   9.985  18.894  0.00  0.00    +0.000 A 
ATOM      5  S   UNL     1       0.334  11.440  18.968  0.00  0.00    +0.000 S 
ATOM      6  C   UNL     1       2.050   9.620  17.733  0.00  0.00    +0.000 C 
ATOM      7  C   UNL     1       2.654   8.212  17.873  0.00  0.00    +0.000 C 
ATOM      8  N   UNL     1       2.283   7.384  19.036  0.00  0.00    +0.000 N 
ATOM      9  C   UNL     1       1.676   7.923  20.177  0.00  0.00    +0.000 C 
ATOM     10  O   UNL     1       1.626   7.364  21.267  0.00  0.00    +0.000 OA
ENDROOT
BRANCH   1  12
ATOM     11  N   UNL     1      -1.328  12.171  22.350  0.00  0.00    +0.000 N 
ATOM     12  C   UNL     1      -1.446  11.866  21.004  0.00  0.00    +0.000 C 
ATOM     13  O   UNL     1      -2.402  12.281  20.349  0.00  0.00    +0.000 OA
ATOM     14  H   UNL     1      -0.426  12.052  22.802  0.00  0.00    +0.000 HD
BRANCH  11  16
ATOM     15  C   UNL     1      -1.581  14.138  23.806  0.00  0.00    +0.000 C 
ATOM     16  C   UNL     1      -2.290  13.047  23.006  0.00  0.00    +0.000 C 
BRANCH  16  17
ATOM     17  C   UNL     1      -3.337  12.269  23.814  0.00  0.00    +0.000 C 
BRANCH  17  18
ATOM     18  C   UNL     1      -4.696  12.918  23.883  0.00  0.00    +0.000 C 
ATOM     19  O   UNL     1      -5.139  13.718  23.076  0.00  0.00    +0.000 OA
BRANCH  18  20
ATOM     20  O   UNL     1      -5.386  12.544  24.987  0.00  0.00    +0.000 OA
ATOM     21  H   UNL     1      -5.784  13.286  25.482  0.00  0.00    +0.000 HD
ENDBRANCH  18  20
ENDBRANCH  17  18
ENDBRANCH  16  17
ENDBRANCH  11  16
ENDBRANCH   1  12
BRANCH   8  22
ATOM     22  C   UNL     1       2.914   6.056  19.115  0.00  0.00    +0.000 C 
BRANCH  22  23
ATOM     23  C   UNL     1       2.075   4.933  18.492  0.00  0.00    +0.000 C 
BRANCH  23  24
ATOM     24  C   UNL     1       1.789   3.717  19.392  0.00  0.00    +0.000 C 
ATOM     25  C   UNL     1       2.918   3.374  20.368  0.00  0.00    +0.000 C 
ATOM     26  C   UNL     1       4.154   2.841  19.645  0.00  0.00    +0.000 C 
ATOM     27  N   UNL     1       3.840   1.672  18.821  0.00  0.00    +0.000 NA
ATOM     28  C   UNL     1       2.798   1.970  17.834  0.00  0.00    +0.000 C 
ATOM     29  C   UNL     1       1.519   2.487  18.498  0.00  0.00    +0.000 C 
ATOM     30  H   UNL     1       3.505   0.922  19.426  0.00  0.00    +0.000 HD
ENDBRANCH  23  24
ENDBRANCH  22  23
ENDBRANCH   8  22
TORSDOF 8
ENDMDL
