MODEL 1
REMARK VINA RESULT:      -7.8      0.000      0.000
REMARK  Name = 
REMARK  10 active torsions:
REMARK  status: ('A' for Active; 'I' for Inactive)
REMARK    1  A    between atoms: C_1  and  C_2
REMARK    2  A    between atoms: C_2  and  C_3
REMARK    3  A    between atoms: C_2  and  C_4
REMARK    4  A    between atoms: C_4  and  C_5
REMARK    5  A    between atoms: C_5  and  N_6
REMARK    6  A    between atoms: C_10  and  C_12
REMARK    7  A    between atoms: C_12  and  O_13
REMARK    8  A    between atoms: O_13  and  C_14
REMARK    9  A    between atoms: C_14  and  C_16
REMARK   10  A    between atoms: C_17  and  C_18
REMARK                            x       y       z     vdW  Elec       q    Type
REMARK                         _______ _______ _______ _____ _____    ______ ____
ROOT
ATOM      1  C   UNL     1       3.909   2.414  20.216  0.00  0.00    +0.000 C 
ENDROOT
BRANCH   1   6
ATOM      2  N   UNL     1       5.688   3.937  16.559  0.00  0.00    +0.000 N 
ATOM      3  C   UNL     1       6.111   4.310  17.801  0.00  0.00    +0.000 C 
ATOM      4  O   UNL     1       7.037   5.093  17.999  0.00  0.00    +0.000 OA
ATOM      5  N   UNL     1       5.440   3.753  18.862  0.00  0.00    +0.000 N 
ATOM      6  C   UNL     1       4.372   2.875  18.841  0.00  0.00    +0.000 C 
ATOM      7  O   UNL     1       3.811   2.506  17.813  0.00  0.00    +0.000 OA
ATOM      8  H   UNL     1       4.824   3.397  16.512  0.00  0.00    +0.000 HD
ATOM      9  H   UNL     1       5.758   4.107  19.760  0.00  0.00    +0.000 HD
BRANCH   2  10
ATOM     10  C   UNL     1       6.254   4.501  15.355  0.00  0.00    +0.000 C 
BRANCH  10  11
ATOM     11  C   UNL     1       6.278   3.529  14.173  0.00  0.00    +0.000 C 
BRANCH  11  13
ATOM     12  C   UNL     1       7.398   4.612  12.148  0.00  0.00    +0.000 C 
ATOM     13  C   UNL     1       6.079   4.174  12.785  0.00  0.00    +0.000 C 
ATOM     14  C   UNL     1       5.362   3.196  11.847  0.00  0.00    +0.000 C 
ENDBRANCH  11  13
ENDBRANCH  10  11
ENDBRANCH   2  10
ENDBRANCH   1   6
BRANCH   1  15
ATOM     15  O   UNL     1       2.490   2.495  20.354  0.00  0.00    +0.000 OA
BRANCH  15  16
ATOM     16  C   UNL     1       2.058   3.407  21.257  0.00  0.00    +0.000 C 
ATOM     17  O   UNL     1       2.003   3.243  22.465  0.00  0.00    +0.000 OA
BRANCH  16  18
ATOM     18  C   UNL     1       1.683   4.633  20.525  0.00  0.00    +0.000 C 
ATOM     19  C   UNL     1       2.506   5.693  20.482  0.00  0.00    +0.000 C 
BRANCH  19  20
ATOM     20  C   UNL     1       2.203   6.949  19.768  0.00  0.00    +0.000 A 
ATOM     21  C   UNL     1       1.547   7.974  20.467  0.00  0.00    +0.000 A 
ATOM     22  C   UNL     1       1.220   9.173  19.822  0.00  0.00    +0.000 A 
ATOM     23 BR   UNL     1       0.348  10.546  20.785  0.00  0.00    +0.000 Br
ATOM     24  C   UNL     1       1.527   9.367  18.478  0.00  0.00    +0.000 A 
ATOM     25  C   UNL     1       2.161   8.351  17.767  0.00  0.00    +0.000 A 
ATOM     26  C   UNL     1       2.488   7.155  18.409  0.00  0.00    +0.000 A 
ATOM     27  F   UNL     1       3.076   6.196  17.680  0.00  0.00    +0.000 F 
ENDBRANCH  19  20
ENDBRANCH  16  18
ENDBRANCH  15  16
ENDBRANCH   1  15
TORSDOF 8
ENDMDL
MODEL 2
REMARK VINA RESULT:      -7.6      0.908      1.211
REMARK  Name = 
REMARK  10 active torsions:
REMARK  status: ('A' for Active; 'I' for Inactive)
REMARK    1  A    between atoms: C_1  and  C_2
REMARK    2  A    between atoms: C_2  and  C_3
REMARK    3  A    between atoms: C_2  and  C_4
REMARK    4  A    between atoms: C_4  and  C_5
REMARK    5  A    between atoms: C_5  and  N_6
REMARK    6  A    between atoms: C_10  and  C_12
REMARK    7  A    between atoms: C_12  and  O_13
REMARK    8  A    between atoms: O_13  and  C_14
REMARK    9  A    between atoms: C_14  and  C_16
REMARK   10  A    between atoms: C_17  and  C_18
REMARK                            x       y       z     vdW  Elec       q    Type
REMARK                         _______ _______ _______ _____ _____    ______ ____
ROOT
ATOM      1  C   UNL     1       4.286   2.983  20.096  0.00  0.00    +0.000 C 
ENDROOT
BRANCH   1   6
ATOM      2  N   UNL     1       6.024   3.860  16.214  0.00  0.00    +0.000 N 
ATOM      3  C   UNL     1       6.594   4.256  17.389  0.00  0.00    +0.000 C 
ATOM      4  O   UNL     1       7.650   4.878  17.457  0.00  0.00    +0.000 OA
ATOM      5  N   UNL     1       5.918   3.915  18.535  0.00  0.00    +0.000 N 
ATOM      6  C   UNL     1       4.718   3.239  18.659  0.00  0.00    +0.000 C 
ATOM      7  O   UNL     1       4.029   2.889  17.705  0.00  0.00    +0.000 OA
ATOM      8  H   UNL     1       5.080   3.477  16.269  0.00  0.00    +0.000 HD
ATOM      9  H   UNL     1       6.355   4.282  19.375  0.00  0.00    +0.000 HD
BRANCH   2  10
ATOM     10  C   UNL     1       6.587   4.213  14.931  0.00  0.00    +0.000 C 
BRANCH  10  11
ATOM     11  C   UNL     1       5.551   4.301  13.807  0.00  0.00    +0.000 C 
BRANCH  11  13
ATOM     12  C   UNL     1       4.618   3.324  11.639  0.00  0.00    +0.000 C 
ATOM     13  C   UNL     1       5.800   3.363  12.608  0.00  0.00    +0.000 C 
ATOM     14  C   UNL     1       7.061   3.796  11.852  0.00  0.00    +0.000 C 
ENDBRANCH  11  13
ENDBRANCH  10  11
ENDBRANCH   2  10
ENDBRANCH   1   6
BRANCH   1  15
ATOM     15  O   UNL     1       3.501   4.057  20.615  0.00  0.00    +0.000 OA
BRANCH  15  16
ATOM     16  C   UNL     1       2.178   3.979  20.338  0.00  0.00    +0.000 C 
ATOM     17  O   UNL     1       1.463   3.012  20.541  0.00  0.00    +0.000 OA
BRANCH  16  18
ATOM     18  C   UNL     1       1.754   5.273  19.765  0.00  0.00    +0.000 C 
ATOM     19  C   UNL     1       2.233   6.432  20.242  0.00  0.00    +0.000 C 
BRANCH  19  20
ATOM     20  C   UNL     1       1.860   7.760  19.719  0.00  0.00    +0.000 A 
ATOM     21  C   UNL     1       1.123   8.623  20.547  0.00  0.00    +0.000 A 
ATOM     22  C   UNL     1       0.729   9.883  20.082  0.00  0.00    +0.000 A 
ATOM     23 BR   UNL     1      -0.251  11.035  21.216  0.00  0.00    +0.000 Br
ATOM     24  C   UNL     1       1.048  10.300  18.792  0.00  0.00    +0.000 A 
ATOM     25  C   UNL     1       1.762   9.447  17.954  0.00  0.00    +0.000 A 
ATOM     26  C   UNL     1       2.156   8.191  18.416  0.00  0.00    +0.000 A 
ATOM     27  F   UNL     1       2.822   7.394  17.567  0.00  0.00    +0.000 F 
ENDBRANCH  19  20
ENDBRANCH  16  18
ENDBRANCH  15  16
ENDBRANCH   1  15
TORSDOF 8
ENDMDL
MODEL 3
REMARK VINA RESULT:      -7.6      5.402      7.538
REMARK  Name = 
REMARK  10 active torsions:
REMARK  status: ('A' for Active; 'I' for Inactive)
REMARK    1  A    between atoms: C_1  and  C_2
REMARK    2  A    between atoms: C_2  and  C_3
REMARK    3  A    between atoms: C_2  and  C_4
REMARK    4  A    between atoms: C_4  and  C_5
REMARK    5  A    between atoms: C_5  and  N_6
REMARK    6  A    between atoms: C_10  and  C_12
REMARK    7  A    between atoms: C_12  and  O_13
REMARK    8  A    between atoms: O_13  and  C_14
REMARK    9  A    between atoms: C_14  and  C_16
REMARK   10  A    between atoms: C_17  and  C_18
REMARK                            x       y       z     vdW  Elec       q    Type
REMARK                         _______ _______ _______ _____ _____    ______ ____
ROOT
ATOM      1  C   UNL     1       7.042   5.878  19.253  0.00  0.00    +0.000 C 
ENDROOT
BRANCH   1   6
ATOM      2  N   UNL     1       3.619   3.325  18.465  0.00  0.00    +0.000 N 
ATOM      3  C   UNL     1       4.695   2.917  19.198  0.00  0.00    +0.000 C 
ATOM      4  O   UNL     1       4.788   1.805  19.710  0.00  0.00    +0.000 OA
ATOM      5  N   UNL     1       5.707   3.834  19.348  0.00  0.00    +0.000 N 
ATOM      6  C   UNL     1       5.792   5.115  18.837  0.00  0.00    +0.000 C 
ATOM      7  O   UNL     1       4.954   5.609  18.085  0.00  0.00    +0.000 OA
ATOM      8  H   UNL     1       3.711   4.211  17.969  0.00  0.00    +0.000 HD
ATOM      9  H   UNL     1       6.505   3.461  19.853  0.00  0.00    +0.000 HD
BRANCH   2  10
ATOM     10  C   UNL     1       2.516   2.440  18.164  0.00  0.00    +0.000 C 
BRANCH  10  11
ATOM     11  C   UNL     1       1.476   2.351  19.283  0.00  0.00    +0.000 C 
BRANCH  11  13
ATOM     12  C   UNL     1       0.881   4.582  20.377  0.00  0.00    +0.000 C 
ATOM     13  C   UNL     1       1.709   3.301  20.476  0.00  0.00    +0.000 C 
ATOM     14  C   UNL     1       1.381   2.586  21.792  0.00  0.00    +0.000 C 
ENDBRANCH  11  13
ENDBRANCH  10  11
ENDBRANCH   2  10
ENDBRANCH   1   6
BRANCH   1  15
ATOM     15  O   UNL     1       7.850   6.229  18.129  0.00  0.00    +0.000 OA
BRANCH  15  16
ATOM     16  C   UNL     1       7.676   7.494  17.678  0.00  0.00    +0.000 C 
ATOM     17  O   UNL     1       6.962   7.826  16.747  0.00  0.00    +0.000 OA
BRANCH  16  18
ATOM     18  C   UNL     1       8.489   8.396  18.519  0.00  0.00    +0.000 C 
ATOM     19  C   UNL     1       8.563   9.709  18.256  0.00  0.00    +0.000 C 
BRANCH  19  20
ATOM     20  C   UNL     1       9.350  10.671  19.052  0.00  0.00    +0.000 A 
ATOM     21  C   UNL     1       8.875  11.034  20.322  0.00  0.00    +0.000 A 
ATOM     22  C   UNL     1       9.578  11.962  21.102  0.00  0.00    +0.000 A 
ATOM     23 BR   UNL     1       8.929  12.427  22.815  0.00  0.00    +0.000 Br
ATOM     24  C   UNL     1      10.751  12.547  20.630  0.00  0.00    +0.000 A 
ATOM     25  C   UNL     1      11.223  12.210  19.364  0.00  0.00    +0.000 A 
ATOM     26  C   UNL     1      10.523  11.285  18.586  0.00  0.00    +0.000 A 
ATOM     27  F   UNL     1      11.002  11.008  17.364  0.00  0.00    +0.000 F 
ENDBRANCH  19  20
ENDBRANCH  16  18
ENDBRANCH  15  16
ENDBRANCH   1  15
TORSDOF 8
ENDMDL
MODEL 4
REMARK VINA RESULT:      -7.6      6.060      7.820
REMARK  Name = 
REMARK  10 active torsions:
REMARK  status: ('A' for Active; 'I' for Inactive)
REMARK    1  A    between atoms: C_1  and  C_2
REMARK    2  A    between atoms: C_2  and  C_3
REMARK    3  A    between atoms: C_2  and  C_4
REMARK    4  A    between atoms: C_4  and  C_5
REMARK    5  A    between atoms: C_5  and  N_6
REMARK    6  A    between atoms: C_10  and  C_12
REMARK    7  A    between atoms: C_12  and  O_13
REMARK    8  A    between atoms: O_13  and  C_14
REMARK    9  A    between atoms: C_14  and  C_16
REMARK   10  A    between atoms: C_17  and  C_18
REMARK                            x       y       z     vdW  Elec       q    Type
REMARK                         _______ _______ _______ _____ _____    ______ ____
ROOT
ATOM      1  C   UNL     1       8.152   5.978  18.731  0.00  0.00    +0.000 C 
ENDROOT
BRANCH   1   6
ATOM      2  N   UNL     1       4.333   4.098  17.869  0.00  0.00    +0.000 N 
ATOM      3  C   UNL     1       5.289   4.305  16.918  0.00  0.00    +0.000 C 
ATOM      4  O   UNL     1       5.166   3.968  15.744  0.00  0.00    +0.000 OA
ATOM      5  N   UNL     1       6.440   4.925  17.341  0.00  0.00    +0.000 N 
ATOM      6  C   UNL     1       6.754   5.389  18.605  0.00  0.00    +0.000 C 
ATOM      7  O   UNL     1       5.976   5.363  19.556  0.00  0.00    +0.000 OA
ATOM      8  H   UNL     1       4.482   4.544  18.774  0.00  0.00    +0.000 HD
ATOM      9  H   UNL     1       7.093   5.104  16.585  0.00  0.00    +0.000 HD
BRANCH   2  10
ATOM     10  C   UNL     1       3.046   3.524  17.549  0.00  0.00    +0.000 C 
BRANCH  10  11
ATOM     11  C   UNL     1       2.863   2.097  18.069  0.00  0.00    +0.000 C 
BRANCH  11  13
ATOM     12  C   UNL     1       2.316   2.724  20.485  0.00  0.00    +0.000 C 
ATOM     13  C   UNL     1       1.875   1.945  19.245  0.00  0.00    +0.000 C 
ATOM     14  C   UNL     1       0.477   2.411  18.823  0.00  0.00    +0.000 C 
ENDBRANCH  11  13
ENDBRANCH  10  11
ENDBRANCH   2  10
ENDBRANCH   1   6
BRANCH   1  15
ATOM     15  O   UNL     1       8.118   7.394  18.915  0.00  0.00    +0.000 OA
BRANCH  15  16
ATOM     16  C   UNL     1       7.934   8.110  17.779  0.00  0.00    +0.000 C 
ATOM     17  O   UNL     1       7.366   7.717  16.774  0.00  0.00    +0.000 OA
BRANCH  16  18
ATOM     18  C   UNL     1       8.527   9.447  17.981  0.00  0.00    +0.000 C 
ATOM     19  C   UNL     1       9.215   9.738  19.095  0.00  0.00    +0.000 C 
BRANCH  19  20
ATOM     20  C   UNL     1       9.838  11.049  19.366  0.00  0.00    +0.000 A 
ATOM     21  C   UNL     1      10.639  11.627  18.368  0.00  0.00    +0.000 A 
ATOM     22  C   UNL     1      11.269  12.858  18.591  0.00  0.00    +0.000 A 
ATOM     23 BR   UNL     1      12.332  13.626  17.230  0.00  0.00    +0.000 Br
ATOM     24  C   UNL     1      11.123  13.524  19.805  0.00  0.00    +0.000 A 
ATOM     25  C   UNL     1      10.347  12.953  20.810  0.00  0.00    +0.000 A 
ATOM     26  C   UNL     1       9.718  11.726  20.589  0.00  0.00    +0.000 A 
ATOM     27  F   UNL     1       9.000  11.203  21.594  0.00  0.00    +0.000 F 
ENDBRANCH  19  20
ENDBRANCH  16  18
ENDBRANCH  15  16
ENDBRANCH   1  15
TORSDOF 8
ENDMDL
MODEL 5
REMARK VINA RESULT:      -7.6      2.116      2.823
REMARK  Name = 
REMARK  10 active torsions:
REMARK  status: ('A' for Active; 'I' for Inactive)
REMARK    1  A    between atoms: C_1  and  C_2
REMARK    2  A    between atoms: C_2  and  C_3
REMARK    3  A    between atoms: C_2  and  C_4
REMARK    4  A    between atoms: C_4  and  C_5
REMARK    5  A    between atoms: C_5  and  N_6
REMARK    6  A    between atoms: C_10  and  C_12
REMARK    7  A    between atoms: C_12  and  O_13
REMARK    8  A    between atoms: O_13  and  C_14
REMARK    9  A    between atoms: C_14  and  C_16
REMARK   10  A    between atoms: C_17  and  C_18
REMARK                            x       y       z     vdW  Elec       q    Type
REMARK                         _______ _______ _______ _____ _____    ______ ____
ROOT
ATOM      1  C   UNL     1       1.897   2.631  18.657  0.00  0.00    +0.000 C 
ENDROOT
BRANCH   1   6
ATOM      2  N   UNL     1       5.907   4.006  17.712  0.00  0.00    +0.000 N 
ATOM      3  C   UNL     1       4.894   3.988  16.798  0.00  0.00    +0.000 C 
ATOM      4  O   UNL     1       5.018   4.370  15.637  0.00  0.00    +0.000 OA
ATOM      5  N   UNL     1       3.685   3.512  17.243  0.00  0.00    +0.000 N 
ATOM      6  C   UNL     1       3.359   3.026  18.496  0.00  0.00    +0.000 C 
ATOM      7  O   UNL     1       4.169   2.890  19.409  0.00  0.00    +0.000 OA
ATOM      8  H   UNL     1       5.732   3.535  18.599  0.00  0.00    +0.000 HD
ATOM      9  H   UNL     1       2.984   3.468  16.510  0.00  0.00    +0.000 HD
BRANCH   2  10
ATOM     10  C   UNL     1       7.249   4.412  17.362  0.00  0.00    +0.000 C 
BRANCH  10  11
ATOM     11  C   UNL     1       7.705   5.697  18.057  0.00  0.00    +0.000 C 
BRANCH  11  13
ATOM     12  C   UNL     1       5.878   7.300  17.270  0.00  0.00    +0.000 C 
ATOM     13  C   UNL     1       7.377   7.004  17.306  0.00  0.00    +0.000 C 
ATOM     14  C   UNL     1       8.112   8.183  17.954  0.00  0.00    +0.000 C 
ENDBRANCH  11  13
ENDBRANCH  10  11
ENDBRANCH   2  10
ENDBRANCH   1   6
BRANCH   1  15
ATOM     15  O   UNL     1       1.638   2.065  19.942  0.00  0.00    +0.000 OA
BRANCH  15  16
ATOM     16  C   UNL     1       1.506   2.966  20.944  0.00  0.00    +0.000 C 
ATOM     17  O   UNL     1       1.573   2.719  22.137  0.00  0.00    +0.000 OA
BRANCH  16  18
ATOM     18  C   UNL     1       1.285   4.294  20.338  0.00  0.00    +0.000 C 
ATOM     19  C   UNL     1       1.997   5.362  20.731  0.00  0.00    +0.000 C 
BRANCH  19  20
ATOM     20  C   UNL     1       1.835   6.717  20.171  0.00  0.00    +0.000 A 
ATOM     21  C   UNL     1       1.179   7.687  20.945  0.00  0.00    +0.000 A 
ATOM     22  C   UNL     1       0.983   8.980  20.443  0.00  0.00    +0.000 A 
ATOM     23 BR   UNL     1       0.109  10.275  21.506  0.00  0.00    +0.000 Br
ATOM     24  C   UNL     1       1.423   9.323  19.166  0.00  0.00    +0.000 A 
ATOM     25  C   UNL     1       2.058   8.366  18.381  0.00  0.00    +0.000 A 
ATOM     26  C   UNL     1       2.254   7.077  18.880  0.00  0.00    +0.000 A 
ATOM     27  F   UNL     1       2.850   6.181  18.080  0.00  0.00    +0.000 F 
ENDBRANCH  19  20
ENDBRANCH  16  18
ENDBRANCH  15  16
ENDBRANCH   1  15
TORSDOF 8
ENDMDL
MODEL 6
REMARK VINA RESULT:      -7.5      5.686      7.647
REMARK  Name = 
REMARK  10 active torsions:
REMARK  status: ('A' for Active; 'I' for Inactive)
REMARK    1  A    between atoms: C_1  and  C_2
REMARK    2  A    between atoms: C_2  and  C_3
REMARK    3  A    between atoms: C_2  and  C_4
REMARK    4  A    between atoms: C_4  and  C_5
REMARK    5  A    between atoms: C_5  and  N_6
REMARK    6  A    between atoms: C_10  and  C_12
REMARK    7  A    between atoms: C_12  and  O_13
REMARK    8  A    between atoms: O_13  and  C_14
REMARK    9  A    between atoms: C_14  and  C_16
REMARK   10  A    between atoms: C_17  and  C_18
REMARK                            x       y       z     vdW  Elec       q    Type
REMARK                         _______ _______ _______ _____ _____    ______ ____
ROOT
ATOM      1  C   UNL     1       7.544   5.494  18.793  0.00  0.00    +0.000 C 
ENDROOT
BRANCH   1   6
ATOM      2  N   UNL     1       3.253   4.967  18.377  0.00  0.00    +0.000 N 
ATOM      3  C   UNL     1       3.889   6.136  18.077  0.00  0.00    +0.000 C 
ATOM      4  O   UNL     1       3.314   7.134  17.652  0.00  0.00    +0.000 OA
ATOM      5  N   UNL     1       5.249   6.153  18.274  0.00  0.00    +0.000 N 
ATOM      6  C   UNL     1       6.062   5.146  18.758  0.00  0.00    +0.000 C 
ATOM      7  O   UNL     1       5.644   4.062  19.157  0.00  0.00    +0.000 OA
ATOM      8  H   UNL     1       3.804   4.256  18.856  0.00  0.00    +0.000 HD
ATOM      9  H   UNL     1       5.662   7.062  18.089  0.00  0.00    +0.000 HD
BRANCH   2  10
ATOM     10  C   UNL     1       1.817   4.831  18.288  0.00  0.00    +0.000 C 
BRANCH  10  11
ATOM     11  C   UNL     1       1.228   3.852  19.307  0.00  0.00    +0.000 C 
BRANCH  11  13
ATOM     12  C   UNL     1       1.755   2.576  21.457  0.00  0.00    +0.000 C 
ATOM     13  C   UNL     1       2.260   3.003  20.078  0.00  0.00    +0.000 C 
ATOM     14  C   UNL     1       2.632   1.758  19.266  0.00  0.00    +0.000 C 
ENDBRANCH  11  13
ENDBRANCH  10  11
ENDBRANCH   2  10
ENDBRANCH   1   6
BRANCH   1  15
ATOM     15  O   UNL     1       7.757   6.905  18.844  0.00  0.00    +0.000 OA
BRANCH  15  16
ATOM     16  C   UNL     1       7.844   7.511  17.636  0.00  0.00    +0.000 C 
ATOM     17  O   UNL     1       7.608   6.990  16.559  0.00  0.00    +0.000 OA
BRANCH  16  18
ATOM     18  C   UNL     1       8.258   8.912  17.856  0.00  0.00    +0.000 C 
ATOM     19  C   UNL     1       9.057   9.245  18.881  0.00  0.00    +0.000 C 
BRANCH  19  20
ATOM     20  C   UNL     1       9.515  10.619  19.162  0.00  0.00    +0.000 A 
ATOM     21  C   UNL     1      10.057  11.372  18.108  0.00  0.00    +0.000 A 
ATOM     22  C   UNL     1      10.526  12.672  18.335  0.00  0.00    +0.000 A 
ATOM     23 BR   UNL     1      11.239  13.674  16.899  0.00  0.00    +0.000 Br
ATOM     24  C   UNL     1      10.475  13.237  19.607  0.00  0.00    +0.000 A 
ATOM     25  C   UNL     1       9.958  12.494  20.665  0.00  0.00    +0.000 A 
ATOM     26  C   UNL     1       9.490  11.199  20.440  0.00  0.00    +0.000 A 
ATOM     27  F   UNL     1       9.022  10.512  21.493  0.00  0.00    +0.000 F 
ENDBRANCH  19  20
ENDBRANCH  16  18
ENDBRANCH  15  16
ENDBRANCH   1  15
TORSDOF 8
ENDMDL
MODEL 7
REMARK VINA RESULT:      -7.5      1.009      1.245
REMARK  Name = 
REMARK  10 active torsions:
REMARK  status: ('A' for Active; 'I' for Inactive)
REMARK    1  A    between atoms: C_1  and  C_2
REMARK    2  A    between atoms: C_2  and  C_3
REMARK    3  A    between atoms: C_2  and  C_4
REMARK    4  A    between atoms: C_4  and  C_5
REMARK    5  A    between atoms: C_5  and  N_6
REMARK    6  A    between atoms: C_10  and  C_12
REMARK    7  A    between atoms: C_12  and  O_13
REMARK    8  A    between atoms: O_13  and  C_14
REMARK    9  A    between atoms: C_14  and  C_16
REMARK   10  A    between atoms: C_17  and  C_18
REMARK                            x       y       z     vdW  Elec       q    Type
REMARK                         _______ _______ _______ _____ _____    ______ ____
ROOT
ATOM      1  C   UNL     1       2.208   1.850  19.478  0.00  0.00    +0.000 C 
ENDROOT
BRANCH   1   6
ATOM      2  N   UNL     1       4.466   4.019  16.468  0.00  0.00    +0.000 N 
ATOM      3  C   UNL     1       4.854   3.942  17.774  0.00  0.00    +0.000 C 
ATOM      4  O   UNL     1       5.877   4.461  18.212  0.00  0.00    +0.000 OA
ATOM      5  N   UNL     1       4.028   3.231  18.610  0.00  0.00    +0.000 N 
ATOM      6  C   UNL     1       2.837   2.596  18.310  0.00  0.00    +0.000 C 
ATOM      7  O   UNL     1       2.298   2.641  17.206  0.00  0.00    +0.000 OA
ATOM      8  H   UNL     1       3.532   3.675  16.247  0.00  0.00    +0.000 HD
ATOM      9  H   UNL     1       4.334   3.252  19.578  0.00  0.00    +0.000 HD
BRANCH   2  10
ATOM     10  C   UNL     1       5.199   4.795  15.495  0.00  0.00    +0.000 C 
BRANCH  10  11
ATOM     11  C   UNL     1       6.463   4.101  14.980  0.00  0.00    +0.000 C 
BRANCH  11  13
ATOM     12  C   UNL     1       5.100   3.849  12.833  0.00  0.00    +0.000 C 
ATOM     13  C   UNL     1       6.494   3.832  13.461  0.00  0.00    +0.000 C 
ATOM     14  C   UNL     1       7.378   4.870  12.760  0.00  0.00    +0.000 C 
ENDBRANCH  11  13
ENDBRANCH  10  11
ENDBRANCH   2  10
ENDBRANCH   1   6
BRANCH   1  15
ATOM     15  O   UNL     1       1.153   2.599  20.083  0.00  0.00    +0.000 OA
BRANCH  15  16
ATOM     16  C   UNL     1       1.561   3.557  20.950  0.00  0.00    +0.000 C 
ATOM     17  O   UNL     1       2.083   3.360  22.034  0.00  0.00    +0.000 OA
BRANCH  16  18
ATOM     18  C   UNL     1       1.277   4.873  20.344  0.00  0.00    +0.000 C 
ATOM     19  C   UNL     1       2.122   5.903  20.498  0.00  0.00    +0.000 C 
BRANCH  19  20
ATOM     20  C   UNL     1       1.908   7.244  19.920  0.00  0.00    +0.000 A 
ATOM     21  C   UNL     1       1.280   8.221  20.709  0.00  0.00    +0.000 A 
ATOM     22  C   UNL     1       1.037   9.499  20.193  0.00  0.00    +0.000 A 
ATOM     23 BR   UNL     1       0.202  10.804  21.277  0.00  0.00    +0.000 Br
ATOM     24  C   UNL     1       1.400   9.823  18.888  0.00  0.00    +0.000 A 
ATOM     25  C   UNL     1       2.007   8.858  18.087  0.00  0.00    +0.000 A 
ATOM     26  C   UNL     1       2.251   7.583  18.601  0.00  0.00    +0.000 A 
ATOM     27  F   UNL     1       2.816   6.680  17.787  0.00  0.00    +0.000 F 
ENDBRANCH  19  20
ENDBRANCH  16  18
ENDBRANCH  15  16
ENDBRANCH   1  15
TORSDOF 8
ENDMDL
MODEL 8
REMARK VINA RESULT:      -7.4      5.782      7.594
REMARK  Name = 
REMARK  10 active torsions:
REMARK  status: ('A' for Active; 'I' for Inactive)
REMARK    1  A    between atoms: C_1  and  C_2
REMARK    2  A    between atoms: C_2  and  C_3
REMARK    3  A    between atoms: C_2  and  C_4
REMARK    4  A    between atoms: C_4  and  C_5
REMARK    5  A    between atoms: C_5  and  N_6
REMARK    6  A    between atoms: C_10  and  C_12
REMARK    7  A    between atoms: C_12  and  O_13
REMARK    8  A    between atoms: O_13  and  C_14
REMARK    9  A    between atoms: C_14  and  C_16
REMARK   10  A    between atoms: C_17  and  C_18
REMARK                            x       y       z     vdW  Elec       q    Type
REMARK                         _______ _______ _______ _____ _____    ______ ____
ROOT
ATOM      1  C   UNL     1       5.604   7.359  17.307  0.00  0.00    +0.000 C 
ENDROOT
BRANCH   1   6
ATOM      2  N   UNL     1       4.283   3.251  17.788  0.00  0.00    +0.000 N 
ATOM      3  C   UNL     1       5.043   3.899  18.718  0.00  0.00    +0.000 C 
ATOM      4  O   UNL     1       5.407   3.390  19.774  0.00  0.00    +0.000 OA
ATOM      5  N   UNL     1       5.394   5.193  18.417  0.00  0.00    +0.000 N 
ATOM      6  C   UNL     1       5.097   5.924  17.282  0.00  0.00    +0.000 C 
ATOM      7  O   UNL     1       4.499   5.468  16.310  0.00  0.00    +0.000 OA
ATOM      8  H   UNL     1       4.160   3.718  16.890  0.00  0.00    +0.000 HD
ATOM      9  H   UNL     1       6.004   5.608  19.114  0.00  0.00    +0.000 HD
BRANCH   2  10
ATOM     10  C   UNL     1       3.903   1.865  17.940  0.00  0.00    +0.000 C 
BRANCH  10  11
ATOM     11  C   UNL     1       2.836   1.633  19.013  0.00  0.00    +0.000 C 
BRANCH  11  13
ATOM     12  C   UNL     1       0.480   2.596  18.799  0.00  0.00    +0.000 C 
ATOM     13  C   UNL     1       1.908   2.834  19.289  0.00  0.00    +0.000 C 
ATOM     14  C   UNL     1       1.884   3.147  20.790  0.00  0.00    +0.000 C 
ENDBRANCH  11  13
ENDBRANCH  10  11
ENDBRANCH   2  10
ENDBRANCH   1   6
BRANCH   1  15
ATOM     15  O   UNL     1       6.983   7.443  16.944  0.00  0.00    +0.000 OA
BRANCH  15  16
ATOM     16  C   UNL     1       7.838   7.575  17.986  0.00  0.00    +0.000 C 
ATOM     17  O   UNL     1       8.191   6.680  18.735  0.00  0.00    +0.000 OA
BRANCH  16  18
ATOM     18  C   UNL     1       8.276   8.984  18.042  0.00  0.00    +0.000 C 
ATOM     19  C   UNL     1       9.075   9.422  19.027  0.00  0.00    +0.000 C 
BRANCH  19  20
ATOM     20  C   UNL     1       9.556  10.812  19.148  0.00  0.00    +0.000 A 
ATOM     21  C   UNL     1      10.185  11.400  18.040  0.00  0.00    +0.000 A 
ATOM     22  C   UNL     1      10.678  12.709  18.118  0.00  0.00    +0.000 A 
ATOM     23 BR   UNL     1      11.510  13.488  16.610  0.00  0.00    +0.000 Br
ATOM     24  C   UNL     1      10.565  13.444  19.295  0.00  0.00    +0.000 A 
ATOM     25  C   UNL     1       9.960  12.866  20.408  0.00  0.00    +0.000 A 
ATOM     26  C   UNL     1       9.468  11.562  20.331  0.00  0.00    +0.000 A 
ATOM     27  F   UNL     1       8.915  11.038  21.434  0.00  0.00    +0.000 F 
ENDBRANCH  19  20
ENDBRANCH  16  18
ENDBRANCH  15  16
ENDBRANCH   1  15
TORSDOF 8
ENDMDL
MODEL 9
REMARK VINA RESULT:      -7.4      5.662      7.780
REMARK  Name = 
REMARK  10 active torsions:
REMARK  status: ('A' for Active; 'I' for Inactive)
REMARK    1  A    between atoms: C_1  and  C_2
REMARK    2  A    between atoms: C_2  and  C_3
REMARK    3  A    between atoms: C_2  and  C_4
REMARK    4  A    between atoms: C_4  and  C_5
REMARK    5  A    between atoms: C_5  and  N_6
REMARK    6  A    between atoms: C_10  and  C_12
REMARK    7  A    between atoms: C_12  and  O_13
REMARK    8  A    between atoms: O_13  and  C_14
REMARK    9  A    between atoms: C_14  and  C_16
REMARK   10  A    between atoms: C_17  and  C_18
REMARK                            x       y       z     vdW  Elec       q    Type
REMARK                         _______ _______ _______ _____ _____    ______ ____
ROOT
ATOM      1  C   UNL     1       7.041   5.601  19.097  0.00  0.00    +0.000 C 
ENDROOT
BRANCH   1   6
ATOM      2  N   UNL     1       3.271   3.643  18.194  0.00  0.00    +0.000 N 
ATOM      3  C   UNL     1       3.480   4.977  17.995  0.00  0.00    +0.000 C 
ATOM      4  O   UNL     1       2.635   5.737  17.533  0.00  0.00    +0.000 OA
ATOM      5  N   UNL     1       4.721   5.453  18.342  0.00  0.00    +0.000 N 
ATOM      6  C   UNL     1       5.787   4.762  18.889  0.00  0.00    +0.000 C 
ATOM      7  O   UNL     1       5.741   3.578  19.213  0.00  0.00    +0.000 OA
ATOM      8  H   UNL     1       3.989   3.139  18.713  0.00  0.00    +0.000 HD
ATOM      9  H   UNL     1       4.804   6.458  18.228  0.00  0.00    +0.000 HD
BRANCH   2  10
ATOM     10  C   UNL     1       1.991   3.022  17.942  0.00  0.00    +0.000 C 
BRANCH  10  11
ATOM     11  C   UNL     1       1.098   2.928  19.182  0.00  0.00    +0.000 C 
BRANCH  11  13
ATOM     12  C   UNL     1       1.236   4.914  20.783  0.00  0.00    +0.000 C 
ATOM     13  C   UNL     1       1.712   3.493  20.480  0.00  0.00    +0.000 C 
ATOM     14  C   UNL     1       1.374   2.581  21.664  0.00  0.00    +0.000 C 
ENDBRANCH  11  13
ENDBRANCH  10  11
ENDBRANCH   2  10
ENDBRANCH   1   6
BRANCH   1  15
ATOM     15  O   UNL     1       6.848   6.957  18.691  0.00  0.00    +0.000 OA
BRANCH  15  16
ATOM     16  C   UNL     1       7.671   7.375  17.701  0.00  0.00    +0.000 C 
ATOM     17  O   UNL     1       7.612   7.030  16.532  0.00  0.00    +0.000 OA
BRANCH  16  18
ATOM     18  C   UNL     1       8.635   8.331  18.281  0.00  0.00    +0.000 C 
ATOM     19  C   UNL     1       8.462   9.655  18.150  0.00  0.00    +0.000 C 
BRANCH  19  20
ATOM     20  C   UNL     1       9.379  10.670  18.705  0.00  0.00    +0.000 A 
ATOM     21  C   UNL     1      10.173  11.411  17.816  0.00  0.00    +0.000 A 
ATOM     22  C   UNL     1      11.074  12.367  18.301  0.00  0.00    +0.000 A 
ATOM     23 BR   UNL     1      12.124  13.365  17.086  0.00  0.00    +0.000 Br
ATOM     24  C   UNL     1      11.208  12.592  19.669  0.00  0.00    +0.000 A 
ATOM     25  C   UNL     1      10.440  11.851  20.563  0.00  0.00    +0.000 A 
ATOM     26  C   UNL     1       9.542  10.897  20.081  0.00  0.00    +0.000 A 
ATOM     27  F   UNL     1       8.840  10.190  20.979  0.00  0.00    +0.000 F 
ENDBRANCH  19  20
ENDBRANCH  16  18
ENDBRANCH  15  16
ENDBRANCH   1  15
TORSDOF 8
ENDMDL
