MODEL 1
REMARK VINA RESULT:      -9.2      0.000      0.000
REMARK  Name = 
REMARK  6 active torsions:
REMARK  status: ('A' for Active; 'I' for Inactive)
REMARK    1  A    between atoms: C_1  and  C_2
REMARK    2  A    between atoms: C_3  and  O_4
REMARK    3  A    between atoms: O_4  and  C_5
REMARK    4  A    between atoms: C_6  and  C_7
REMARK    5  A    between atoms: C_12  and  C_13
REMARK    6  A    between atoms: C_14  and  C_15
REMARK                            x       y       z     vdW  Elec       q    Type
REMARK                         _______ _______ _______ _____ _____    ______ ____
ROOT
ATOM      1  C   UNL     1       5.093   5.079  16.384  0.00  0.00    +0.000 A 
ATOM      2  C   UNL     1       6.158   4.906  15.482  0.00  0.00    +0.000 A 
ATOM      3  C   UNL     1       7.303   5.668  15.681  0.00  0.00    +0.000 A 
ATOM      4  N   UNL     1       7.426   6.630  16.618  0.00  0.00    +0.000 NA
ATOM      5  C   UNL     1       6.326   6.883  17.358  0.00  0.00    +0.000 A 
ATOM      6  C   UNL     1       5.124   6.175  17.274  0.00  0.00    +0.000 A 
ENDROOT
BRANCH   2   7
ATOM      7  C   UNL     1       6.160   4.029  14.347  0.00  0.00    +0.000 C 
ATOM      8  N   UNL     1       6.150   3.388  13.382  0.00  0.00    +0.000 NA
ENDBRANCH   2   7
BRANCH   6   9
ATOM      9  C   UNL     1       4.008   6.672  18.108  0.00  0.00    +0.000 C 
ATOM     10  C   UNL     1       3.051   7.524  17.699  0.00  0.00    +0.000 C 
BRANCH  10  11
ATOM     11  C   UNL     1       2.145   8.156  18.665  0.00  0.00    +0.000 A 
ATOM     12  C   UNL     1       1.433   9.299  18.278  0.00  0.00    +0.000 A 
ATOM     13  C   UNL     1       0.592   9.953  19.184  0.00  0.00    +0.000 A 
ATOM     14  C   UNL     1       0.457   9.466  20.482  0.00  0.00    +0.000 A 
ATOM     15  C   UNL     1       1.156   8.323  20.872  0.00  0.00    +0.000 A 
ATOM     16  C   UNL     1       1.999   7.669  19.967  0.00  0.00    +0.000 A 
ENDBRANCH  10  11
ENDBRANCH   6   9
BRANCH   1  17
ATOM     17  O   UNL     1       3.981   4.267  16.496  0.00  0.00    +0.000 OA
BRANCH  17  20
ATOM     18  C   UNL     1       1.087   4.382  17.516  0.00  0.00    +0.000 C 
ATOM     19  C   UNL     1       2.271   3.820  18.252  0.00  0.00    +0.000 A 
ATOM     20  C   UNL     1       3.577   3.747  17.708  0.00  0.00    +0.000 A 
ATOM     21  C   UNL     1       4.605   3.069  18.376  0.00  0.00    +0.000 A 
ATOM     22  C   UNL     1       4.423   2.544  19.654  0.00  0.00    +0.000 A 
ATOM     23  C   UNL     1       3.189   2.775  20.259  0.00  0.00    +0.000 A 
ATOM     24  N   UNL     1       2.766   2.474  21.535  0.00  0.00    +0.000 N 
ATOM     25  C   UNL     1       1.499   2.947  21.737  0.00  0.00    +0.000 A 
ATOM     26  C   UNL     1       1.070   3.506  20.557  0.00  0.00    +0.000 A 
ATOM     27  C   UNL     1       2.129   3.402  19.605  0.00  0.00    +0.000 A 
ATOM     28  H   UNL     1       3.336   2.016  22.232  0.00  0.00    +0.000 HD
ENDBRANCH  17  20
ENDBRANCH   1  17
TORSDOF 5
ENDMDL
MODEL 2
REMARK VINA RESULT:      -8.4      1.778      5.191
REMARK  Name = 
REMARK  6 active torsions:
REMARK  status: ('A' for Active; 'I' for Inactive)
REMARK    1  A    between atoms: C_1  and  C_2
REMARK    2  A    between atoms: C_3  and  O_4
REMARK    3  A    between atoms: O_4  and  C_5
REMARK    4  A    between atoms: C_6  and  C_7
REMARK    5  A    between atoms: C_12  and  C_13
REMARK    6  A    between atoms: C_14  and  C_15
REMARK                            x       y       z     vdW  Elec       q    Type
REMARK                         _______ _______ _______ _____ _____    ______ ____
ROOT
ATOM      1  C   UNL     1       3.180   4.496  20.110  0.00  0.00    +0.000 A 
ATOM      2  C   UNL     1       3.186   3.090  20.169  0.00  0.00    +0.000 A 
ATOM      3  C   UNL     1       1.970   2.432  20.033  0.00  0.00    +0.000 A 
ATOM      4  N   UNL     1       0.774   3.050  19.947  0.00  0.00    +0.000 NA
ATOM      5  C   UNL     1       0.790   4.395  20.060  0.00  0.00    +0.000 A 
ATOM      6  C   UNL     1       1.943   5.175  20.176  0.00  0.00    +0.000 A 
ENDROOT
BRANCH   2   7
ATOM      7  C   UNL     1       4.339   2.267  20.388  0.00  0.00    +0.000 C 
ATOM      8  N   UNL     1       5.270   1.626  20.646  0.00  0.00    +0.000 NA
ENDBRANCH   2   7
BRANCH   6   9
ATOM      9  C   UNL     1       1.739   6.625  20.383  0.00  0.00    +0.000 C 
ATOM     10  C   UNL     1       0.997   7.174  21.361  0.00  0.00    +0.000 C 
BRANCH  10  11
ATOM     11  C   UNL     1       0.646   8.599  21.328  0.00  0.00    +0.000 A 
ATOM     12  C   UNL     1       1.035   9.366  20.221  0.00  0.00    +0.000 A 
ATOM     13  C   UNL     1       0.756  10.735  20.173  0.00  0.00    +0.000 A 
ATOM     14  C   UNL     1       0.085  11.345  21.232  0.00  0.00    +0.000 A 
ATOM     15  C   UNL     1      -0.313  10.586  22.333  0.00  0.00    +0.000 A 
ATOM     16  C   UNL     1      -0.032   9.216  22.382  0.00  0.00    +0.000 A 
ENDBRANCH  10  11
ENDBRANCH   6   9
BRANCH   1  17
ATOM     17  O   UNL     1       4.289   5.310  19.992  0.00  0.00    +0.000 OA
BRANCH  17  20
ATOM     18  C   UNL     1       3.391   6.424  17.275  0.00  0.00    +0.000 C 
ATOM     19  C   UNL     1       4.701   5.752  17.575  0.00  0.00    +0.000 A 
ATOM     20  C   UNL     1       5.082   5.304  18.863  0.00  0.00    +0.000 A 
ATOM     21  C   UNL     1       6.377   4.830  19.114  0.00  0.00    +0.000 A 
ATOM     22  C   UNL     1       7.306   4.666  18.088  0.00  0.00    +0.000 A 
ATOM     23  C   UNL     1       6.868   4.940  16.793  0.00  0.00    +0.000 A 
ATOM     24  N   UNL     1       7.519   4.770  15.592  0.00  0.00    +0.000 N 
ATOM     25  C   UNL     1       6.690   5.098  14.554  0.00  0.00    +0.000 A 
ATOM     26  C   UNL     1       5.507   5.548  15.092  0.00  0.00    +0.000 A 
ATOM     27  C   UNL     1       5.603   5.458  16.515  0.00  0.00    +0.000 A 
ATOM     28  H   UNL     1       8.455   4.405  15.496  0.00  0.00    +0.000 HD
ENDBRANCH  17  20
ENDBRANCH   1  17
TORSDOF 5
ENDMDL
MODEL 3
REMARK VINA RESULT:      -8.3      1.772      5.214
REMARK  Name = 
REMARK  6 active torsions:
REMARK  status: ('A' for Active; 'I' for Inactive)
REMARK    1  A    between atoms: C_1  and  C_2
REMARK    2  A    between atoms: C_3  and  O_4
REMARK    3  A    between atoms: O_4  and  C_5
REMARK    4  A    between atoms: C_6  and  C_7
REMARK    5  A    between atoms: C_12  and  C_13
REMARK    6  A    between atoms: C_14  and  C_15
REMARK                            x       y       z     vdW  Elec       q    Type
REMARK                         _______ _______ _______ _____ _____    ______ ____
ROOT
ATOM      1  C   UNL     1       3.178   4.381  20.118  0.00  0.00    +0.000 A 
ATOM      2  C   UNL     1       3.166   2.978  20.225  0.00  0.00    +0.000 A 
ATOM      3  C   UNL     1       1.939   2.333  20.124  0.00  0.00    +0.000 A 
ATOM      4  N   UNL     1       0.751   2.965  20.029  0.00  0.00    +0.000 NA
ATOM      5  C   UNL     1       0.787   4.313  20.097  0.00  0.00    +0.000 A 
ATOM      6  C   UNL     1       1.952   5.079  20.174  0.00  0.00    +0.000 A 
ENDROOT
BRANCH   2   7
ATOM      7  C   UNL     1       4.310   2.147  20.460  0.00  0.00    +0.000 C 
ATOM      8  N   UNL     1       5.268   1.538  20.693  0.00  0.00    +0.000 NA
ENDBRANCH   2   7
BRANCH   6   9
ATOM      9  C   UNL     1       1.769   6.539  20.335  0.00  0.00    +0.000 C 
ATOM     10  C   UNL     1       1.093   7.132  21.334  0.00  0.00    +0.000 C 
BRANCH  10  11
ATOM     11  C   UNL     1       0.750   8.558  21.265  0.00  0.00    +0.000 A 
ATOM     12  C   UNL     1       0.096   9.150  22.354  0.00  0.00    +0.000 A 
ATOM     13  C   UNL     1      -0.285  10.494  22.309  0.00  0.00    +0.000 A 
ATOM     14  C   UNL     1      -0.012  11.256  21.174  0.00  0.00    +0.000 A 
ATOM     15  C   UNL     1       0.647  10.675  20.089  0.00  0.00    +0.000 A 
ATOM     16  C   UNL     1       1.027   9.329  20.133  0.00  0.00    +0.000 A 
ENDBRANCH  10  11
ENDBRANCH   6   9
BRANCH   1  17
ATOM     17  O   UNL     1       4.297   5.175  19.962  0.00  0.00    +0.000 OA
BRANCH  17  20
ATOM     18  C   UNL     1       3.085   4.840  17.160  0.00  0.00    +0.000 C 
ATOM     19  C   UNL     1       4.547   4.956  17.492  0.00  0.00    +0.000 A 
ATOM     20  C   UNL     1       5.044   5.162  18.802  0.00  0.00    +0.000 A 
ATOM     21  C   UNL     1       6.402   5.422  19.030  0.00  0.00    +0.000 A 
ATOM     22  C   UNL     1       7.339   5.371  18.000  0.00  0.00    +0.000 A 
ATOM     23  C   UNL     1       6.870   4.992  16.743  0.00  0.00    +0.000 A 
ATOM     24  N   UNL     1       7.569   4.756  15.580  0.00  0.00    +0.000 N 
ATOM     25  C   UNL     1       6.720   4.330  14.596  0.00  0.00    +0.000 A 
ATOM     26  C   UNL     1       5.444   4.351  15.109  0.00  0.00    +0.000 A 
ATOM     27  C   UNL     1       5.520   4.774  16.471  0.00  0.00    +0.000 A 
ATOM     28  H   UNL     1       8.572   4.836  15.490  0.00  0.00    +0.000 HD
ENDBRANCH  17  20
ENDBRANCH   1  17
TORSDOF 5
ENDMDL
MODEL 4
REMARK VINA RESULT:      -8.0      1.715      5.376
REMARK  Name = 
REMARK  6 active torsions:
REMARK  status: ('A' for Active; 'I' for Inactive)
REMARK    1  A    between atoms: C_1  and  C_2
REMARK    2  A    between atoms: C_3  and  O_4
REMARK    3  A    between atoms: O_4  and  C_5
REMARK    4  A    between atoms: C_6  and  C_7
REMARK    5  A    between atoms: C_12  and  C_13
REMARK    6  A    between atoms: C_14  and  C_15
REMARK                            x       y       z     vdW  Elec       q    Type
REMARK                         _______ _______ _______ _____ _____    ______ ____
ROOT
ATOM      1  C   UNL     1       3.350   4.347  20.096  0.00  0.00    +0.000 A 
ATOM      2  C   UNL     1       3.265   3.011  20.526  0.00  0.00    +0.000 A 
ATOM      3  C   UNL     1       2.002   2.496  20.792  0.00  0.00    +0.000 A 
ATOM      4  N   UNL     1       0.862   3.217  20.758  0.00  0.00    +0.000 NA
ATOM      5  C   UNL     1       1.000   4.536  20.504  0.00  0.00    +0.000 A 
ATOM      6  C   UNL     1       2.207   5.170  20.198  0.00  0.00    +0.000 A 
ENDROOT
BRANCH   2   7
ATOM      7  C   UNL     1       4.375   2.131  20.748  0.00  0.00    +0.000 C 
ATOM      8  N   UNL     1       5.303   1.476  20.980  0.00  0.00    +0.000 NA
ENDBRANCH   2   7
BRANCH   6   9
ATOM      9  C   UNL     1       2.156   6.641  20.044  0.00  0.00    +0.000 C 
ATOM     10  C   UNL     1       1.366   7.469  20.748  0.00  0.00    +0.000 C 
BRANCH  10  11
ATOM     11  C   UNL     1       1.200   8.871  20.346  0.00  0.00    +0.000 A 
ATOM     12  C   UNL     1       1.392   9.217  19.001  0.00  0.00    +0.000 A 
ATOM     13  C   UNL     1       1.284  10.548  18.587  0.00  0.00    +0.000 A 
ATOM     14  C   UNL     1       0.981  11.542  19.516  0.00  0.00    +0.000 A 
ATOM     15  C   UNL     1       0.779  11.204  20.855  0.00  0.00    +0.000 A 
ATOM     16  C   UNL     1       0.889   9.872  21.270  0.00  0.00    +0.000 A 
ENDBRANCH  10  11
ENDBRANCH   6   9
BRANCH   1  17
ATOM     17  O   UNL     1       4.468   4.963  19.569  0.00  0.00    +0.000 OA
BRANCH  17  20
ATOM     18  C   UNL     1       7.339   5.505  18.622  0.00  0.00    +0.000 C 
ATOM     19  C   UNL     1       6.209   4.972  17.786  0.00  0.00    +0.000 A 
ATOM     20  C   UNL     1       4.916   4.692  18.292  0.00  0.00    +0.000 A 
ATOM     21  C   UNL     1       3.952   4.048  17.506  0.00  0.00    +0.000 A 
ATOM     22  C   UNL     1       4.178   3.764  16.160  0.00  0.00    +0.000 A 
ATOM     23  C   UNL     1       5.386   4.203  15.620  0.00  0.00    +0.000 A 
ATOM     24  N   UNL     1       5.832   4.160  14.317  0.00  0.00    +0.000 N 
ATOM     25  C   UNL     1       7.051   4.771  14.214  0.00  0.00    +0.000 A 
ATOM     26  C   UNL     1       7.430   5.159  15.478  0.00  0.00    +0.000 A 
ATOM     27  C   UNL     1       6.385   4.803  16.384  0.00  0.00    +0.000 A 
ATOM     28  H   UNL     1       5.304   3.777  13.546  0.00  0.00    +0.000 HD
ENDBRANCH  17  20
ENDBRANCH   1  17
TORSDOF 5
ENDMDL
MODEL 5
REMARK VINA RESULT:      -7.9      1.532      5.252
REMARK  Name = 
REMARK  6 active torsions:
REMARK  status: ('A' for Active; 'I' for Inactive)
REMARK    1  A    between atoms: C_1  and  C_2
REMARK    2  A    between atoms: C_3  and  O_4
REMARK    3  A    between atoms: O_4  and  C_5
REMARK    4  A    between atoms: C_6  and  C_7
REMARK    5  A    between atoms: C_12  and  C_13
REMARK    6  A    between atoms: C_14  and  C_15
REMARK                            x       y       z     vdW  Elec       q    Type
REMARK                         _______ _______ _______ _____ _____    ______ ____
ROOT
ATOM      1  C   UNL     1       3.618   3.956  19.565  0.00  0.00    +0.000 A 
ATOM      2  C   UNL     1       3.514   2.635  20.038  0.00  0.00    +0.000 A 
ATOM      3  C   UNL     1       2.290   1.993  19.897  0.00  0.00    +0.000 A 
ATOM      4  N   UNL     1       1.170   2.580  19.426  0.00  0.00    +0.000 NA
ATOM      5  C   UNL     1       1.265   3.896  19.137  0.00  0.00    +0.000 A 
ATOM      6  C   UNL     1       2.439   4.649  19.212  0.00  0.00    +0.000 A 
ENDROOT
BRANCH   2   7
ATOM      7  C   UNL     1       4.556   1.895  20.688  0.00  0.00    +0.000 C 
ATOM      8  N   UNL     1       5.407   1.360  21.264  0.00  0.00    +0.000 NA
ENDBRANCH   2   7
BRANCH   6   9
ATOM      9  C   UNL     1       2.310   6.097  18.941  0.00  0.00    +0.000 C 
ATOM     10  C   UNL     1       2.167   7.053  19.875  0.00  0.00    +0.000 C 
BRANCH  10  11
ATOM     11  C   UNL     1       1.789   8.421  19.499  0.00  0.00    +0.000 A 
ATOM     12  C   UNL     1       1.020   9.180  20.391  0.00  0.00    +0.000 A 
ATOM     13  C   UNL     1       0.605  10.471  20.051  0.00  0.00    +0.000 A 
ATOM     14  C   UNL     1       0.957  11.011  18.815  0.00  0.00    +0.000 A 
ATOM     15  C   UNL     1       1.731  10.264  17.926  0.00  0.00    +0.000 A 
ATOM     16  C   UNL     1       2.146   8.972  18.265  0.00  0.00    +0.000 A 
ENDBRANCH  10  11
ENDBRANCH   6   9
BRANCH   1  17
ATOM     17  O   UNL     1       4.788   4.672  19.403  0.00  0.00    +0.000 OA
BRANCH  17  20
ATOM     18  C   UNL     1       3.974   3.132  16.874  0.00  0.00    +0.000 C 
ATOM     19  C   UNL     1       5.041   4.187  16.972  0.00  0.00    +0.000 A 
ATOM     20  C   UNL     1       5.337   4.902  18.158  0.00  0.00    +0.000 A 
ATOM     21  C   UNL     1       6.228   5.983  18.151  0.00  0.00    +0.000 A 
ATOM     22  C   UNL     1       6.952   6.325  17.010  0.00  0.00    +0.000 A 
ATOM     23  C   UNL     1       6.790   5.506  15.894  0.00  0.00    +0.000 A 
ATOM     24  N   UNL     1       7.443   5.535  14.682  0.00  0.00    +0.000 N 
ATOM     25  C   UNL     1       7.025   4.498  13.894  0.00  0.00    +0.000 A 
ATOM     26  C   UNL     1       6.042   3.824  14.580  0.00  0.00    +0.000 A 
ATOM     27  C   UNL     1       5.876   4.454  15.852  0.00  0.00    +0.000 A 
ATOM     28  H   UNL     1       8.163   6.199  14.437  0.00  0.00    +0.000 HD
ENDBRANCH  17  20
ENDBRANCH   1  17
TORSDOF 5
ENDMDL
MODEL 6
REMARK VINA RESULT:      -7.9      1.603      5.167
REMARK  Name = 
REMARK  6 active torsions:
REMARK  status: ('A' for Active; 'I' for Inactive)
REMARK    1  A    between atoms: C_1  and  C_2
REMARK    2  A    between atoms: C_3  and  O_4
REMARK    3  A    between atoms: O_4  and  C_5
REMARK    4  A    between atoms: C_6  and  C_7
REMARK    5  A    between atoms: C_12  and  C_13
REMARK    6  A    between atoms: C_14  and  C_15
REMARK                            x       y       z     vdW  Elec       q    Type
REMARK                         _______ _______ _______ _____ _____    ______ ____
ROOT
ATOM      1  C   UNL     1       3.507   4.254  19.852  0.00  0.00    +0.000 A 
ATOM      2  C   UNL     1       3.385   2.887  20.161  0.00  0.00    +0.000 A 
ATOM      3  C   UNL     1       2.126   2.310  20.052  0.00  0.00    +0.000 A 
ATOM      4  N   UNL     1       0.997   2.990  19.765  0.00  0.00    +0.000 NA
ATOM      5  C   UNL     1       1.125   4.328  19.638  0.00  0.00    +0.000 A 
ATOM      6  C   UNL     1       2.334   5.026  19.700  0.00  0.00    +0.000 A 
ENDROOT
BRANCH   2   7
ATOM      7  C   UNL     1       4.445   2.034  20.612  0.00  0.00    +0.000 C 
ATOM      8  N   UNL     1       5.352   1.411  20.976  0.00  0.00    +0.000 NA
ENDBRANCH   2   7
BRANCH   6   9
ATOM      9  C   UNL     1       2.246   6.501  19.629  0.00  0.00    +0.000 C 
ATOM     10  C   UNL     1       1.585   7.283  20.501  0.00  0.00    +0.000 C 
BRANCH  10  11
ATOM     11  C   UNL     1       1.341   8.700  20.202  0.00  0.00    +0.000 A 
ATOM     12  C   UNL     1       1.514   9.154  18.888  0.00  0.00    +0.000 A 
ATOM     13  C   UNL     1       1.332  10.504  18.573  0.00  0.00    +0.000 A 
ATOM     14  C   UNL     1       0.974  11.408  19.571  0.00  0.00    +0.000 A 
ATOM     15  C   UNL     1       0.790  10.961  20.881  0.00  0.00    +0.000 A 
ATOM     16  C   UNL     1       0.974   9.610  21.197  0.00  0.00    +0.000 A 
ENDBRANCH  10  11
ENDBRANCH   6   9
BRANCH   1  17
ATOM     17  O   UNL     1       4.689   4.947  19.676  0.00  0.00    +0.000 OA
BRANCH  17  20
ATOM     18  C   UNL     1       3.577   3.670  17.114  0.00  0.00    +0.000 C 
ATOM     19  C   UNL     1       4.833   4.488  17.231  0.00  0.00    +0.000 A 
ATOM     20  C   UNL     1       5.269   5.097  18.433  0.00  0.00    +0.000 A 
ATOM     21  C   UNL     1       6.358   5.978  18.447  0.00  0.00    +0.000 A 
ATOM     22  C   UNL     1       7.132   6.200  17.310  0.00  0.00    +0.000 A 
ATOM     23  C   UNL     1       6.807   5.461  16.174  0.00  0.00    +0.000 A 
ATOM     24  N   UNL     1       7.448   5.393  14.957  0.00  0.00    +0.000 N 
ATOM     25  C   UNL     1       6.829   4.481  14.146  0.00  0.00    +0.000 A 
ATOM     26  C   UNL     1       5.734   3.998  14.823  0.00  0.00    +0.000 A 
ATOM     27  C   UNL     1       5.701   4.613  16.112  0.00  0.00    +0.000 A 
ATOM     28  H   UNL     1       8.286   5.906  14.724  0.00  0.00    +0.000 HD
ENDBRANCH  17  20
ENDBRANCH   1  17
TORSDOF 5
ENDMDL
MODEL 7
REMARK VINA RESULT:      -7.7      2.583      6.064
REMARK  Name = 
REMARK  6 active torsions:
REMARK  status: ('A' for Active; 'I' for Inactive)
REMARK    1  A    between atoms: C_1  and  C_2
REMARK    2  A    between atoms: C_3  and  O_4
REMARK    3  A    between atoms: O_4  and  C_5
REMARK    4  A    between atoms: C_6  and  C_7
REMARK    5  A    between atoms: C_12  and  C_13
REMARK    6  A    between atoms: C_14  and  C_15
REMARK                            x       y       z     vdW  Elec       q    Type
REMARK                         _______ _______ _______ _____ _____    ______ ____
ROOT
ATOM      1  C   UNL     1       1.997   8.007  19.803  0.00  0.00    +0.000 A 
ATOM      2  C   UNL     1       0.982   8.826  20.330  0.00  0.00    +0.000 A 
ATOM      3  C   UNL     1       0.243   9.594  19.438  0.00  0.00    +0.000 A 
ATOM      4  N   UNL     1       0.495   9.681  18.116  0.00  0.00    +0.000 NA
ATOM      5  C   UNL     1       1.580   9.011  17.672  0.00  0.00    +0.000 A 
ATOM      6  C   UNL     1       2.389   8.188  18.458  0.00  0.00    +0.000 A 
ENDROOT
BRANCH   2   7
ATOM      7  C   UNL     1       0.657   8.966  21.719  0.00  0.00    +0.000 C 
ATOM      8  N   UNL     1       0.404   9.162  22.834  0.00  0.00    +0.000 NA
ENDBRANCH   2   7
BRANCH   6   9
ATOM      9  C   UNL     1       3.585   7.618  17.799  0.00  0.00    +0.000 C 
ATOM     10  C   UNL     1       3.574   6.624  16.894  0.00  0.00    +0.000 C 
BRANCH  10  11
ATOM     11  C   UNL     1       4.820   5.957  16.496  0.00  0.00    +0.000 A 
ATOM     12  C   UNL     1       4.749   4.692  15.896  0.00  0.00    +0.000 A 
ATOM     13  C   UNL     1       5.915   4.009  15.541  0.00  0.00    +0.000 A 
ATOM     14  C   UNL     1       7.160   4.586  15.783  0.00  0.00    +0.000 A 
ATOM     15  C   UNL     1       7.238   5.849  16.371  0.00  0.00    +0.000 A 
ATOM     16  C   UNL     1       6.071   6.534  16.728  0.00  0.00    +0.000 A 
ENDBRANCH  10  11
ENDBRANCH   6   9
BRANCH   1  17
ATOM     17  O   UNL     1       2.675   7.014  20.482  0.00  0.00    +0.000 OA
BRANCH  17  20
ATOM     18  C   UNL     1       4.988   5.132  19.749  0.00  0.00    +0.000 C 
ATOM     19  C   UNL     1       3.528   4.780  19.782  0.00  0.00    +0.000 A 
ATOM     20  C   UNL     1       2.508   5.678  20.179  0.00  0.00    +0.000 A 
ATOM     21  C   UNL     1       1.185   5.248  20.343  0.00  0.00    +0.000 A 
ATOM     22  C   UNL     1       0.790   3.954  20.008  0.00  0.00    +0.000 A 
ATOM     23  C   UNL     1       1.762   3.126  19.448  0.00  0.00    +0.000 A 
ATOM     24  N   UNL     1       1.641   1.855  18.931  0.00  0.00    +0.000 N 
ATOM     25  C   UNL     1       2.837   1.439  18.415  0.00  0.00    +0.000 A 
ATOM     26  C   UNL     1       3.762   2.427  18.656  0.00  0.00    +0.000 A 
ATOM     27  C   UNL     1       3.097   3.506  19.317  0.00  0.00    +0.000 A 
ATOM     28  H   UNL     1       0.778   1.333  18.895  0.00  0.00    +0.000 HD
ENDBRANCH  17  20
ENDBRANCH   1  17
TORSDOF 5
ENDMDL
MODEL 8
REMARK VINA RESULT:      -7.7      0.754      1.827
REMARK  Name = 
REMARK  6 active torsions:
REMARK  status: ('A' for Active; 'I' for Inactive)
REMARK    1  A    between atoms: C_1  and  C_2
REMARK    2  A    between atoms: C_3  and  O_4
REMARK    3  A    between atoms: O_4  and  C_5
REMARK    4  A    between atoms: C_6  and  C_7
REMARK    5  A    between atoms: C_12  and  C_13
REMARK    6  A    between atoms: C_14  and  C_15
REMARK                            x       y       z     vdW  Elec       q    Type
REMARK                         _______ _______ _______ _____ _____    ______ ____
ROOT
ATOM      1  C   UNL     1       4.856   5.265  16.506  0.00  0.00    +0.000 A 
ATOM      2  C   UNL     1       6.006   5.051  15.725  0.00  0.00    +0.000 A 
ATOM      3  C   UNL     1       7.123   5.832  15.993  0.00  0.00    +0.000 A 
ATOM      4  N   UNL     1       7.150   6.846  16.882  0.00  0.00    +0.000 NA
ATOM      5  C   UNL     1       5.981   7.131  17.494  0.00  0.00    +0.000 A 
ATOM      6  C   UNL     1       4.796   6.409  17.332  0.00  0.00    +0.000 A 
ENDROOT
BRANCH   2   7
ATOM      7  C   UNL     1       6.123   4.112  14.648  0.00  0.00    +0.000 C 
ATOM      8  N   UNL     1       6.202   3.416  13.724  0.00  0.00    +0.000 NA
ENDBRANCH   2   7
BRANCH   6   9
ATOM      9  C   UNL     1       3.601   6.942  18.022  0.00  0.00    +0.000 C 
ATOM     10  C   UNL     1       2.907   8.031  17.645  0.00  0.00    +0.000 C 
BRANCH  10  11
ATOM     11  C   UNL     1       1.902   8.625  18.535  0.00  0.00    +0.000 A 
ATOM     12  C   UNL     1       1.824   8.180  19.862  0.00  0.00    +0.000 A 
ATOM     13  C   UNL     1       0.853   8.692  20.727  0.00  0.00    +0.000 A 
ATOM     14  C   UNL     1      -0.046   9.654  20.271  0.00  0.00    +0.000 A 
ATOM     15  C   UNL     1       0.031  10.109  18.954  0.00  0.00    +0.000 A 
ATOM     16  C   UNL     1       1.002   9.596  18.087  0.00  0.00    +0.000 A 
ENDBRANCH  10  11
ENDBRANCH   6   9
BRANCH   1  17
ATOM     17  O   UNL     1       3.742   4.450  16.553  0.00  0.00    +0.000 OA
BRANCH  17  20
ATOM     18  C   UNL     1       5.198   3.636  19.131  0.00  0.00    +0.000 C 
ATOM     19  C   UNL     1       3.711   3.732  18.939  0.00  0.00    +0.000 A 
ATOM     20  C   UNL     1       3.096   4.165  17.738  0.00  0.00    +0.000 A 
ATOM     21  C   UNL     1       1.714   4.387  17.670  0.00  0.00    +0.000 A 
ATOM     22  C   UNL     1       0.871   4.079  18.735  0.00  0.00    +0.000 A 
ATOM     23  C   UNL     1       1.459   3.485  19.851  0.00  0.00    +0.000 A 
ATOM     24  N   UNL     1       0.871   2.984  20.991  0.00  0.00    +0.000 N 
ATOM     25  C   UNL     1       1.817   2.421  21.803  0.00  0.00    +0.000 A 
ATOM     26  C   UNL     1       3.043   2.616  21.211  0.00  0.00    +0.000 A 
ATOM     27  C   UNL     1       2.835   3.295  19.972  0.00  0.00    +0.000 A 
ATOM     28  H   UNL     1      -0.122   2.988  21.170  0.00  0.00    +0.000 HD
ENDBRANCH  17  20
ENDBRANCH   1  17
TORSDOF 5
ENDMDL
MODEL 9
REMARK VINA RESULT:      -7.3      2.576      5.919
REMARK  Name = 
REMARK  6 active torsions:
REMARK  status: ('A' for Active; 'I' for Inactive)
REMARK    1  A    between atoms: C_1  and  C_2
REMARK    2  A    between atoms: C_3  and  O_4
REMARK    3  A    between atoms: O_4  and  C_5
REMARK    4  A    between atoms: C_6  and  C_7
REMARK    5  A    between atoms: C_12  and  C_13
REMARK    6  A    between atoms: C_14  and  C_15
REMARK                            x       y       z     vdW  Elec       q    Type
REMARK                         _______ _______ _______ _____ _____    ______ ____
ROOT
ATOM      1  C   UNL     1       6.604   5.010  17.653  0.00  0.00    +0.000 A 
ATOM      2  C   UNL     1       7.345   5.835  18.519  0.00  0.00    +0.000 A 
ATOM      3  C   UNL     1       7.780   7.060  18.029  0.00  0.00    +0.000 A 
ATOM      4  N   UNL     1       7.625   7.470  16.754  0.00  0.00    +0.000 NA
ATOM      5  C   UNL     1       7.056   6.583  15.909  0.00  0.00    +0.000 A 
ATOM      6  C   UNL     1       6.555   5.333  16.279  0.00  0.00    +0.000 A 
ENDROOT
BRANCH   2   7
ATOM      7  C   UNL     1       7.722   5.511  19.864  0.00  0.00    +0.000 C 
ATOM      8  N   UNL     1       8.077   5.191  20.920  0.00  0.00    +0.000 NA
ENDBRANCH   2   7
BRANCH   6   9
ATOM      9  C   UNL     1       6.056   4.474  15.184  0.00  0.00    +0.000 C 
ATOM     10  C   UNL     1       6.723   4.191  14.052  0.00  0.00    +0.000 C 
BRANCH  10  11
ATOM     11  C   UNL     1       6.045   3.547  12.920  0.00  0.00    +0.000 A 
ATOM     12  C   UNL     1       4.748   3.961  12.584  0.00  0.00    +0.000 A 
ATOM     13  C   UNL     1       4.054   3.343  11.540  0.00  0.00    +0.000 A 
ATOM     14  C   UNL     1       4.652   2.307  10.825  0.00  0.00    +0.000 A 
ATOM     15  C   UNL     1       5.946   1.896  11.148  0.00  0.00    +0.000 A 
ATOM     16  C   UNL     1       6.641   2.513  12.194  0.00  0.00    +0.000 A 
ENDBRANCH  10  11
ENDBRANCH   6   9
BRANCH   1  17
ATOM     17  O   UNL     1       5.896   3.880  18.014  0.00  0.00    +0.000 OA
BRANCH  17  20
ATOM     18  C   UNL     1       5.048   1.957  20.253  0.00  0.00    +0.000 C 
ATOM     19  C   UNL     1       4.219   3.066  19.667  0.00  0.00    +0.000 A 
ATOM     20  C   UNL     1       4.684   3.956  18.669  0.00  0.00    +0.000 A 
ATOM     21  C   UNL     1       3.925   5.067  18.276  0.00  0.00    +0.000 A 
ATOM     22  C   UNL     1       2.635   5.277  18.758  0.00  0.00    +0.000 A 
ATOM     23  C   UNL     1       2.113   4.300  19.605  0.00  0.00    +0.000 A 
ATOM     24  N   UNL     1       0.850   4.188  20.142  0.00  0.00    +0.000 N 
ATOM     25  C   UNL     1       0.744   3.030  20.862  0.00  0.00    +0.000 A 
ATOM     26  C   UNL     1       1.973   2.414  20.844  0.00  0.00    +0.000 A 
ATOM     27  C   UNL     1       2.857   3.210  20.054  0.00  0.00    +0.000 A 
ATOM     28  H   UNL     1       0.100   4.844  19.979  0.00  0.00    +0.000 HD
ENDBRANCH  17  20
ENDBRANCH   1  17
TORSDOF 5
ENDMDL
