MODEL 1
REMARK VINA RESULT:      -7.2      0.000      0.000
REMARK  Name = 
REMARK  8 active torsions:
REMARK  status: ('A' for Active; 'I' for Inactive)
REMARK    1  A    between atoms: C_1  and  O_2
REMARK    2  A    between atoms: O_2  and  C_3
REMARK    3  A    between atoms: C_9  and  C_10
REMARK    4  A    between atoms: C_11  and  S_12
REMARK    5  A    between atoms: S_12  and  N_15
REMARK    6  A    between atoms: N_15  and  C_16
REMARK    7  A    between atoms: C_22  and  S_23
REMARK    8  A    between atoms: S_23  and  N_24
REMARK                            x       y       z     vdW  Elec       q    Type
REMARK                         _______ _______ _______ _____ _____    ______ ____
ROOT
ATOM      1  N   UNL     1       0.844  10.720  20.685  0.00  0.00    +0.000 N 
ATOM      2  H   UNL     1       1.633  10.751  20.017  0.00  0.00    +0.000 HD
ENDROOT
BRANCH   1   3
ATOM      3  C   UNL     1      -0.417  11.062  20.071  0.00  0.00    +0.000 A 
ATOM      4  C   UNL     1      -0.732  10.417  18.866  0.00  0.00    +0.000 A 
ATOM      5  C   UNL     1      -1.936  10.683  18.209  0.00  0.00    +0.000 A 
ATOM      6  C   UNL     1      -2.822  11.616  18.739  0.00  0.00    +0.000 A 
ATOM      7  C   UNL     1      -2.499  12.287  19.916  0.00  0.00    +0.000 A 
ATOM      8  F   UNL     1      -3.374  13.192  20.372  0.00  0.00    +0.000 F 
ATOM      9  C   UNL     1      -1.304  12.021  20.584  0.00  0.00    +0.000 A 
BRANCH   9  10
ATOM     10  S   UNL     1      -0.999  12.824  22.111  0.00  0.00    +0.000 S 
ATOM     11  O   UNL     1      -1.853  13.978  22.265  0.00  0.00    +0.000 OA
ATOM     12  O   UNL     1      -0.926  11.812  23.142  0.00  0.00    +0.000 OA
BRANCH  10  13
ATOM     13  N   UNL     1       0.559  13.406  21.914  0.00  0.00    +0.000 NA
ATOM     14  H   UNL     1       0.558  14.423  21.830  0.00  0.00    +0.000 HD
ATOM     15  H   UNL     1       1.186  13.045  22.636  0.00  0.00    +0.000 HD
ENDBRANCH  10  13
ENDBRANCH   9  10
ENDBRANCH   1   3
BRANCH   1  16
ATOM     16  S   UNL     1       0.938   9.190  21.446  0.00  0.00    +0.000 S 
ATOM     17  O   UNL     1      -0.439   8.817  21.697  0.00  0.00    +0.000 OA
ATOM     18  O   UNL     1       1.872   9.285  22.549  0.00  0.00    +0.000 OA
BRANCH  16  20
ATOM     19  C   UNL     1       1.778   6.835  20.474  0.00  0.00    +0.000 C 
ATOM     20  C   UNL     1       1.620   8.146  20.240  0.00  0.00    +0.000 C 
BRANCH  19  27
ATOM     21  C   UNL     1       1.952   4.494  19.422  0.00  0.00    +0.000 A 
ATOM     22  C   UNL     1       2.541   3.665  18.455  0.00  0.00    +0.000 A 
ATOM     23  C   UNL     1       3.491   4.168  17.564  0.00  0.00    +0.000 A 
ATOM     24  C   UNL     1       3.844   5.509  17.625  0.00  0.00    +0.000 A 
ATOM     25 BR   UNL     1       5.105   6.198  16.397  0.00  0.00    +0.000 Br
ATOM     26  C   UNL     1       3.269   6.349  18.580  0.00  0.00    +0.000 A 
ATOM     27  C   UNL     1       2.328   5.857  19.504  0.00  0.00    +0.000 A 
BRANCH  21  29
ATOM     28  C   UNL     1       1.321   3.015  21.180  0.00  0.00    +0.000 C 
ATOM     29  O   UNL     1       0.971   4.058  20.277  0.00  0.00    +0.000 OA
ENDBRANCH  21  29
ENDBRANCH  19  27
ENDBRANCH  16  20
ENDBRANCH   1  16
TORSDOF 7
ENDMDL
MODEL 2
REMARK VINA RESULT:      -7.1      0.783      1.047
REMARK  Name = 
REMARK  8 active torsions:
REMARK  status: ('A' for Active; 'I' for Inactive)
REMARK    1  A    between atoms: C_1  and  O_2
REMARK    2  A    between atoms: O_2  and  C_3
REMARK    3  A    between atoms: C_9  and  C_10
REMARK    4  A    between atoms: C_11  and  S_12
REMARK    5  A    between atoms: S_12  and  N_15
REMARK    6  A    between atoms: N_15  and  C_16
REMARK    7  A    between atoms: C_22  and  S_23
REMARK    8  A    between atoms: S_23  and  N_24
REMARK                            x       y       z     vdW  Elec       q    Type
REMARK                         _______ _______ _______ _____ _____    ______ ____
ROOT
ATOM      1  N   UNL     1       0.801  10.705  20.763  0.00  0.00    +0.000 N 
ATOM      2  H   UNL     1       1.663  10.794  20.198  0.00  0.00    +0.000 HD
ENDROOT
BRANCH   1   3
ATOM      3  C   UNL     1      -0.395  10.965  19.996  0.00  0.00    +0.000 A 
ATOM      4  C   UNL     1      -0.502  10.326  18.752  0.00  0.00    +0.000 A 
ATOM      5  C   UNL     1      -1.629  10.514  17.949  0.00  0.00    +0.000 A 
ATOM      6  C   UNL     1      -2.646  11.364  18.373  0.00  0.00    +0.000 A 
ATOM      7  C   UNL     1      -2.530  12.030  19.591  0.00  0.00    +0.000 A 
ATOM      8  F   UNL     1      -3.524  12.854  19.942  0.00  0.00    +0.000 F 
ATOM      9  C   UNL     1      -1.413  11.841  20.403  0.00  0.00    +0.000 A 
BRANCH   9  10
ATOM     10  S   UNL     1      -1.369  12.629  21.967  0.00  0.00    +0.000 S 
ATOM     11  O   UNL     1      -0.447  11.960  22.855  0.00  0.00    +0.000 OA
ATOM     12  O   UNL     1      -1.282  14.057  21.746  0.00  0.00    +0.000 OA
BRANCH  10  13
ATOM     13  N   UNL     1      -2.906  12.341  22.567  0.00  0.00    +0.000 NA
ATOM     14  H   UNL     1      -2.971  11.400  22.957  0.00  0.00    +0.000 HD
ATOM     15  H   UNL     1      -3.202  13.082  23.205  0.00  0.00    +0.000 HD
ENDBRANCH  10  13
ENDBRANCH   9  10
ENDBRANCH   1   3
BRANCH   1  16
ATOM     16  S   UNL     1       0.904   9.182  21.534  0.00  0.00    +0.000 S 
ATOM     17  O   UNL     1      -0.471   8.781  21.747  0.00  0.00    +0.000 OA
ATOM     18  O   UNL     1       1.804   9.301  22.663  0.00  0.00    +0.000 OA
BRANCH  16  20
ATOM     19  C   UNL     1       1.689   6.818  20.535  0.00  0.00    +0.000 C 
ATOM     20  C   UNL     1       1.642   8.146  20.353  0.00  0.00    +0.000 C 
BRANCH  19  27
ATOM     21  C   UNL     1       1.947   4.472  19.514  0.00  0.00    +0.000 A 
ATOM     22  C   UNL     1       2.567   3.652  18.558  0.00  0.00    +0.000 A 
ATOM     23  C   UNL     1       3.501   4.176  17.663  0.00  0.00    +0.000 A 
ATOM     24  C   UNL     1       3.807   5.529  17.708  0.00  0.00    +0.000 A 
ATOM     25 BR   UNL     1       5.047   6.246  16.474  0.00  0.00    +0.000 Br
ATOM     26  C   UNL     1       3.201   6.361  18.651  0.00  0.00    +0.000 A 
ATOM     27  C   UNL     1       2.276   5.848  19.579  0.00  0.00    +0.000 A 
BRANCH  21  29
ATOM     28  C   UNL     1       1.320   2.898  21.189  0.00  0.00    +0.000 C 
ATOM     29  O   UNL     1       0.980   4.013  20.372  0.00  0.00    +0.000 OA
ENDBRANCH  21  29
ENDBRANCH  19  27
ENDBRANCH  16  20
ENDBRANCH   1  16
TORSDOF 7
ENDMDL
MODEL 3
REMARK VINA RESULT:      -7.0      1.027      1.190
REMARK  Name = 
REMARK  8 active torsions:
REMARK  status: ('A' for Active; 'I' for Inactive)
REMARK    1  A    between atoms: C_1  and  O_2
REMARK    2  A    between atoms: O_2  and  C_3
REMARK    3  A    between atoms: C_9  and  C_10
REMARK    4  A    between atoms: C_11  and  S_12
REMARK    5  A    between atoms: S_12  and  N_15
REMARK    6  A    between atoms: N_15  and  C_16
REMARK    7  A    between atoms: C_22  and  S_23
REMARK    8  A    between atoms: S_23  and  N_24
REMARK                            x       y       z     vdW  Elec       q    Type
REMARK                         _______ _______ _______ _____ _____    ______ ____
ROOT
ATOM      1  N   UNL     1       0.984  10.099  20.145  0.00  0.00    +0.000 N 
ATOM      2  H   UNL     1       1.534   9.628  19.405  0.00  0.00    +0.000 HD
ENDROOT
BRANCH   1   3
ATOM      3  C   UNL     1      -0.266  10.629  19.655  0.00  0.00    +0.000 A 
ATOM      4  C   UNL     1      -0.859   9.961  18.573  0.00  0.00    +0.000 A 
ATOM      5  C   UNL     1      -2.073  10.401  18.042  0.00  0.00    +0.000 A 
ATOM      6  C   UNL     1      -2.691  11.529  18.573  0.00  0.00    +0.000 A 
ATOM      7  C   UNL     1      -2.090  12.219  19.623  0.00  0.00    +0.000 A 
ATOM      8  F   UNL     1      -2.713  13.311  20.082  0.00  0.00    +0.000 F 
ATOM      9  C   UNL     1      -0.883  11.781  20.166  0.00  0.00    +0.000 A 
BRANCH   9  10
ATOM     10  S   UNL     1      -0.227  12.632  21.549  0.00  0.00    +0.000 S 
ATOM     11  O   UNL     1       1.216  12.668  21.494  0.00  0.00    +0.000 OA
ATOM     12  O   UNL     1      -0.992  13.847  21.732  0.00  0.00    +0.000 OA
BRANCH  10  13
ATOM     13  N   UNL     1      -0.633  11.627  22.825  0.00  0.00    +0.000 NA
ATOM     14  H   UNL     1      -1.550  11.872  23.201  0.00  0.00    +0.000 HD
ATOM     15  H   UNL     1      -0.533  10.642  22.570  0.00  0.00    +0.000 HD
ENDBRANCH  10  13
ENDBRANCH   9  10
ENDBRANCH   1   3
BRANCH   1  16
ATOM     16  S   UNL     1       0.892   8.982  21.438  0.00  0.00    +0.000 S 
ATOM     17  O   UNL     1      -0.522   8.710  21.591  0.00  0.00    +0.000 OA
ATOM     18  O   UNL     1       1.650   9.511  22.553  0.00  0.00    +0.000 OA
BRANCH  16  20
ATOM     19  C   UNL     1       2.080   7.473  19.565  0.00  0.00    +0.000 C 
ATOM     20  C   UNL     1       1.702   7.566  20.849  0.00  0.00    +0.000 C 
BRANCH  19  27
ATOM     21  C   UNL     1       2.688   4.979  19.415  0.00  0.00    +0.000 A 
ATOM     22  C   UNL     1       3.413   3.968  18.765  0.00  0.00    +0.000 A 
ATOM     23  C   UNL     1       4.236   4.263  17.678  0.00  0.00    +0.000 A 
ATOM     24  C   UNL     1       4.325   5.572  17.223  0.00  0.00    +0.000 A 
ATOM     25 BR   UNL     1       5.414   5.968  15.728  0.00  0.00    +0.000 Br
ATOM     26  C   UNL     1       3.612   6.591  17.856  0.00  0.00    +0.000 A 
ATOM     27  C   UNL     1       2.796   6.318  18.970  0.00  0.00    +0.000 A 
BRANCH  21  29
ATOM     28  C   UNL     1       0.828   3.730  20.226  0.00  0.00    +0.000 C 
ATOM     29  O   UNL     1       1.821   4.725  20.448  0.00  0.00    +0.000 OA
ENDBRANCH  21  29
ENDBRANCH  19  27
ENDBRANCH  16  20
ENDBRANCH   1  16
TORSDOF 7
ENDMDL
MODEL 4
REMARK VINA RESULT:      -6.9      1.863      2.356
REMARK  Name = 
REMARK  8 active torsions:
REMARK  status: ('A' for Active; 'I' for Inactive)
REMARK    1  A    between atoms: C_1  and  O_2
REMARK    2  A    between atoms: O_2  and  C_3
REMARK    3  A    between atoms: C_9  and  C_10
REMARK    4  A    between atoms: C_11  and  S_12
REMARK    5  A    between atoms: S_12  and  N_15
REMARK    6  A    between atoms: N_15  and  C_16
REMARK    7  A    between atoms: C_22  and  S_23
REMARK    8  A    between atoms: S_23  and  N_24
REMARK                            x       y       z     vdW  Elec       q    Type
REMARK                         _______ _______ _______ _____ _____    ______ ____
ROOT
ATOM      1  N   UNL     1       0.518  10.526  20.701  0.00  0.00    +0.000 N 
ATOM      2  H   UNL     1       0.439  10.258  19.705  0.00  0.00    +0.000 HD
ENDROOT
BRANCH   1   3
ATOM      3  C   UNL     1      -0.616  11.293  21.161  0.00  0.00    +0.000 A 
ATOM      4  C   UNL     1      -0.819  11.356  22.547  0.00  0.00    +0.000 A 
ATOM      5  C   UNL     1      -1.887  12.084  23.079  0.00  0.00    +0.000 A 
ATOM      6  C   UNL     1      -2.774  12.732  22.225  0.00  0.00    +0.000 A 
ATOM      7  C   UNL     1      -2.599  12.643  20.847  0.00  0.00    +0.000 A 
ATOM      8  F   UNL     1      -3.494  13.265  20.069  0.00  0.00    +0.000 F 
ATOM      9  C   UNL     1      -1.531  11.927  20.308  0.00  0.00    +0.000 A 
BRANCH   9  10
ATOM     10  S   UNL     1      -1.308  11.934  18.570  0.00  0.00    +0.000 S 
ATOM     11  O   UNL     1      -0.740  13.186  18.129  0.00  0.00    +0.000 OA
ATOM     12  O   UNL     1      -0.707  10.673  18.192  0.00  0.00    +0.000 OA
BRANCH  10  13
ATOM     13  N   UNL     1      -2.881  11.894  17.997  0.00  0.00    +0.000 NA
ATOM     14  H   UNL     1      -3.113  12.763  17.515  0.00  0.00    +0.000 HD
ATOM     15  H   UNL     1      -3.056  11.050  17.448  0.00  0.00    +0.000 HD
ENDBRANCH  10  13
ENDBRANCH   9  10
ENDBRANCH   1   3
BRANCH   1  16
ATOM     16  S   UNL     1       0.860   9.078  21.547  0.00  0.00    +0.000 S 
ATOM     17  O   UNL     1      -0.437   8.504  21.838  0.00  0.00    +0.000 OA
ATOM     18  O   UNL     1       1.773   9.386  22.629  0.00  0.00    +0.000 OA
BRANCH  16  20
ATOM     19  C   UNL     1       1.606   6.751  20.440  0.00  0.00    +0.000 C 
ATOM     20  C   UNL     1       1.695   8.088  20.392  0.00  0.00    +0.000 C 
BRANCH  19  27
ATOM     21  C   UNL     1       2.001   4.430  19.405  0.00  0.00    +0.000 A 
ATOM     22  C   UNL     1       2.681   3.650  18.457  0.00  0.00    +0.000 A 
ATOM     23  C   UNL     1       3.608   4.226  17.588  0.00  0.00    +0.000 A 
ATOM     24  C   UNL     1       3.847   5.592  17.652  0.00  0.00    +0.000 A 
ATOM     25 BR   UNL     1       5.079   6.380  16.452  0.00  0.00    +0.000 Br
ATOM     26  C   UNL     1       3.180   6.385  18.587  0.00  0.00    +0.000 A 
ATOM     27  C   UNL     1       2.260   5.819  19.489  0.00  0.00    +0.000 A 
BRANCH  21  29
ATOM     28  C   UNL     1       1.471   2.997  21.234  0.00  0.00    +0.000 C 
ATOM     29  O   UNL     1       1.037   3.916  20.237  0.00  0.00    +0.000 OA
ENDBRANCH  21  29
ENDBRANCH  19  27
ENDBRANCH  16  20
ENDBRANCH   1  16
TORSDOF 7
ENDMDL
MODEL 5
REMARK VINA RESULT:      -6.9      1.915      2.571
REMARK  Name = 
REMARK  8 active torsions:
REMARK  status: ('A' for Active; 'I' for Inactive)
REMARK    1  A    between atoms: C_1  and  O_2
REMARK    2  A    between atoms: O_2  and  C_3
REMARK    3  A    between atoms: C_9  and  C_10
REMARK    4  A    between atoms: C_11  and  S_12
REMARK    5  A    between atoms: S_12  and  N_15
REMARK    6  A    between atoms: N_15  and  C_16
REMARK    7  A    between atoms: C_22  and  S_23
REMARK    8  A    between atoms: S_23  and  N_24
REMARK                            x       y       z     vdW  Elec       q    Type
REMARK                         _______ _______ _______ _____ _____    ______ ____
ROOT
ATOM      1  N   UNL     1       0.994  10.047  20.121  0.00  0.00    +0.000 N 
ATOM      2  H   UNL     1       1.517   9.570  19.366  0.00  0.00    +0.000 HD
ENDROOT
BRANCH   1   3
ATOM      3  C   UNL     1      -0.254  10.610  19.661  0.00  0.00    +0.000 A 
ATOM      4  C   UNL     1      -0.895   9.952  18.601  0.00  0.00    +0.000 A 
ATOM      5  C   UNL     1      -2.110  10.425  18.100  0.00  0.00    +0.000 A 
ATOM      6  C   UNL     1      -2.679  11.575  18.638  0.00  0.00    +0.000 A 
ATOM      7  C   UNL     1      -2.029  12.254  19.665  0.00  0.00    +0.000 A 
ATOM      8  F   UNL     1      -2.606  13.369  20.131  0.00  0.00    +0.000 F 
ATOM      9  C   UNL     1      -0.821  11.785  20.178  0.00  0.00    +0.000 A 
BRANCH   9  10
ATOM     10  S   UNL     1      -0.102  12.627  21.536  0.00  0.00    +0.000 S 
ATOM     11  O   UNL     1       1.338  12.642  21.427  0.00  0.00    +0.000 OA
ATOM     12  O   UNL     1      -0.843  13.851  21.747  0.00  0.00    +0.000 OA
BRANCH  10  13
ATOM     13  N   UNL     1      -0.473  11.626  22.826  0.00  0.00    +0.000 NA
ATOM     14  H   UNL     1      -0.811  12.171  23.621  0.00  0.00    +0.000 HD
ATOM     15  H   UNL     1      -1.097  10.868  22.543  0.00  0.00    +0.000 HD
ENDBRANCH  10  13
ENDBRANCH   9  10
ENDBRANCH   1   3
BRANCH   1  16
ATOM     16  S   UNL     1       0.901   8.921  21.406  0.00  0.00    +0.000 S 
ATOM     17  O   UNL     1      -0.504   8.873  21.754  0.00  0.00    +0.000 OA
ATOM     18  O   UNL     1       1.880   9.290  22.408  0.00  0.00    +0.000 OA
BRANCH  16  20
ATOM     19  C   UNL     1       2.109   7.381  19.571  0.00  0.00    +0.000 C 
ATOM     20  C   UNL     1       1.384   7.412  20.699  0.00  0.00    +0.000 C 
BRANCH  19  27
ATOM     21  C   UNL     1       3.607   6.102  17.918  0.00  0.00    +0.000 A 
ATOM     22  C   UNL     1       3.980   4.870  17.358  0.00  0.00    +0.000 A 
ATOM     23  C   UNL     1       3.366   3.685  17.764  0.00  0.00    +0.000 A 
ATOM     24  C   UNL     1       2.385   3.723  18.745  0.00  0.00    +0.000 A 
ATOM     25 BR   UNL     1       1.575   2.114  19.318  0.00  0.00    +0.000 Br
ATOM     26  C   UNL     1       2.000   4.939  19.313  0.00  0.00    +0.000 A 
ATOM     27  C   UNL     1       2.589   6.148  18.901  0.00  0.00    +0.000 A 
BRANCH  21  29
ATOM     28  C   UNL     1       5.577   7.203  17.153  0.00  0.00    +0.000 C 
ATOM     29  O   UNL     1       4.226   7.283  17.594  0.00  0.00    +0.000 OA
ENDBRANCH  21  29
ENDBRANCH  19  27
ENDBRANCH  16  20
ENDBRANCH   1  16
TORSDOF 7
ENDMDL
MODEL 6
REMARK VINA RESULT:      -6.9      2.907      4.468
REMARK  Name = 
REMARK  8 active torsions:
REMARK  status: ('A' for Active; 'I' for Inactive)
REMARK    1  A    between atoms: C_1  and  O_2
REMARK    2  A    between atoms: O_2  and  C_3
REMARK    3  A    between atoms: C_9  and  C_10
REMARK    4  A    between atoms: C_11  and  S_12
REMARK    5  A    between atoms: S_12  and  N_15
REMARK    6  A    between atoms: N_15  and  C_16
REMARK    7  A    between atoms: C_22  and  S_23
REMARK    8  A    between atoms: S_23  and  N_24
REMARK                            x       y       z     vdW  Elec       q    Type
REMARK                         _______ _______ _______ _____ _____    ______ ____
ROOT
ATOM      1  N   UNL     1       1.904   6.835  20.966  0.00  0.00    +0.000 N 
ATOM      2  H   UNL     1       2.663   7.026  21.642  0.00  0.00    +0.000 HD
ENDROOT
BRANCH   1   3
ATOM      3  C   UNL     1       1.784   7.865  19.961  0.00  0.00    +0.000 A 
ATOM      4  C   UNL     1       2.387   7.614  18.720  0.00  0.00    +0.000 A 
ATOM      5  C   UNL     1       2.311   8.553  17.688  0.00  0.00    +0.000 A 
ATOM      6  C   UNL     1       1.654   9.761  17.900  0.00  0.00    +0.000 A 
ATOM      7  C   UNL     1       1.084  10.031  19.141  0.00  0.00    +0.000 A 
ATOM      8  F   UNL     1       0.484  11.218  19.301  0.00  0.00    +0.000 F 
ATOM      9  C   UNL     1       1.146   9.097  20.174  0.00  0.00    +0.000 A 
BRANCH   9  10
ATOM     10  S   UNL     1       0.326   9.453  21.681  0.00  0.00    +0.000 S 
ATOM     11  O   UNL     1       1.264   9.502  22.777  0.00  0.00    +0.000 OA
ATOM     12  O   UNL     1      -0.594  10.545  21.442  0.00  0.00    +0.000 OA
BRANCH  10  13
ATOM     13  N   UNL     1      -0.617   8.090  21.917  0.00  0.00    +0.000 NA
ATOM     14  H   UNL     1      -0.054   7.319  22.280  0.00  0.00    +0.000 HD
ATOM     15  H   UNL     1      -1.446   8.302  22.475  0.00  0.00    +0.000 HD
ENDBRANCH  10  13
ENDBRANCH   9  10
ENDBRANCH   1   3
BRANCH   1  16
ATOM     16  S   UNL     1       2.171   5.241  20.405  0.00  0.00    +0.000 S 
ATOM     17  O   UNL     1       1.039   4.956  19.548  0.00  0.00    +0.000 OA
ATOM     18  O   UNL     1       2.443   4.393  21.548  0.00  0.00    +0.000 OA
BRANCH  16  20
ATOM     19  C   UNL     1       3.877   4.455  18.488  0.00  0.00    +0.000 C 
ATOM     20  C   UNL     1       3.616   5.352  19.451  0.00  0.00    +0.000 C 
BRANCH  19  27
ATOM     21  C   UNL     1       6.393   4.730  18.036  0.00  0.00    +0.000 A 
ATOM     22  C   UNL     1       7.443   4.716  17.104  0.00  0.00    +0.000 A 
ATOM     23  C   UNL     1       7.201   4.446  15.757  0.00  0.00    +0.000 A 
ATOM     24  C   UNL     1       5.907   4.171  15.336  0.00  0.00    +0.000 A 
ATOM     25 BR   UNL     1       5.584   3.772  13.516  0.00  0.00    +0.000 Br
ATOM     26  C   UNL     1       4.850   4.180  16.247  0.00  0.00    +0.000 A 
ATOM     27  C   UNL     1       5.069   4.475  17.606  0.00  0.00    +0.000 A 
BRANCH  21  29
ATOM     28  C   UNL     1       7.772   5.633  19.757  0.00  0.00    +0.000 C 
ATOM     29  O   UNL     1       6.593   4.930  19.379  0.00  0.00    +0.000 OA
ENDBRANCH  21  29
ENDBRANCH  19  27
ENDBRANCH  16  20
ENDBRANCH   1  16
TORSDOF 7
ENDMDL
MODEL 7
REMARK VINA RESULT:      -6.9      2.567      3.509
REMARK  Name = 
REMARK  8 active torsions:
REMARK  status: ('A' for Active; 'I' for Inactive)
REMARK    1  A    between atoms: C_1  and  O_2
REMARK    2  A    between atoms: O_2  and  C_3
REMARK    3  A    between atoms: C_9  and  C_10
REMARK    4  A    between atoms: C_11  and  S_12
REMARK    5  A    between atoms: S_12  and  N_15
REMARK    6  A    between atoms: N_15  and  C_16
REMARK    7  A    between atoms: C_22  and  S_23
REMARK    8  A    between atoms: S_23  and  N_24
REMARK                            x       y       z     vdW  Elec       q    Type
REMARK                         _______ _______ _______ _____ _____    ______ ____
ROOT
ATOM      1  N   UNL     1       1.467  10.853  19.797  0.00  0.00    +0.000 N 
ATOM      2  H   UNL     1       2.273  11.472  19.604  0.00  0.00    +0.000 HD
ENDROOT
BRANCH   1   3
ATOM      3  C   UNL     1       0.293  11.584  20.213  0.00  0.00    +0.000 A 
ATOM      4  C   UNL     1      -0.053  12.713  19.457  0.00  0.00    +0.000 A 
ATOM      5  C   UNL     1      -1.178  13.473  19.785  0.00  0.00    +0.000 A 
ATOM      6  C   UNL     1      -1.951  13.123  20.887  0.00  0.00    +0.000 A 
ATOM      7  C   UNL     1      -1.593  12.024  21.664  0.00  0.00    +0.000 A 
ATOM      8  F   UNL     1      -2.355  11.744  22.728  0.00  0.00    +0.000 F 
ATOM      9  C   UNL     1      -0.477  11.255  21.339  0.00  0.00    +0.000 A 
BRANCH   9  10
ATOM     10  S   UNL     1      -0.133   9.828  22.296  0.00  0.00    +0.000 S 
ATOM     11  O   UNL     1      -0.640   9.976  23.640  0.00  0.00    +0.000 OA
ATOM     12  O   UNL     1      -0.467   8.666  21.501  0.00  0.00    +0.000 OA
BRANCH  10  13
ATOM     13  N   UNL     1       1.537   9.855  22.409  0.00  0.00    +0.000 NA
ATOM     14  H   UNL     1       1.950  10.264  21.569  0.00  0.00    +0.000 HD
ATOM     15  H   UNL     1       1.845  10.288  23.281  0.00  0.00    +0.000 HD
ENDBRANCH  10  13
ENDBRANCH   9  10
ENDBRANCH   1   3
BRANCH   1  16
ATOM     16  S   UNL     1       1.303   9.857  18.415  0.00  0.00    +0.000 S 
ATOM     17  O   UNL     1       2.219  10.420  17.444  0.00  0.00    +0.000 OA
ATOM     18  O   UNL     1      -0.106   9.744  18.098  0.00  0.00    +0.000 OA
BRANCH  16  20
ATOM     19  C   UNL     1       2.441   7.453  18.059  0.00  0.00    +0.000 C 
ATOM     20  C   UNL     1       1.875   8.302  18.930  0.00  0.00    +0.000 C 
BRANCH  19  27
ATOM     21  C   UNL     1       4.036   5.466  17.720  0.00  0.00    +0.000 A 
ATOM     22  C   UNL     1       4.465   4.198  18.142  0.00  0.00    +0.000 A 
ATOM     23  C   UNL     1       3.867   3.568  19.234  0.00  0.00    +0.000 A 
ATOM     24  C   UNL     1       2.846   4.212  19.921  0.00  0.00    +0.000 A 
ATOM     25 BR   UNL     1       2.058   3.373  21.421  0.00  0.00    +0.000 Br
ATOM     26  C   UNL     1       2.407   5.473  19.516  0.00  0.00    +0.000 A 
ATOM     27  C   UNL     1       2.980   6.115  18.402  0.00  0.00    +0.000 A 
BRANCH  21  29
ATOM     28  C   UNL     1       5.909   6.728  16.956  0.00  0.00    +0.000 C 
ATOM     29  O   UNL     1       4.636   6.148  16.690  0.00  0.00    +0.000 OA
ENDBRANCH  21  29
ENDBRANCH  19  27
ENDBRANCH  16  20
ENDBRANCH   1  16
TORSDOF 7
ENDMDL
MODEL 8
REMARK VINA RESULT:      -6.8      2.699      3.700
REMARK  Name = 
REMARK  8 active torsions:
REMARK  status: ('A' for Active; 'I' for Inactive)
REMARK    1  A    between atoms: C_1  and  O_2
REMARK    2  A    between atoms: O_2  and  C_3
REMARK    3  A    between atoms: C_9  and  C_10
REMARK    4  A    between atoms: C_11  and  S_12
REMARK    5  A    between atoms: S_12  and  N_15
REMARK    6  A    between atoms: N_15  and  C_16
REMARK    7  A    between atoms: C_22  and  S_23
REMARK    8  A    between atoms: S_23  and  N_24
REMARK                            x       y       z     vdW  Elec       q    Type
REMARK                         _______ _______ _______ _____ _____    ______ ____
ROOT
ATOM      1  N   UNL     1       1.458  10.890  19.919  0.00  0.00    +0.000 N 
ATOM      2  H   UNL     1       2.148  11.618  19.663  0.00  0.00    +0.000 HD
ENDROOT
BRANCH   1   3
ATOM      3  C   UNL     1       0.270  11.439  20.527  0.00  0.00    +0.000 A 
ATOM      4  C   UNL     1      -0.317  12.543  19.891  0.00  0.00    +0.000 A 
ATOM      5  C   UNL     1      -1.474  13.132  20.407  0.00  0.00    +0.000 A 
ATOM      6  C   UNL     1      -2.037  12.636  21.579  0.00  0.00    +0.000 A 
ATOM      7  C   UNL     1      -1.439  11.564  22.236  0.00  0.00    +0.000 A 
ATOM      8  F   UNL     1      -2.006  11.141  23.372  0.00  0.00    +0.000 F 
ATOM      9  C   UNL     1      -0.290  10.964  21.723  0.00  0.00    +0.000 A 
BRANCH   9  10
ATOM     10  S   UNL     1       0.360   9.557  22.541  0.00  0.00    +0.000 S 
ATOM     11  O   UNL     1       1.688   9.253  22.063  0.00  0.00    +0.000 OA
ATOM     12  O   UNL     1       0.095   9.701  23.956  0.00  0.00    +0.000 OA
BRANCH  10  13
ATOM     13  N   UNL     1      -0.637   8.326  22.000  0.00  0.00    +0.000 NA
ATOM     14  H   UNL     1      -0.268   7.910  21.144  0.00  0.00    +0.000 HD
ATOM     15  H   UNL     1      -0.833   7.652  22.743  0.00  0.00    +0.000 HD
ENDBRANCH  10  13
ENDBRANCH   9  10
ENDBRANCH   1   3
BRANCH   1  16
ATOM     16  S   UNL     1       1.234   9.946  18.509  0.00  0.00    +0.000 S 
ATOM     17  O   UNL     1       2.139  10.518  17.533  0.00  0.00    +0.000 OA
ATOM     18  O   UNL     1      -0.184   9.877  18.226  0.00  0.00    +0.000 OA
BRANCH  16  20
ATOM     19  C   UNL     1       2.414   7.576  18.074  0.00  0.00    +0.000 C 
ATOM     20  C   UNL     1       1.779   8.360  18.957  0.00  0.00    +0.000 C 
BRANCH  19  27
ATOM     21  C   UNL     1       4.020   5.604  17.688  0.00  0.00    +0.000 A 
ATOM     22  C   UNL     1       4.429   4.313  18.056  0.00  0.00    +0.000 A 
ATOM     23  C   UNL     1       3.787   3.626  19.087  0.00  0.00    +0.000 A 
ATOM     24  C   UNL     1       2.742   4.234  19.768  0.00  0.00    +0.000 A 
ATOM     25 BR   UNL     1       1.894   3.317  21.187  0.00  0.00    +0.000 Br
ATOM     26  C   UNL     1       2.320   5.518  19.416  0.00  0.00    +0.000 A 
ATOM     27  C   UNL     1       2.938   6.218  18.363  0.00  0.00    +0.000 A 
BRANCH  21  29
ATOM     28  C   UNL     1       6.049   6.589  16.917  0.00  0.00    +0.000 C 
ATOM     29  O   UNL     1       4.661   6.340  16.723  0.00  0.00    +0.000 OA
ENDBRANCH  21  29
ENDBRANCH  19  27
ENDBRANCH  16  20
ENDBRANCH   1  16
TORSDOF 7
ENDMDL
MODEL 9
REMARK VINA RESULT:      -6.8      4.888      8.523
REMARK  Name = 
REMARK  8 active torsions:
REMARK  status: ('A' for Active; 'I' for Inactive)
REMARK    1  A    between atoms: C_1  and  O_2
REMARK    2  A    between atoms: O_2  and  C_3
REMARK    3  A    between atoms: C_9  and  C_10
REMARK    4  A    between atoms: C_11  and  S_12
REMARK    5  A    between atoms: S_12  and  N_15
REMARK    6  A    between atoms: N_15  and  C_16
REMARK    7  A    between atoms: C_22  and  S_23
REMARK    8  A    between atoms: S_23  and  N_24
REMARK                            x       y       z     vdW  Elec       q    Type
REMARK                         _______ _______ _______ _____ _____    ______ ____
ROOT
ATOM      1  N   UNL     1       2.992   6.583  19.952  0.00  0.00    +0.000 N 
ATOM      2  H   UNL     1       2.583   7.124  20.733  0.00  0.00    +0.000 HD
ENDROOT
BRANCH   1   3
ATOM      3  C   UNL     1       2.677   5.175  20.028  0.00  0.00    +0.000 A 
ATOM      4  C   UNL     1       1.427   4.833  20.562  0.00  0.00    +0.000 A 
ATOM      5  C   UNL     1       1.038   3.495  20.664  0.00  0.00    +0.000 A 
ATOM      6  C   UNL     1       1.908   2.489  20.256  0.00  0.00    +0.000 A 
ATOM      7  C   UNL     1       3.166   2.821  19.759  0.00  0.00    +0.000 A 
ATOM      8  F   UNL     1       3.975   1.815  19.403  0.00  0.00    +0.000 F 
ATOM      9  C   UNL     1       3.559   4.153  19.644  0.00  0.00    +0.000 A 
BRANCH   9  10
ATOM     10  S   UNL     1       5.114   4.511  18.920  0.00  0.00    +0.000 S 
ATOM     11  O   UNL     1       5.755   5.613  19.597  0.00  0.00    +0.000 OA
ATOM     12  O   UNL     1       5.811   3.259  18.716  0.00  0.00    +0.000 OA
BRANCH  10  13
ATOM     13  N   UNL     1       4.691   5.065  17.398  0.00  0.00    +0.000 NA
ATOM     14  H   UNL     1       3.867   4.573  17.049  0.00  0.00    +0.000 HD
ATOM     15  H   UNL     1       4.609   6.084  17.382  0.00  0.00    +0.000 HD
ENDBRANCH  10  13
ENDBRANCH   9  10
ENDBRANCH   1   3
BRANCH   1  16
ATOM     16  S   UNL     1       2.524   7.399  18.523  0.00  0.00    +0.000 S 
ATOM     17  O   UNL     1       1.772   6.419  17.767  0.00  0.00    +0.000 OA
ATOM     18  O   UNL     1       3.699   8.013  17.941  0.00  0.00    +0.000 OA
BRANCH  16  20
ATOM     19  C   UNL     1       0.708   9.348  18.203  0.00  0.00    +0.000 C 
ATOM     20  C   UNL     1       1.463   8.659  19.070  0.00  0.00    +0.000 C 
BRANCH  19  27
ATOM     21  C   UNL     1      -1.453  10.708  17.890  0.00  0.00    +0.000 A 
ATOM     22  C   UNL     1      -2.277  11.752  18.337  0.00  0.00    +0.000 A 
ATOM     23  C   UNL     1      -1.925  12.515  19.451  0.00  0.00    +0.000 A 
ATOM     24  C   UNL     1      -0.752  12.224  20.136  0.00  0.00    +0.000 A 
ATOM     25 BR   UNL     1      -0.292  13.235  21.666  0.00  0.00    +0.000 Br
ATOM     26  C   UNL     1       0.080  11.189  19.707  0.00  0.00    +0.000 A 
ATOM     27  C   UNL     1      -0.244  10.425  18.570  0.00  0.00    +0.000 A 
BRANCH  21  29
ATOM     28  C   UNL     1      -2.667  10.439  15.856  0.00  0.00    +0.000 C 
ATOM     29  O   UNL     1      -1.789   9.895  16.836  0.00  0.00    +0.000 OA
ENDBRANCH  21  29
ENDBRANCH  19  27
ENDBRANCH  16  20
ENDBRANCH   1  16
TORSDOF 7
ENDMDL
