MODEL 1
REMARK VINA RESULT:      -8.0      0.000      0.000
REMARK  Name = 
REMARK  6 active torsions:
REMARK  status: ('A' for Active; 'I' for Inactive)
REMARK    1  A    between atoms: C_1  and  C_2
REMARK    2  A    between atoms: C_2  and  C_3
REMARK    3  A    between atoms: C_2  and  C_4
REMARK    4  A    between atoms: C_4  and  O_5
REMARK    5  A    between atoms: O_5  and  C_6
REMARK    6  A    between atoms: C_10  and  C_12
REMARK                            x       y       z     vdW  Elec       q    Type
REMARK                         _______ _______ _______ _____ _____    ______ ____
ROOT
ATOM      1  C   UNL     1       2.794   2.801  17.811  0.00  0.00    +0.000 C 
ATOM      2  C   UNL     1       3.875   2.481  18.860  0.00  0.00    +0.000 C 
ATOM      3  C   UNL     1       4.679   3.722  19.273  0.00  0.00    +0.000 C 
ATOM      4  N   UNL     1       5.155   4.450  18.102  0.00  0.00    +0.000 N 
ATOM      5  C   UNL     1       6.515   4.684  17.914  0.00  0.00    +0.000 C 
ATOM      6  O   UNL     1       7.384   4.515  18.765  0.00  0.00    +0.000 OA
ATOM      7  C   UNL     1       4.113   4.819  17.147  0.00  0.00    +0.000 C 
ATOM      8  C   UNL     1       3.430   3.559  16.636  0.00  0.00    +0.000 C 
ENDROOT
BRANCH   5   9
ATOM      9  C   UNL     1       6.969   5.212  16.543  0.00  0.00    +0.000 C 
ATOM     10  O   UNL     1       7.473   6.326  16.480  0.00  0.00    +0.000 OA
ATOM     11  N   UNL     1       6.687   4.338  15.521  0.00  0.00    +0.000 N 
ATOM     12  C   UNL     1       7.066   4.614  14.240  0.00  0.00    +0.000 A 
ATOM     13  N   UNL     1       7.896   5.534  13.821  0.00  0.00    +0.000 NA
ATOM     14  C   UNL     1       7.953   5.511  12.444  0.00  0.00    +0.000 A 
ATOM     15  C   UNL     1       7.168   4.554  11.836  0.00  0.00    +0.000 A 
ATOM     16  S   UNL     1       6.370   3.620  13.039  0.00  0.00    +0.000 S 
ATOM     17  H   UNL     1       6.077   3.549  15.696  0.00  0.00    +0.000 HD
ENDBRANCH   5   9
BRANCH   1  18
ATOM     18  O   UNL     1       1.757   3.563  18.451  0.00  0.00    +0.000 OA
BRANCH  18  19
ATOM     19  C   UNL     1       0.993   2.813  19.398  0.00  0.00    +0.000 C 
BRANCH  19  21
ATOM     20  C   UNL     1       1.808   2.728  21.794  0.00  0.00    +0.000 C 
ATOM     21  C   UNL     1       0.988   3.510  20.765  0.00  0.00    +0.000 C 
ATOM     22  C   UNL     1       1.543   4.929  20.621  0.00  0.00    +0.000 C 
ENDBRANCH  19  21
ENDBRANCH  18  19
ENDBRANCH   1  18
TORSDOF 4
ENDMDL
MODEL 2
REMARK VINA RESULT:      -7.2      2.894      7.143
REMARK  Name = 
REMARK  6 active torsions:
REMARK  status: ('A' for Active; 'I' for Inactive)
REMARK    1  A    between atoms: C_1  and  C_2
REMARK    2  A    between atoms: C_2  and  C_3
REMARK    3  A    between atoms: C_2  and  C_4
REMARK    4  A    between atoms: C_4  and  O_5
REMARK    5  A    between atoms: O_5  and  C_6
REMARK    6  A    between atoms: C_10  and  C_12
REMARK                            x       y       z     vdW  Elec       q    Type
REMARK                         _______ _______ _______ _____ _____    ______ ____
ROOT
ATOM      1  C   UNL     1       6.348   4.956  14.302  0.00  0.00    +0.000 C 
ATOM      2  C   UNL     1       7.487   5.421  15.228  0.00  0.00    +0.000 C 
ATOM      3  C   UNL     1       7.590   4.574  16.505  0.00  0.00    +0.000 C 
ATOM      4  N   UNL     1       6.289   4.442  17.149  0.00  0.00    +0.000 N 
ATOM      5  C   UNL     1       6.100   4.860  18.465  0.00  0.00    +0.000 C 
ATOM      6  O   UNL     1       7.000   5.154  19.247  0.00  0.00    +0.000 OA
ATOM      7  C   UNL     1       5.229   3.926  16.287  0.00  0.00    +0.000 C 
ATOM      8  C   UNL     1       5.042   4.866  15.104  0.00  0.00    +0.000 C 
ENDROOT
BRANCH   5   9
ATOM      9  C   UNL     1       4.658   4.943  18.991  0.00  0.00    +0.000 C 
ATOM     10  O   UNL     1       4.026   5.976  18.811  0.00  0.00    +0.000 OA
ATOM     11  N   UNL     1       4.276   3.810  19.667  0.00  0.00    +0.000 N 
ATOM     12  C   UNL     1       3.010   3.681  20.159  0.00  0.00    +0.000 A 
ATOM     13  N   UNL     1       1.960   4.416  19.896  0.00  0.00    +0.000 NA
ATOM     14  C   UNL     1       0.892   3.980  20.650  0.00  0.00    +0.000 A 
ATOM     15  C   UNL     1       1.149   2.903  21.471  0.00  0.00    +0.000 A 
ATOM     16  S   UNL     1       2.775   2.389  21.250  0.00  0.00    +0.000 S 
ATOM     17  H   UNL     1       4.976   3.124  19.921  0.00  0.00    +0.000 HD
ENDBRANCH   5   9
BRANCH   1  18
ATOM     18  O   UNL     1       6.722   3.692  13.729  0.00  0.00    +0.000 OA
BRANCH  18  19
ATOM     19  C   UNL     1       6.513   3.616  12.317  0.00  0.00    +0.000 C 
BRANCH  19  21
ATOM     20  C   UNL     1       4.259   3.199  11.242  0.00  0.00    +0.000 C 
ATOM     21  C   UNL     1       5.441   2.570  11.983  0.00  0.00    +0.000 C 
ATOM     22  C   UNL     1       6.057   1.454  11.137  0.00  0.00    +0.000 C 
ENDBRANCH  19  21
ENDBRANCH  18  19
ENDBRANCH   1  18
TORSDOF 4
ENDMDL
MODEL 3
REMARK VINA RESULT:      -6.7      0.786      1.284
REMARK  Name = 
REMARK  6 active torsions:
REMARK  status: ('A' for Active; 'I' for Inactive)
REMARK    1  A    between atoms: C_1  and  C_2
REMARK    2  A    between atoms: C_2  and  C_3
REMARK    3  A    between atoms: C_2  and  C_4
REMARK    4  A    between atoms: C_4  and  O_5
REMARK    5  A    between atoms: O_5  and  C_6
REMARK    6  A    between atoms: C_10  and  C_12
REMARK                            x       y       z     vdW  Elec       q    Type
REMARK                         _______ _______ _______ _____ _____    ______ ____
ROOT
ATOM      1  C   UNL     1       3.058   3.966  18.616  0.00  0.00    +0.000 C 
ATOM      2  C   UNL     1       4.224   3.620  19.562  0.00  0.00    +0.000 C 
ATOM      3  C   UNL     1       5.217   4.780  19.721  0.00  0.00    +0.000 C 
ATOM      4  N   UNL     1       5.616   5.307  18.421  0.00  0.00    +0.000 N 
ATOM      5  C   UNL     1       6.958   5.336  18.046  0.00  0.00    +0.000 C 
ATOM      6  O   UNL     1       7.905   5.146  18.803  0.00  0.00    +0.000 OA
ATOM      7  C   UNL     1       4.509   5.707  17.557  0.00  0.00    +0.000 C 
ATOM      8  C   UNL     1       3.619   4.501  17.290  0.00  0.00    +0.000 C 
ENDROOT
BRANCH   5   9
ATOM      9  C   UNL     1       7.285   5.648  16.576  0.00  0.00    +0.000 C 
ATOM     10  O   UNL     1       7.817   6.717  16.307  0.00  0.00    +0.000 OA
ATOM     11  N   UNL     1       6.870   4.656  15.721  0.00  0.00    +0.000 N 
ATOM     12  C   UNL     1       7.123   4.734  14.383  0.00  0.00    +0.000 A 
ATOM     13  N   UNL     1       7.936   5.548  13.759  0.00  0.00    +0.000 NA
ATOM     14  C   UNL     1       7.850   5.332  12.400  0.00  0.00    +0.000 A 
ATOM     15  C   UNL     1       6.973   4.340  12.013  0.00  0.00    +0.000 A 
ATOM     16  S   UNL     1       6.272   3.619  13.409  0.00  0.00    +0.000 S 
ATOM     17  H   UNL     1       6.254   3.930  16.065  0.00  0.00    +0.000 HD
ENDBRANCH   5   9
BRANCH   1  18
ATOM     18  O   UNL     1       2.214   4.925  19.275  0.00  0.00    +0.000 OA
BRANCH  18  19
ATOM     19  C   UNL     1       2.019   4.659  20.666  0.00  0.00    +0.000 C 
BRANCH  19  21
ATOM     20  C   UNL     1       0.512   2.973  19.528  0.00  0.00    +0.000 C 
ATOM     21  C   UNL     1       0.967   3.561  20.866  0.00  0.00    +0.000 C 
ATOM     22  C   UNL     1       1.539   2.456  21.757  0.00  0.00    +0.000 C 
ENDBRANCH  19  21
ENDBRANCH  18  19
ENDBRANCH   1  18
TORSDOF 4
ENDMDL
MODEL 4
REMARK VINA RESULT:      -6.5      3.726      4.667
REMARK  Name = 
REMARK  6 active torsions:
REMARK  status: ('A' for Active; 'I' for Inactive)
REMARK    1  A    between atoms: C_1  and  C_2
REMARK    2  A    between atoms: C_2  and  C_3
REMARK    3  A    between atoms: C_2  and  C_4
REMARK    4  A    between atoms: C_4  and  O_5
REMARK    5  A    between atoms: O_5  and  C_6
REMARK    6  A    between atoms: C_10  and  C_12
REMARK                            x       y       z     vdW  Elec       q    Type
REMARK                         _______ _______ _______ _____ _____    ______ ____
ROOT
ATOM      1  C   UNL     1       3.816   4.237  18.571  0.00  0.00    +0.000 C 
ATOM      2  C   UNL     1       4.075   4.398  17.061  0.00  0.00    +0.000 C 
ATOM      3  C   UNL     1       5.562   4.265  16.702  0.00  0.00    +0.000 C 
ATOM      4  N   UNL     1       6.383   5.111  17.561  0.00  0.00    +0.000 N 
ATOM      5  C   UNL     1       7.217   6.084  17.014  0.00  0.00    +0.000 C 
ATOM      6  O   UNL     1       7.504   6.179  15.824  0.00  0.00    +0.000 OA
ATOM      7  C   UNL     1       6.190   4.900  18.993  0.00  0.00    +0.000 C 
ATOM      8  C   UNL     1       4.738   5.185  19.352  0.00  0.00    +0.000 C 
ENDROOT
BRANCH   5   9
ATOM      9  C   UNL     1       7.844   7.111  17.971  0.00  0.00    +0.000 C 
ATOM     10  O   UNL     1       8.231   6.731  19.068  0.00  0.00    +0.000 OA
ATOM     11  N   UNL     1       7.839   8.384  17.456  0.00  0.00    +0.000 N 
ATOM     12  C   UNL     1       8.404   9.419  18.142  0.00  0.00    +0.000 A 
ATOM     13  N   UNL     1       9.192   9.365  19.185  0.00  0.00    +0.000 NA
ATOM     14  C   UNL     1       9.491  10.644  19.604  0.00  0.00    +0.000 A 
ATOM     15  C   UNL     1       8.929  11.657  18.856  0.00  0.00    +0.000 A 
ATOM     16  S   UNL     1       8.036  10.979  17.552  0.00  0.00    +0.000 S 
ATOM     17  H   UNL     1       7.294   8.582  16.626  0.00  0.00    +0.000 HD
ENDBRANCH   5   9
BRANCH   1  18
ATOM     18  O   UNL     1       4.031   2.860  18.920  0.00  0.00    +0.000 OA
BRANCH  18  19
ATOM     19  C   UNL     1       2.897   2.236  19.527  0.00  0.00    +0.000 C 
BRANCH  19  21
ATOM     20  C   UNL     1       0.556   3.168  19.783  0.00  0.00    +0.000 C 
ATOM     21  C   UNL     1       2.016   3.278  20.229  0.00  0.00    +0.000 C 
ATOM     22  C   UNL     1       2.116   3.099  21.745  0.00  0.00    +0.000 C 
ENDBRANCH  19  21
ENDBRANCH  18  19
ENDBRANCH   1  18
TORSDOF 4
ENDMDL
MODEL 5
REMARK VINA RESULT:      -6.5      2.312      3.008
REMARK  Name = 
REMARK  6 active torsions:
REMARK  status: ('A' for Active; 'I' for Inactive)
REMARK    1  A    between atoms: C_1  and  C_2
REMARK    2  A    between atoms: C_2  and  C_3
REMARK    3  A    between atoms: C_2  and  C_4
REMARK    4  A    between atoms: C_4  and  O_5
REMARK    5  A    between atoms: O_5  and  C_6
REMARK    6  A    between atoms: C_10  and  C_12
REMARK                            x       y       z     vdW  Elec       q    Type
REMARK                         _______ _______ _______ _____ _____    ______ ____
ROOT
ATOM      1  C   UNL     1       2.427   6.580  18.551  0.00  0.00    +0.000 C 
ATOM      2  C   UNL     1       2.987   5.344  19.279  0.00  0.00    +0.000 C 
ATOM      3  C   UNL     1       4.480   5.480  19.606  0.00  0.00    +0.000 C 
ATOM      4  N   UNL     1       5.237   5.896  18.431  0.00  0.00    +0.000 N 
ATOM      5  C   UNL     1       6.288   5.119  17.948  0.00  0.00    +0.000 C 
ATOM      6  O   UNL     1       6.804   4.182  18.550  0.00  0.00    +0.000 OA
ATOM      7  C   UNL     1       4.748   7.114  17.789  0.00  0.00    +0.000 C 
ATOM      8  C   UNL     1       3.310   6.901  17.336  0.00  0.00    +0.000 C 
ENDROOT
BRANCH   5   9
ATOM      9  C   UNL     1       6.862   5.468  16.566  0.00  0.00    +0.000 C 
ATOM     10  O   UNL     1       7.533   6.486  16.448  0.00  0.00    +0.000 OA
ATOM     11  N   UNL     1       6.484   4.573  15.596  0.00  0.00    +0.000 N 
ATOM     12  C   UNL     1       6.943   4.691  14.316  0.00  0.00    +0.000 A 
ATOM     13  N   UNL     1       7.917   5.442  13.872  0.00  0.00    +0.000 NA
ATOM     14  C   UNL     1       8.016   5.307  12.503  0.00  0.00    +0.000 A 
ATOM     15  C   UNL     1       7.114   4.437  11.929  0.00  0.00    +0.000 A 
ATOM     16  S   UNL     1       6.142   3.726  13.157  0.00  0.00    +0.000 S 
ATOM     17  H   UNL     1       5.754   3.901  15.797  0.00  0.00    +0.000 HD
ENDBRANCH   5   9
BRANCH   1  18
ATOM     18  O   UNL     1       2.375   7.668  19.488  0.00  0.00    +0.000 OA
BRANCH  18  19
ATOM     19  C   UNL     1       1.484   7.443  20.583  0.00  0.00    +0.000 C 
BRANCH  19  21
ATOM     20  C   UNL     1       0.708   9.774  19.971  0.00  0.00    +0.000 C 
ATOM     21  C   UNL     1       0.922   8.771  21.107  0.00  0.00    +0.000 C 
ATOM     22  C   UNL     1      -0.398   8.518  21.838  0.00  0.00    +0.000 C 
ENDBRANCH  19  21
ENDBRANCH  18  19
ENDBRANCH   1  18
TORSDOF 4
ENDMDL
MODEL 6
REMARK VINA RESULT:      -6.3      2.711      7.056
REMARK  Name = 
REMARK  6 active torsions:
REMARK  status: ('A' for Active; 'I' for Inactive)
REMARK    1  A    between atoms: C_1  and  C_2
REMARK    2  A    between atoms: C_2  and  C_3
REMARK    3  A    between atoms: C_2  and  C_4
REMARK    4  A    between atoms: C_4  and  O_5
REMARK    5  A    between atoms: O_5  and  C_6
REMARK    6  A    between atoms: C_10  and  C_12
REMARK                            x       y       z     vdW  Elec       q    Type
REMARK                         _______ _______ _______ _____ _____    ______ ____
ROOT
ATOM      1  C   UNL     1       5.628   4.628  14.346  0.00  0.00    +0.000 C 
ATOM      2  C   UNL     1       6.291   5.829  15.048  0.00  0.00    +0.000 C 
ATOM      3  C   UNL     1       7.127   5.410  16.265  0.00  0.00    +0.000 C 
ATOM      4  N   UNL     1       6.366   4.529  17.143  0.00  0.00    +0.000 N 
ATOM      5  C   UNL     1       6.153   4.865  18.478  0.00  0.00    +0.000 C 
ATOM      6  O   UNL     1       6.733   5.765  19.080  0.00  0.00    +0.000 OA
ATOM      7  C   UNL     1       5.804   3.350  16.489  0.00  0.00    +0.000 C 
ATOM      8  C   UNL     1       4.859   3.793  15.381  0.00  0.00    +0.000 C 
ENDROOT
BRANCH   5   9
ATOM      9  C   UNL     1       5.127   4.038  19.271  0.00  0.00    +0.000 C 
ATOM     10  O   UNL     1       5.527   3.104  19.953  0.00  0.00    +0.000 OA
ATOM     11  N   UNL     1       3.835   4.452  19.055  0.00  0.00    +0.000 N 
ATOM     12  C   UNL     1       2.794   3.870  19.716  0.00  0.00    +0.000 A 
ATOM     13  N   UNL     1       2.836   3.071  20.751  0.00  0.00    +0.000 NA
ATOM     14  C   UNL     1       1.559   2.663  21.072  0.00  0.00    +0.000 A 
ATOM     15  C   UNL     1       0.558   3.174  20.274  0.00  0.00    +0.000 A 
ATOM     16  S   UNL     1       1.241   4.246  19.113  0.00  0.00    +0.000 S 
ATOM     17  H   UNL     1       3.640   5.099  18.301  0.00  0.00    +0.000 HD
ENDBRANCH   5   9
BRANCH   1  18
ATOM     18  O   UNL     1       6.655   3.868  13.689  0.00  0.00    +0.000 OA
BRANCH  18  19
ATOM     19  C   UNL     1       6.463   3.740  12.279  0.00  0.00    +0.000 C 
BRANCH  19  21
ATOM     20  C   UNL     1       4.239   3.126  11.233  0.00  0.00    +0.000 C 
ATOM     21  C   UNL     1       5.477   2.605  11.967  0.00  0.00    +0.000 C 
ATOM     22  C   UNL     1       6.175   1.535  11.124  0.00  0.00    +0.000 C 
ENDBRANCH  19  21
ENDBRANCH  18  19
ENDBRANCH   1  18
TORSDOF 4
ENDMDL
MODEL 7
REMARK VINA RESULT:      -6.2      4.015      4.642
REMARK  Name = 
REMARK  6 active torsions:
REMARK  status: ('A' for Active; 'I' for Inactive)
REMARK    1  A    between atoms: C_1  and  C_2
REMARK    2  A    between atoms: C_2  and  C_3
REMARK    3  A    between atoms: C_2  and  C_4
REMARK    4  A    between atoms: C_4  and  O_5
REMARK    5  A    between atoms: O_5  and  C_6
REMARK    6  A    between atoms: C_10  and  C_12
REMARK                            x       y       z     vdW  Elec       q    Type
REMARK                         _______ _______ _______ _____ _____    ______ ____
ROOT
ATOM      1  C   UNL     1       3.812   4.871  17.106  0.00  0.00    +0.000 C 
ATOM      2  C   UNL     1       4.878   3.909  17.663  0.00  0.00    +0.000 C 
ATOM      3  C   UNL     1       5.626   4.494  18.869  0.00  0.00    +0.000 C 
ATOM      4  N   UNL     1       6.104   5.842  18.582  0.00  0.00    +0.000 N 
ATOM      5  C   UNL     1       7.459   6.152  18.675  0.00  0.00    +0.000 C 
ATOM      6  O   UNL     1       8.312   5.435  19.191  0.00  0.00    +0.000 OA
ATOM      7  C   UNL     1       5.074   6.773  18.128  0.00  0.00    +0.000 C 
ATOM      8  C   UNL     1       4.450   6.243  16.844  0.00  0.00    +0.000 C 
ENDROOT
BRANCH   5   9
ATOM      9  C   UNL     1       7.928   7.500  18.104  0.00  0.00    +0.000 C 
ATOM     10  O   UNL     1       7.880   7.674  16.893  0.00  0.00    +0.000 OA
ATOM     11  N   UNL     1       8.404   8.347  19.075  0.00  0.00    +0.000 N 
ATOM     12  C   UNL     1       8.814   9.610  18.763  0.00  0.00    +0.000 A 
ATOM     13  N   UNL     1       8.620  10.273  17.652  0.00  0.00    +0.000 NA
ATOM     14  C   UNL     1       9.250  11.497  17.728  0.00  0.00    +0.000 A 
ATOM     15  C   UNL     1       9.907  11.749  18.914  0.00  0.00    +0.000 A 
ATOM     16  S   UNL     1       9.682  10.424  19.987  0.00  0.00    +0.000 S 
ATOM     17  H   UNL     1       8.580   7.988  20.005  0.00  0.00    +0.000 HD
ENDBRANCH   5   9
BRANCH   1  18
ATOM     18  O   UNL     1       2.734   4.944  18.052  0.00  0.00    +0.000 OA
BRANCH  18  19
ATOM     19  C   UNL     1       2.216   3.668  18.435  0.00  0.00    +0.000 C 
BRANCH  19  21
ATOM     20  C   UNL     1       1.562   2.533  20.602  0.00  0.00    +0.000 C 
ATOM     21  C   UNL     1       1.400   3.780  19.730  0.00  0.00    +0.000 C 
ATOM     22  C   UNL     1       1.836   5.024  20.507  0.00  0.00    +0.000 C 
ENDBRANCH  19  21
ENDBRANCH  18  19
ENDBRANCH   1  18
TORSDOF 4
ENDMDL
MODEL 8
REMARK VINA RESULT:      -6.1      1.745      2.362
REMARK  Name = 
REMARK  6 active torsions:
REMARK  status: ('A' for Active; 'I' for Inactive)
REMARK    1  A    between atoms: C_1  and  C_2
REMARK    2  A    between atoms: C_2  and  C_3
REMARK    3  A    between atoms: C_2  and  C_4
REMARK    4  A    between atoms: C_4  and  O_5
REMARK    5  A    between atoms: O_5  and  C_6
REMARK    6  A    between atoms: C_10  and  C_12
REMARK                            x       y       z     vdW  Elec       q    Type
REMARK                         _______ _______ _______ _____ _____    ______ ____
ROOT
ATOM      1  C   UNL     1       2.893   4.433  18.667  0.00  0.00    +0.000 C 
ATOM      2  C   UNL     1       4.001   3.704  19.450  0.00  0.00    +0.000 C 
ATOM      3  C   UNL     1       5.245   4.579  19.662  0.00  0.00    +0.000 C 
ATOM      4  N   UNL     1       5.676   5.186  18.408  0.00  0.00    +0.000 N 
ATOM      5  C   UNL     1       6.962   4.969  17.917  0.00  0.00    +0.000 C 
ATOM      6  O   UNL     1       7.884   4.466  18.554  0.00  0.00    +0.000 OA
ATOM      7  C   UNL     1       4.642   5.941  17.706  0.00  0.00    +0.000 C 
ATOM      8  C   UNL     1       3.481   5.014  17.372  0.00  0.00    +0.000 C 
ENDROOT
BRANCH   5   9
ATOM      9  C   UNL     1       7.264   5.408  16.475  0.00  0.00    +0.000 C 
ATOM     10  O   UNL     1       7.730   6.524  16.286  0.00  0.00    +0.000 OA
ATOM     11  N   UNL     1       6.904   4.459  15.549  0.00  0.00    +0.000 N 
ATOM     12  C   UNL     1       7.146   4.651  14.220  0.00  0.00    +0.000 A 
ATOM     13  N   UNL     1       7.906   5.555  13.657  0.00  0.00    +0.000 NA
ATOM     14  C   UNL     1       7.826   5.436  12.286  0.00  0.00    +0.000 A 
ATOM     15  C   UNL     1       7.009   4.425  11.828  0.00  0.00    +0.000 A 
ATOM     16  S   UNL     1       6.358   3.563  13.166  0.00  0.00    +0.000 S 
ATOM     17  H   UNL     1       6.334   3.674  15.838  0.00  0.00    +0.000 HD
ENDBRANCH   5   9
BRANCH   1  18
ATOM     18  O   UNL     1       2.337   5.450  19.515  0.00  0.00    +0.000 OA
BRANCH  18  19
ATOM     19  C   UNL     1       1.650   6.481  18.803  0.00  0.00    +0.000 C 
BRANCH  19  21
ATOM     20  C   UNL     1       1.848   8.932  18.196  0.00  0.00    +0.000 C 
ATOM     21  C   UNL     1       2.129   7.866  19.259  0.00  0.00    +0.000 C 
ATOM     22  C   UNL     1       1.442   8.242  20.573  0.00  0.00    +0.000 C 
ENDBRANCH  19  21
ENDBRANCH  18  19
ENDBRANCH   1  18
TORSDOF 4
ENDMDL
MODEL 9
REMARK VINA RESULT:      -6.0      2.754      7.039
REMARK  Name = 
REMARK  6 active torsions:
REMARK  status: ('A' for Active; 'I' for Inactive)
REMARK    1  A    between atoms: C_1  and  C_2
REMARK    2  A    between atoms: C_2  and  C_3
REMARK    3  A    between atoms: C_2  and  C_4
REMARK    4  A    between atoms: C_4  and  O_5
REMARK    5  A    between atoms: O_5  and  C_6
REMARK    6  A    between atoms: C_10  and  C_12
REMARK                            x       y       z     vdW  Elec       q    Type
REMARK                         _______ _______ _______ _____ _____    ______ ____
ROOT
ATOM      1  C   UNL     1       5.645   5.421  14.904  0.00  0.00    +0.000 C 
ATOM      2  C   UNL     1       6.417   6.387  15.822  0.00  0.00    +0.000 C 
ATOM      3  C   UNL     1       7.215   5.653  16.909  0.00  0.00    +0.000 C 
ATOM      4  N   UNL     1       6.379   4.680  17.603  0.00  0.00    +0.000 N 
ATOM      5  C   UNL     1       6.201   4.750  18.983  0.00  0.00    +0.000 C 
ATOM      6  O   UNL     1       6.862   5.451  19.744  0.00  0.00    +0.000 OA
ATOM      7  C   UNL     1       5.710   3.717  16.733  0.00  0.00    +0.000 C 
ATOM      8  C   UNL     1       4.806   4.462  15.760  0.00  0.00    +0.000 C 
ENDROOT
BRANCH   5   9
ATOM      9  C   UNL     1       5.107   3.871  19.611  0.00  0.00    +0.000 C 
ATOM     10  O   UNL     1       5.417   2.772  20.051  0.00  0.00    +0.000 OA
ATOM     11  N   UNL     1       3.863   4.449  19.543  0.00  0.00    +0.000 N 
ATOM     12  C   UNL     1       2.776   3.839  20.098  0.00  0.00    +0.000 A 
ATOM     13  N   UNL     1       2.751   2.826  20.926  0.00  0.00    +0.000 NA
ATOM     14  C   UNL     1       1.443   2.484  21.197  0.00  0.00    +0.000 A 
ATOM     15  C   UNL     1       0.489   3.260  20.573  0.00  0.00    +0.000 A 
ATOM     16  S   UNL     1       1.262   4.492  19.655  0.00  0.00    +0.000 S 
ATOM     17  H   UNL     1       3.725   5.266  18.961  0.00  0.00    +0.000 HD
ENDBRANCH   5   9
BRANCH   1  18
ATOM     18  O   UNL     1       6.597   4.725  14.082  0.00  0.00    +0.000 OA
BRANCH  18  19
ATOM     19  C   UNL     1       6.126   3.466  13.598  0.00  0.00    +0.000 C 
BRANCH  19  21
ATOM     20  C   UNL     1       6.862   2.373  11.435  0.00  0.00    +0.000 C 
ATOM     21  C   UNL     1       6.015   3.481  12.067  0.00  0.00    +0.000 C 
ATOM     22  C   UNL     1       4.551   3.320  11.656  0.00  0.00    +0.000 C 
ENDBRANCH  19  21
ENDBRANCH  18  19
ENDBRANCH   1  18
TORSDOF 4
ENDMDL
