MODEL 1
REMARK VINA RESULT:      -8.7      0.000      0.000
REMARK  Name = 
REMARK  4 active torsions:
REMARK  status: ('A' for Active; 'I' for Inactive)
REMARK    1  A    between atoms: C_2  and  C_7
REMARK    2  A    between atoms: N_3  and  C_4
REMARK    3  A    between atoms: N_10  and  C_11
REMARK    4  A    between atoms: C_16  and  C_17
REMARK                            x       y       z     vdW  Elec       q    Type
REMARK                         _______ _______ _______ _____ _____    ______ ____
ROOT
ATOM      1  C   UNL     1       6.207   6.154  16.609  0.00  0.00    +0.000 C 
ATOM      2  C   UNL     1       6.523   5.986  18.102  0.00  0.00    +0.000 C 
ATOM      3  C   UNL     1       5.832   4.766  18.704  0.00  0.00    +0.000 C 
ATOM      4  N   UNL     1       4.392   4.910  18.464  0.00  0.00    +0.000 N 
ATOM      5  C   UNL     1       4.046   4.814  17.037  0.00  0.00    +0.000 C 
ATOM      6  C   UNL     1       4.713   5.986  16.294  0.00  0.00    +0.000 C 
ENDROOT
BRANCH   4   7
ATOM      7  C   UNL     1       3.489   4.489  19.452  0.00  0.00    +0.000 A 
ATOM      8  C   UNL     1       3.531   3.167  19.944  0.00  0.00    +0.000 A 
ATOM      9  N   UNL     1       2.818   2.657  20.979  0.00  0.00    +0.000 NA
ATOM     10  C   UNL     1       1.983   3.506  21.590  0.00  0.00    +0.000 A 
ATOM     11  C   UNL     1       1.808   4.820  21.186  0.00  0.00    +0.000 A 
ATOM     12  C   UNL     1       2.539   5.341  20.092  0.00  0.00    +0.000 A 
BRANCH  12  13
ATOM     13  C   UNL     1       2.253   6.753  19.705  0.00  0.00    +0.000 A 
ATOM     14  C   UNL     1       2.509   7.239  18.417  0.00  0.00    +0.000 A 
ATOM     15  C   UNL     1       2.019   8.479  17.992  0.00  0.00    +0.000 A 
ATOM     16  C   UNL     1       1.368   9.317  18.888  0.00  0.00    +0.000 A 
ATOM     17  C   UNL     1       1.234   8.925  20.214  0.00  0.00    +0.000 A 
ATOM     18  C   UNL     1       1.655   7.651  20.612  0.00  0.00    +0.000 A 
ENDBRANCH  12  13
ENDBRANCH   4   7
BRANCH   1  20
ATOM     19  O   UNL     1       7.916   4.491  16.209  0.00  0.00    +0.000 OA
ATOM     20  C   UNL     1       7.056   5.231  15.748  0.00  0.00    +0.000 C 
ATOM     21  N   UNL     1       6.743   5.303  14.407  0.00  0.00    +0.000 N 
ATOM     22  H   UNL     1       5.968   5.886  14.120  0.00  0.00    +0.000 HD
BRANCH  21  23
ATOM     23  C   UNL     1       7.324   4.434  13.442  0.00  0.00    +0.000 C 
ATOM     24  C   UNL     1       6.447   3.609  12.542  0.00  0.00    +0.000 C 
ATOM     25  C   UNL     1       7.240   4.754  11.979  0.00  0.00    +0.000 C 
ENDBRANCH  21  23
ENDBRANCH   1  20
TORSDOF 4
ENDMDL
MODEL 2
REMARK VINA RESULT:      -8.5      2.659      3.989
REMARK  Name = 
REMARK  4 active torsions:
REMARK  status: ('A' for Active; 'I' for Inactive)
REMARK    1  A    between atoms: C_2  and  C_7
REMARK    2  A    between atoms: N_3  and  C_4
REMARK    3  A    between atoms: N_10  and  C_11
REMARK    4  A    between atoms: C_16  and  C_17
REMARK                            x       y       z     vdW  Elec       q    Type
REMARK                         _______ _______ _______ _____ _____    ______ ____
ROOT
ATOM      1  C   UNL     1       7.730   6.238  17.858  0.00  0.00    +0.000 C 
ATOM      2  C   UNL     1       7.008   5.628  16.648  0.00  0.00    +0.000 C 
ATOM      3  C   UNL     1       5.491   5.707  16.783  0.00  0.00    +0.000 C 
ATOM      4  N   UNL     1       5.122   5.036  18.034  0.00  0.00    +0.000 N 
ATOM      5  C   UNL     1       5.596   5.760  19.224  0.00  0.00    +0.000 C 
ATOM      6  C   UNL     1       7.134   5.783  19.199  0.00  0.00    +0.000 C 
ENDROOT
BRANCH   4   7
ATOM      7  C   UNL     1       3.945   4.273  18.078  0.00  0.00    +0.000 A 
ATOM      8  C   UNL     1       3.966   2.903  17.741  0.00  0.00    +0.000 A 
ATOM      9  N   UNL     1       2.946   2.016  17.861  0.00  0.00    +0.000 NA
ATOM     10  C   UNL     1       1.799   2.504  18.348  0.00  0.00    +0.000 A 
ATOM     11  C   UNL     1       1.623   3.838  18.680  0.00  0.00    +0.000 A 
ATOM     12  C   UNL     1       2.683   4.763  18.533  0.00  0.00    +0.000 A 
BRANCH  12  13
ATOM     13  C   UNL     1       2.386   6.184  18.876  0.00  0.00    +0.000 A 
ATOM     14  C   UNL     1       2.373   7.197  17.910  0.00  0.00    +0.000 A 
ATOM     15  C   UNL     1       1.861   8.469  18.191  0.00  0.00    +0.000 A 
ATOM     16  C   UNL     1       1.468   8.794  19.482  0.00  0.00    +0.000 A 
ATOM     17  C   UNL     1       1.613   7.856  20.496  0.00  0.00    +0.000 A 
ATOM     18  C   UNL     1       2.049   6.562  20.192  0.00  0.00    +0.000 A 
ENDBRANCH  12  13
ENDBRANCH   4   7
BRANCH   1  20
ATOM     19  O   UNL     1       7.179   8.400  16.927  0.00  0.00    +0.000 OA
ATOM     20  C   UNL     1       7.787   7.756  17.772  0.00  0.00    +0.000 C 
ATOM     21  N   UNL     1       8.576   8.324  18.750  0.00  0.00    +0.000 N 
ATOM     22  H   UNL     1       8.983   7.724  19.455  0.00  0.00    +0.000 HD
BRANCH  21  23
ATOM     23  C   UNL     1       8.666   9.732  18.933  0.00  0.00    +0.000 C 
ATOM     24  C   UNL     1       9.843  10.329  19.651  0.00  0.00    +0.000 C 
ATOM     25  C   UNL     1       9.678  10.536  18.172  0.00  0.00    +0.000 C 
ENDBRANCH  21  23
ENDBRANCH   1  20
TORSDOF 4
ENDMDL
MODEL 3
REMARK VINA RESULT:      -8.4      2.594      4.011
REMARK  Name = 
REMARK  4 active torsions:
REMARK  status: ('A' for Active; 'I' for Inactive)
REMARK    1  A    between atoms: C_2  and  C_7
REMARK    2  A    between atoms: N_3  and  C_4
REMARK    3  A    between atoms: N_10  and  C_11
REMARK    4  A    between atoms: C_16  and  C_17
REMARK                            x       y       z     vdW  Elec       q    Type
REMARK                         _______ _______ _______ _____ _____    ______ ____
ROOT
ATOM      1  C   UNL     1       7.659   6.126  17.804  0.00  0.00    +0.000 C 
ATOM      2  C   UNL     1       6.946   5.379  16.669  0.00  0.00    +0.000 C 
ATOM      3  C   UNL     1       5.432   5.352  16.857  0.00  0.00    +0.000 C 
ATOM      4  N   UNL     1       5.160   4.746  18.165  0.00  0.00    +0.000 N 
ATOM      5  C   UNL     1       5.616   5.588  19.282  0.00  0.00    +0.000 C 
ATOM      6  C   UNL     1       7.147   5.725  19.195  0.00  0.00    +0.000 C 
ENDROOT
BRANCH   4   7
ATOM      7  C   UNL     1       4.049   3.902  18.308  0.00  0.00    +0.000 A 
ATOM      8  C   UNL     1       4.180   2.508  18.131  0.00  0.00    +0.000 A 
ATOM      9  N   UNL     1       3.235   1.562  18.362  0.00  0.00    +0.000 NA
ATOM     10  C   UNL     1       2.052   2.009  18.800  0.00  0.00    +0.000 A 
ATOM     11  C   UNL     1       1.769   3.354  18.978  0.00  0.00    +0.000 A 
ATOM     12  C   UNL     1       2.751   4.339  18.716  0.00  0.00    +0.000 A 
BRANCH  12  13
ATOM     13  C   UNL     1       2.341   5.762  18.895  0.00  0.00    +0.000 A 
ATOM     14  C   UNL     1       1.990   6.284  20.146  0.00  0.00    +0.000 A 
ATOM     15  C   UNL     1       1.844   7.661  20.349  0.00  0.00    +0.000 A 
ATOM     16  C   UNL     1       1.924   8.538  19.274  0.00  0.00    +0.000 A 
ATOM     17  C   UNL     1       2.120   8.032  17.995  0.00  0.00    +0.000 A 
ATOM     18  C   UNL     1       2.344   6.664  17.812  0.00  0.00    +0.000 A 
ENDBRANCH  12  13
ENDBRANCH   4   7
BRANCH   1  20
ATOM     19  O   UNL     1       6.808   8.176  16.845  0.00  0.00    +0.000 OA
ATOM     20  C   UNL     1       7.594   7.635  17.612  0.00  0.00    +0.000 C 
ATOM     21  N   UNL     1       8.495   8.320  18.400  0.00  0.00    +0.000 N 
ATOM     22  H   UNL     1       9.056   7.799  19.060  0.00  0.00    +0.000 HD
BRANCH  21  23
ATOM     23  C   UNL     1       8.516   9.740  18.472  0.00  0.00    +0.000 C 
ATOM     24  C   UNL     1       9.258  10.431  19.582  0.00  0.00    +0.000 C 
ATOM     25  C   UNL     1       9.773  10.500  18.174  0.00  0.00    +0.000 C 
ENDBRANCH  21  23
ENDBRANCH   1  20
TORSDOF 4
ENDMDL
MODEL 4
REMARK VINA RESULT:      -8.4      0.231      1.003
REMARK  Name = 
REMARK  4 active torsions:
REMARK  status: ('A' for Active; 'I' for Inactive)
REMARK    1  A    between atoms: C_2  and  C_7
REMARK    2  A    between atoms: N_3  and  C_4
REMARK    3  A    between atoms: N_10  and  C_11
REMARK    4  A    between atoms: C_16  and  C_17
REMARK                            x       y       z     vdW  Elec       q    Type
REMARK                         _______ _______ _______ _____ _____    ______ ____
ROOT
ATOM      1  C   UNL     1       6.127   6.071  16.611  0.00  0.00    +0.000 C 
ATOM      2  C   UNL     1       6.471   5.937  18.102  0.00  0.00    +0.000 C 
ATOM      3  C   UNL     1       5.857   4.687  18.725  0.00  0.00    +0.000 C 
ATOM      4  N   UNL     1       4.408   4.748  18.502  0.00  0.00    +0.000 N 
ATOM      5  C   UNL     1       4.050   4.617  17.081  0.00  0.00    +0.000 C 
ATOM      6  C   UNL     1       4.641   5.816  16.318  0.00  0.00    +0.000 C 
ENDROOT
BRANCH   4   7
ATOM      7  C   UNL     1       3.543   4.287  19.506  0.00  0.00    +0.000 A 
ATOM      8  C   UNL     1       3.693   2.991  20.042  0.00  0.00    +0.000 A 
ATOM      9  N   UNL     1       3.025   2.459  21.096  0.00  0.00    +0.000 NA
ATOM     10  C   UNL     1       2.123   3.257  21.681  0.00  0.00    +0.000 A 
ATOM     11  C   UNL     1       1.841   4.538  21.234  0.00  0.00    +0.000 A 
ATOM     12  C   UNL     1       2.526   5.080  20.121  0.00  0.00    +0.000 A 
BRANCH  12  13
ATOM     13  C   UNL     1       2.126   6.450  19.687  0.00  0.00    +0.000 A 
ATOM     14  C   UNL     1       1.605   7.393  20.581  0.00  0.00    +0.000 A 
ATOM     15  C   UNL     1       1.461   8.738  20.223  0.00  0.00    +0.000 A 
ATOM     16  C   UNL     1       1.718   9.146  18.921  0.00  0.00    +0.000 A 
ATOM     17  C   UNL     1       2.090   8.202  17.971  0.00  0.00    +0.000 A 
ATOM     18  C   UNL     1       2.308   6.875  18.355  0.00  0.00    +0.000 A 
ENDBRANCH  12  13
ENDBRANCH   4   7
BRANCH   1  20
ATOM     19  O   UNL     1       7.917   4.497  16.206  0.00  0.00    +0.000 OA
ATOM     20  C   UNL     1       7.016   5.187  15.748  0.00  0.00    +0.000 C 
ATOM     21  N   UNL     1       6.688   5.234  14.409  0.00  0.00    +0.000 N 
ATOM     22  H   UNL     1       5.881   5.773  14.126  0.00  0.00    +0.000 HD
BRANCH  21  23
ATOM     23  C   UNL     1       7.305   4.389  13.445  0.00  0.00    +0.000 C 
ATOM     24  C   UNL     1       6.465   3.621  12.464  0.00  0.00    +0.000 C 
ATOM     25  C   UNL     1       7.312   4.768  11.994  0.00  0.00    +0.000 C 
ENDBRANCH  21  23
ENDBRANCH   1  20
TORSDOF 4
ENDMDL
MODEL 5
REMARK VINA RESULT:      -8.2      1.937      3.994
REMARK  Name = 
REMARK  4 active torsions:
REMARK  status: ('A' for Active; 'I' for Inactive)
REMARK    1  A    between atoms: C_2  and  C_7
REMARK    2  A    between atoms: N_3  and  C_4
REMARK    3  A    between atoms: N_10  and  C_11
REMARK    4  A    between atoms: C_16  and  C_17
REMARK                            x       y       z     vdW  Elec       q    Type
REMARK                         _______ _______ _______ _____ _____    ______ ____
ROOT
ATOM      1  C   UNL     1       6.869   4.445  15.680  0.00  0.00    +0.000 C 
ATOM      2  C   UNL     1       5.591   3.767  16.196  0.00  0.00    +0.000 C 
ATOM      3  C   UNL     1       4.399   4.719  16.211  0.00  0.00    +0.000 C 
ATOM      4  N   UNL     1       4.770   5.879  17.029  0.00  0.00    +0.000 N 
ATOM      5  C   UNL     1       5.830   6.690  16.410  0.00  0.00    +0.000 C 
ATOM      6  C   UNL     1       7.102   5.829  16.305  0.00  0.00    +0.000 C 
ENDROOT
BRANCH   4   7
ATOM      7  C   UNL     1       3.800   6.472  17.852  0.00  0.00    +0.000 A 
ATOM      8  C   UNL     1       3.563   7.861  17.794  0.00  0.00    +0.000 A 
ATOM      9  N   UNL     1       2.580   8.550  18.426  0.00  0.00    +0.000 NA
ATOM     10  C   UNL     1       1.754   7.825  19.190  0.00  0.00    +0.000 A 
ATOM     11  C   UNL     1       1.895   6.459  19.373  0.00  0.00    +0.000 A 
ATOM     12  C   UNL     1       2.935   5.748  18.728  0.00  0.00    +0.000 A 
BRANCH  12  13
ATOM     13  C   UNL     1       3.032   4.288  19.019  0.00  0.00    +0.000 A 
ATOM     14  C   UNL     1       2.054   3.378  18.600  0.00  0.00    +0.000 A 
ATOM     15  C   UNL     1       2.267   1.996  18.661  0.00  0.00    +0.000 A 
ATOM     16  C   UNL     1       3.415   1.492  19.259  0.00  0.00    +0.000 A 
ATOM     17  C   UNL     1       4.333   2.370  19.821  0.00  0.00    +0.000 A 
ATOM     18  C   UNL     1       4.152   3.751  19.686  0.00  0.00    +0.000 A 
ENDBRANCH  12  13
ENDBRANCH   4   7
BRANCH   1  20
ATOM     19  O   UNL     1       7.543   5.351  13.543  0.00  0.00    +0.000 OA
ATOM     20  C   UNL     1       6.891   4.520  14.160  0.00  0.00    +0.000 C 
ATOM     21  N   UNL     1       6.118   3.548  13.560  0.00  0.00    +0.000 N 
ATOM     22  H   UNL     1       5.672   2.854  14.145  0.00  0.00    +0.000 HD
BRANCH  21  23
ATOM     23  C   UNL     1       6.099   3.354  12.151  0.00  0.00    +0.000 C 
ATOM     24  C   UNL     1       5.763   2.007  11.576  0.00  0.00    +0.000 C 
ATOM     25  C   UNL     1       4.801   3.150  11.428  0.00  0.00    +0.000 C 
ENDBRANCH  21  23
ENDBRANCH   1  20
TORSDOF 4
ENDMDL
MODEL 6
REMARK VINA RESULT:      -8.0      1.825      3.895
REMARK  Name = 
REMARK  4 active torsions:
REMARK  status: ('A' for Active; 'I' for Inactive)
REMARK    1  A    between atoms: C_2  and  C_7
REMARK    2  A    between atoms: N_3  and  C_4
REMARK    3  A    between atoms: N_10  and  C_11
REMARK    4  A    between atoms: C_16  and  C_17
REMARK                            x       y       z     vdW  Elec       q    Type
REMARK                         _______ _______ _______ _____ _____    ______ ____
ROOT
ATOM      1  C   UNL     1       6.702   4.408  15.973  0.00  0.00    +0.000 C 
ATOM      2  C   UNL     1       5.299   3.890  16.319  0.00  0.00    +0.000 C 
ATOM      3  C   UNL     1       4.239   4.981  16.210  0.00  0.00    +0.000 C 
ATOM      4  N   UNL     1       4.646   6.083  17.089  0.00  0.00    +0.000 N 
ATOM      5  C   UNL     1       5.864   6.760  16.617  0.00  0.00    +0.000 C 
ATOM      6  C   UNL     1       7.025   5.750  16.647  0.00  0.00    +0.000 C 
ENDROOT
BRANCH   4   7
ATOM      7  C   UNL     1       3.664   6.787  17.802  0.00  0.00    +0.000 A 
ATOM      8  C   UNL     1       3.577   8.192  17.707  0.00  0.00    +0.000 A 
ATOM      9  N   UNL     1       2.611   8.989  18.227  0.00  0.00    +0.000 NA
ATOM     10  C   UNL     1       1.642   8.366  18.908  0.00  0.00    +0.000 A 
ATOM     11  C   UNL     1       1.622   6.996  19.118  0.00  0.00    +0.000 A 
ATOM     12  C   UNL     1       2.643   6.172  18.590  0.00  0.00    +0.000 A 
BRANCH  12  13
ATOM     13  C   UNL     1       2.560   4.716  18.903  0.00  0.00    +0.000 A 
ATOM     14  C   UNL     1       3.464   4.086  19.767  0.00  0.00    +0.000 A 
ATOM     15  C   UNL     1       3.239   2.789  20.242  0.00  0.00    +0.000 A 
ATOM     16  C   UNL     1       2.167   2.046  19.764  0.00  0.00    +0.000 A 
ATOM     17  C   UNL     1       1.340   2.591  18.791  0.00  0.00    +0.000 A 
ATOM     18  C   UNL     1       1.524   3.916  18.379  0.00  0.00    +0.000 A 
ENDBRANCH  12  13
ENDBRANCH   4   7
BRANCH   1  20
ATOM     19  O   UNL     1       7.716   5.253  13.947  0.00  0.00    +0.000 OA
ATOM     20  C   UNL     1       6.917   4.486  14.468  0.00  0.00    +0.000 C 
ATOM     21  N   UNL     1       6.134   3.596  13.763  0.00  0.00    +0.000 N 
ATOM     22  H   UNL     1       5.555   2.946  14.278  0.00  0.00    +0.000 HD
BRANCH  21  23
ATOM     23  C   UNL     1       6.268   3.411  12.359  0.00  0.00    +0.000 C 
ATOM     24  C   UNL     1       6.017   2.062  11.746  0.00  0.00    +0.000 C 
ATOM     25  C   UNL     1       5.058   3.191  11.501  0.00  0.00    +0.000 C 
ENDBRANCH  21  23
ENDBRANCH   1  20
TORSDOF 4
ENDMDL
MODEL 7
REMARK VINA RESULT:      -7.8      3.517      6.678
REMARK  Name = 
REMARK  4 active torsions:
REMARK  status: ('A' for Active; 'I' for Inactive)
REMARK    1  A    between atoms: C_2  and  C_7
REMARK    2  A    between atoms: N_3  and  C_4
REMARK    3  A    between atoms: N_10  and  C_11
REMARK    4  A    between atoms: C_16  and  C_17
REMARK                            x       y       z     vdW  Elec       q    Type
REMARK                         _______ _______ _______ _____ _____    ______ ____
ROOT
ATOM      1  C   UNL     1       1.809   9.072  19.277  0.00  0.00    +0.000 C 
ATOM      2  C   UNL     1       2.213   8.536  17.896  0.00  0.00    +0.000 C 
ATOM      3  C   UNL     1       1.672   7.133  17.641  0.00  0.00    +0.000 C 
ATOM      4  N   UNL     1       2.155   6.269  18.725  0.00  0.00    +0.000 N 
ATOM      5  C   UNL     1       1.567   6.618  20.028  0.00  0.00    +0.000 C 
ATOM      6  C   UNL     1       2.014   8.043  20.398  0.00  0.00    +0.000 C 
ENDROOT
BRANCH   4   7
ATOM      7  C   UNL     1       2.521   4.947  18.432  0.00  0.00    +0.000 A 
ATOM      8  C   UNL     1       1.544   3.932  18.358  0.00  0.00    +0.000 A 
ATOM      9  N   UNL     1       1.727   2.648  17.960  0.00  0.00    +0.000 NA
ATOM     10  C   UNL     1       2.975   2.316  17.608  0.00  0.00    +0.000 A 
ATOM     11  C   UNL     1       4.041   3.198  17.672  0.00  0.00    +0.000 A 
ATOM     12  C   UNL     1       3.849   4.531  18.108  0.00  0.00    +0.000 A 
BRANCH  12  13
ATOM     13  C   UNL     1       5.062   5.395  18.184  0.00  0.00    +0.000 A 
ATOM     14  C   UNL     1       6.052   5.207  19.157  0.00  0.00    +0.000 A 
ATOM     15  C   UNL     1       7.290   5.854  19.076  0.00  0.00    +0.000 A 
ATOM     16  C   UNL     1       7.519   6.802  18.086  0.00  0.00    +0.000 A 
ATOM     17  C   UNL     1       6.499   7.121  17.198  0.00  0.00    +0.000 A 
ATOM     18  C   UNL     1       5.294   6.413  17.236  0.00  0.00    +0.000 A 
ENDBRANCH  12  13
ENDBRANCH   4   7
BRANCH   1  20
ATOM     19  O   UNL     1      -0.288   9.715  20.295  0.00  0.00    +0.000 OA
ATOM     20  C   UNL     1       0.384   9.606  19.277  0.00  0.00    +0.000 C 
ATOM     21  N   UNL     1      -0.059   9.967  18.022  0.00  0.00    +0.000 N 
ATOM     22  H   UNL     1       0.588   9.915  17.246  0.00  0.00    +0.000 HD
BRANCH  21  23
ATOM     23  C   UNL     1      -1.311  10.609  17.812  0.00  0.00    +0.000 C 
ATOM     24  C   UNL     1      -2.109  10.324  16.571  0.00  0.00    +0.000 C 
ATOM     25  C   UNL     1      -2.590   9.832  17.906  0.00  0.00    +0.000 C 
ENDBRANCH  21  23
ENDBRANCH   1  20
TORSDOF 4
ENDMDL
MODEL 8
REMARK VINA RESULT:      -7.5      1.527      3.567
REMARK  Name = 
REMARK  4 active torsions:
REMARK  status: ('A' for Active; 'I' for Inactive)
REMARK    1  A    between atoms: C_2  and  C_7
REMARK    2  A    between atoms: N_3  and  C_4
REMARK    3  A    between atoms: N_10  and  C_11
REMARK    4  A    between atoms: C_16  and  C_17
REMARK                            x       y       z     vdW  Elec       q    Type
REMARK                         _______ _______ _______ _____ _____    ______ ____
ROOT
ATOM      1  C   UNL     1       6.517   6.458  16.585  0.00  0.00    +0.000 C 
ATOM      2  C   UNL     1       6.660   6.281  18.103  0.00  0.00    +0.000 C 
ATOM      3  C   UNL     1       5.514   5.472  18.700  0.00  0.00    +0.000 C 
ATOM      4  N   UNL     1       4.262   6.149  18.345  0.00  0.00    +0.000 N 
ATOM      5  C   UNL     1       3.983   6.098  16.901  0.00  0.00    +0.000 C 
ATOM      6  C   UNL     1       5.097   6.863  16.164  0.00  0.00    +0.000 C 
ENDROOT
BRANCH   4   7
ATOM      7  C   UNL     1       3.215   6.181  19.278  0.00  0.00    +0.000 A 
ATOM      8  C   UNL     1       2.739   7.412  19.779  0.00  0.00    +0.000 A 
ATOM      9  N   UNL     1       1.659   7.607  20.577  0.00  0.00    +0.000 NA
ATOM     10  C   UNL     1       0.982   6.508  20.926  0.00  0.00    +0.000 A 
ATOM     11  C   UNL     1       1.360   5.230  20.543  0.00  0.00    +0.000 A 
ATOM     12  C   UNL     1       2.499   5.030  19.728  0.00  0.00    +0.000 A 
BRANCH  12  13
ATOM     13  C   UNL     1       2.852   3.618  19.402  0.00  0.00    +0.000 A 
ATOM     14  C   UNL     1       2.366   2.973  18.259  0.00  0.00    +0.000 A 
ATOM     15  C   UNL     1       2.887   1.745  17.834  0.00  0.00    +0.000 A 
ATOM     16  C   UNL     1       3.821   1.075  18.614  0.00  0.00    +0.000 A 
ATOM     17  C   UNL     1       4.209   1.621  19.831  0.00  0.00    +0.000 A 
ATOM     18  C   UNL     1       3.744   2.884  20.211  0.00  0.00    +0.000 A 
ENDBRANCH  12  13
ENDBRANCH   4   7
BRANCH   1  20
ATOM     19  O   UNL     1       7.810   4.438  16.274  0.00  0.00    +0.000 OA
ATOM     20  C   UNL     1       6.979   5.220  15.829  0.00  0.00    +0.000 C 
ATOM     21  N   UNL     1       6.353   5.065  14.610  0.00  0.00    +0.000 N 
ATOM     22  H   UNL     1       5.624   5.717  14.353  0.00  0.00    +0.000 HD
BRANCH  21  23
ATOM     23  C   UNL     1       6.540   3.911  13.800  0.00  0.00    +0.000 C 
ATOM     24  C   UNL     1       5.544   3.570  12.727  0.00  0.00    +0.000 C 
ATOM     25  C   UNL     1       6.918   4.048  12.355  0.00  0.00    +0.000 C 
ENDBRANCH  21  23
ENDBRANCH   1  20
TORSDOF 4
ENDMDL
MODEL 9
REMARK VINA RESULT:      -7.4      3.366      6.530
REMARK  Name = 
REMARK  4 active torsions:
REMARK  status: ('A' for Active; 'I' for Inactive)
REMARK    1  A    between atoms: C_2  and  C_7
REMARK    2  A    between atoms: N_3  and  C_4
REMARK    3  A    between atoms: N_10  and  C_11
REMARK    4  A    between atoms: C_16  and  C_17
REMARK                            x       y       z     vdW  Elec       q    Type
REMARK                         _______ _______ _______ _____ _____    ______ ____
ROOT
ATOM      1  C   UNL     1       1.925   8.879  19.193  0.00  0.00    +0.000 C 
ATOM      2  C   UNL     1       2.228   8.247  17.827  0.00  0.00    +0.000 C 
ATOM      3  C   UNL     1       1.633   6.848  17.695  0.00  0.00    +0.000 C 
ATOM      4  N   UNL     1       2.157   6.038  18.801  0.00  0.00    +0.000 N 
ATOM      5  C   UNL     1       1.660   6.485  20.111  0.00  0.00    +0.000 C 
ATOM      6  C   UNL     1       2.169   7.915  20.363  0.00  0.00    +0.000 C 
ENDROOT
BRANCH   4   7
ATOM      7  C   UNL     1       2.467   4.689  18.571  0.00  0.00    +0.000 A 
ATOM      8  C   UNL     1       1.483   3.691  18.730  0.00  0.00    +0.000 A 
ATOM      9  N   UNL     1       1.597   2.374  18.422  0.00  0.00    +0.000 NA
ATOM     10  C   UNL     1       2.776   1.990  17.918  0.00  0.00    +0.000 A 
ATOM     11  C   UNL     1       3.846   2.854  17.748  0.00  0.00    +0.000 A 
ATOM     12  C   UNL     1       3.729   4.222  18.091  0.00  0.00    +0.000 A 
BRANCH  12  13
ATOM     13  C   UNL     1       4.945   5.066  17.912  0.00  0.00    +0.000 A 
ATOM     14  C   UNL     1       5.065   5.990  16.867  0.00  0.00    +0.000 A 
ATOM     15  C   UNL     1       6.092   6.941  16.845  0.00  0.00    +0.000 A 
ATOM     16  C   UNL     1       7.095   6.908  17.805  0.00  0.00    +0.000 A 
ATOM     17  C   UNL     1       7.085   5.907  18.768  0.00  0.00    +0.000 A 
ATOM     18  C   UNL     1       6.014   5.009  18.831  0.00  0.00    +0.000 A 
ENDBRANCH  12  13
ENDBRANCH   4   7
BRANCH   1  20
ATOM     19  O   UNL     1      -0.117   9.576  20.283  0.00  0.00    +0.000 OA
ATOM     20  C   UNL     1       0.518   9.458  19.244  0.00  0.00    +0.000 C 
ATOM     21  N   UNL     1       0.048   9.847  18.007  0.00  0.00    +0.000 N 
ATOM     22  H   UNL     1       0.668   9.783  17.210  0.00  0.00    +0.000 HD
BRANCH  21  23
ATOM     23  C   UNL     1      -1.189  10.530  17.844  0.00  0.00    +0.000 C 
ATOM     24  C   UNL     1      -2.024  10.301  16.615  0.00  0.00    +0.000 C 
ATOM     25  C   UNL     1      -2.488   9.788  17.947  0.00  0.00    +0.000 C 
ENDBRANCH  21  23
ENDBRANCH   1  20
TORSDOF 4
ENDMDL
