MODEL 1
REMARK VINA RESULT:      -8.6      0.000      0.000
REMARK  Name = 
REMARK  5 active torsions:
REMARK  status: ('A' for Active; 'I' for Inactive)
REMARK    1  A    between atoms: C_1  and  C_2
REMARK    2  A    between atoms: C_2  and  C_3
REMARK    3  A    between atoms: C_8  and  N_9
REMARK    4  A    between atoms: N_9  and  C_10
REMARK    5  A    between atoms: C_11  and  C_13
REMARK                            x       y       z     vdW  Elec       q    Type
REMARK                         _______ _______ _______ _____ _____    ______ ____
ROOT
ATOM      1  C   UNL     1       2.447   6.292  19.218  0.00  0.00    +0.000 A 
ATOM      2  C   UNL     1       1.828   6.201  20.470  0.00  0.00    +0.000 A 
ATOM      3  C   UNL     1       1.210   7.366  20.937  0.00  0.00    +0.000 A 
ATOM      4  C   UNL     1       1.379   8.645  20.251  0.00  0.00    +0.000 A 
ATOM      5  C   UNL     1       1.270  10.048  20.784  0.00  0.00    +0.000 A 
ATOM      6  O   UNL     1       0.600  10.034  21.785  0.00  0.00    +0.000 OA
ATOM      7  N   UNL     1       1.506  11.203  19.856  0.00  0.00    +0.000 N 
ATOM      8  C   UNL     1       0.253  11.041  19.364  0.00  0.00    +0.000 A 
ATOM      9  N   UNL     1       0.747  10.115  18.359  0.00  0.00    +0.000 NA
ATOM     10  C   UNL     1       1.521   8.725  18.918  0.00  0.00    +0.000 A 
ATOM     11  C   UNL     1       2.219   7.513  18.405  0.00  0.00    +0.000 A 
ATOM     12  C   UNL     1      -0.051  12.630  20.281  0.00  0.00    +0.000 C 
ATOM     13  C   UNL     1       0.008  14.443  20.617  0.00  0.00    +0.000 C 
ATOM     14  C   UNL     1       0.685  15.603  19.400  0.00  0.00    +0.000 C 
ATOM     15  C   UNL     1       0.969  14.245  18.625  0.00  0.00    +0.000 C 
ATOM     16  C   UNL     1       1.793  12.585  18.731  0.00  0.00    +0.000 C 
ENDROOT
BRANCH   1  19
ATOM     17  N   UNL     1       4.142   4.565  18.192  0.00  0.00    +0.000 N 
ATOM     18  C   UNL     1       4.253   3.178  17.772  0.00  0.00    +0.000 C 
ATOM     19  C   UNL     1       2.803   4.947  18.641  0.00  0.00    +0.000 C 
ATOM     20  O   UNL     1       1.732   4.334  18.652  0.00  0.00    +0.000 OA
BRANCH  17  26
ATOM     21  C   UNL     1       5.835   6.339  17.244  0.00  0.00    +0.000 A 
ATOM     22  C   UNL     1       6.970   7.154  17.372  0.00  0.00    +0.000 A 
ATOM     23  C   UNL     1       7.886   6.890  18.360  0.00  0.00    +0.000 A 
ATOM     24  C   UNL     1       7.579   5.941  19.319  0.00  0.00    +0.000 A 
ATOM     25  C   UNL     1       6.388   5.194  19.239  0.00  0.00    +0.000 A 
ATOM     26  C   UNL     1       5.433   5.365  18.205  0.00  0.00    +0.000 A 
BRANCH  21  28
ATOM     27  C   UNL     1       5.511   5.431  14.943  0.00  0.00    +0.000 C 
ATOM     28  C   UNL     1       5.155   6.508  15.942  0.00  0.00    +0.000 C 
ENDBRANCH  21  28
ENDBRANCH  17  26
ENDBRANCH   1  19
TORSDOF 3
ENDMDL
MODEL 2
REMARK VINA RESULT:      -8.6      1.602      2.374
REMARK  Name = 
REMARK  5 active torsions:
REMARK  status: ('A' for Active; 'I' for Inactive)
REMARK    1  A    between atoms: C_1  and  C_2
REMARK    2  A    between atoms: C_2  and  C_3
REMARK    3  A    between atoms: C_8  and  N_9
REMARK    4  A    between atoms: N_9  and  C_10
REMARK    5  A    between atoms: C_11  and  C_13
REMARK                            x       y       z     vdW  Elec       q    Type
REMARK                         _______ _______ _______ _____ _____    ______ ____
ROOT
ATOM      1  C   UNL     1       2.223   5.516  19.271  0.00  0.00    +0.000 A 
ATOM      2  C   UNL     1       2.712   6.281  18.206  0.00  0.00    +0.000 A 
ATOM      3  C   UNL     1       2.522   7.664  18.305  0.00  0.00    +0.000 A 
ATOM      4  C   UNL     1       1.689   8.246  19.354  0.00  0.00    +0.000 A 
ATOM      5  C   UNL     1       0.944   9.553  19.381  0.00  0.00    +0.000 A 
ATOM      6  O   UNL     1       1.445  10.304  18.583  0.00  0.00    +0.000 OA
ATOM      7  N   UNL     1       0.141   9.911  20.597  0.00  0.00    +0.000 N 
ATOM      8  C   UNL     1       1.286  10.281  21.223  0.00  0.00    +0.000 A 
ATOM      9  N   UNL     1       1.468   8.930  21.725  0.00  0.00    +0.000 NA
ATOM     10  C   UNL     1       1.601   7.701  20.579  0.00  0.00    +0.000 A 
ATOM     11  C   UNL     1       1.754   6.221  20.491  0.00  0.00    +0.000 A 
ATOM     12  C   UNL     1       0.572  11.983  21.001  0.00  0.00    +0.000 C 
ATOM     13  C   UNL     1      -0.534  13.424  21.323  0.00  0.00    +0.000 C 
ATOM     14  C   UNL     1      -1.685  13.431  22.723  0.00  0.00    +0.000 C 
ATOM     15  C   UNL     1      -1.095  11.967  22.901  0.00  0.00    +0.000 C 
ATOM     16  C   UNL     1      -0.823  10.332  22.064  0.00  0.00    +0.000 C 
ENDROOT
BRANCH   1  19
ATOM     17  N   UNL     1       4.086   3.710  18.855  0.00  0.00    +0.000 N 
ATOM     18  C   UNL     1       4.372   2.296  19.030  0.00  0.00    +0.000 C 
ATOM     19  C   UNL     1       2.735   4.099  19.259  0.00  0.00    +0.000 C 
ATOM     20  O   UNL     1       1.767   3.437  19.643  0.00  0.00    +0.000 OA
BRANCH  17  26
ATOM     21  C   UNL     1       5.578   4.890  17.040  0.00  0.00    +0.000 A 
ATOM     22  C   UNL     1       6.573   5.806  16.665  0.00  0.00    +0.000 A 
ATOM     23  C   UNL     1       7.438   6.294  17.613  0.00  0.00    +0.000 A 
ATOM     24  C   UNL     1       7.196   6.011  18.946  0.00  0.00    +0.000 A 
ATOM     25  C   UNL     1       6.132   5.169  19.323  0.00  0.00    +0.000 A 
ATOM     26  C   UNL     1       5.246   4.574  18.391  0.00  0.00    +0.000 A 
BRANCH  21  28
ATOM     27  C   UNL     1       5.851   4.242  14.646  0.00  0.00    +0.000 C 
ATOM     28  C   UNL     1       4.985   4.187  15.884  0.00  0.00    +0.000 C 
ENDBRANCH  21  28
ENDBRANCH  17  26
ENDBRANCH   1  19
TORSDOF 3
ENDMDL
MODEL 3
REMARK VINA RESULT:      -8.2      1.598      2.783
REMARK  Name = 
REMARK  5 active torsions:
REMARK  status: ('A' for Active; 'I' for Inactive)
REMARK    1  A    between atoms: C_1  and  C_2
REMARK    2  A    between atoms: C_2  and  C_3
REMARK    3  A    between atoms: C_8  and  N_9
REMARK    4  A    between atoms: N_9  and  C_10
REMARK    5  A    between atoms: C_11  and  C_13
REMARK                            x       y       z     vdW  Elec       q    Type
REMARK                         _______ _______ _______ _____ _____    ______ ____
ROOT
ATOM      1  C   UNL     1       2.468   5.627  19.354  0.00  0.00    +0.000 A 
ATOM      2  C   UNL     1       3.156   6.154  18.255  0.00  0.00    +0.000 A 
ATOM      3  C   UNL     1       2.978   7.521  18.017  0.00  0.00    +0.000 A 
ATOM      4  C   UNL     1       1.979   8.298  18.747  0.00  0.00    +0.000 A 
ATOM      5  C   UNL     1       1.267   9.564  18.356  0.00  0.00    +0.000 A 
ATOM      6  O   UNL     1       1.918  10.135  17.518  0.00  0.00    +0.000 OA
ATOM      7  N   UNL     1       0.264  10.159  19.300  0.00  0.00    +0.000 N 
ATOM      8  C   UNL     1       1.283  10.679  20.028  0.00  0.00    +0.000 A 
ATOM      9  N   UNL     1       1.346   9.473  20.835  0.00  0.00    +0.000 NA
ATOM     10  C   UNL     1       1.661   8.028  20.024  0.00  0.00    +0.000 A 
ATOM     11  C   UNL     1       1.800   6.568  20.287  0.00  0.00    +0.000 A 
ATOM     12  C   UNL     1       0.654  12.278  19.318  0.00  0.00    +0.000 C 
ATOM     13  C   UNL     1      -0.466  13.731  19.115  0.00  0.00    +0.000 C 
ATOM     14  C   UNL     1      -1.850  14.016  20.249  0.00  0.00    +0.000 C 
ATOM     15  C   UNL     1      -1.330  12.637  20.843  0.00  0.00    +0.000 C 
ATOM     16  C   UNL     1      -0.942  10.866  20.442  0.00  0.00    +0.000 C 
ENDROOT
BRANCH   1  19
ATOM     17  N   UNL     1       4.057   3.549  19.097  0.00  0.00    +0.000 N 
ATOM     18  C   UNL     1       4.395   2.279  19.718  0.00  0.00    +0.000 C 
ATOM     19  C   UNL     1       2.947   4.252  19.741  0.00  0.00    +0.000 C 
ATOM     20  O   UNL     1       2.192   3.930  20.662  0.00  0.00    +0.000 OA
BRANCH  17  26
ATOM     21  C   UNL     1       6.178   4.727  18.085  0.00  0.00    +0.000 A 
ATOM     22  C   UNL     1       7.050   4.997  17.019  0.00  0.00    +0.000 A 
ATOM     23  C   UNL     1       6.647   4.742  15.731  0.00  0.00    +0.000 A 
ATOM     24  C   UNL     1       5.462   4.057  15.527  0.00  0.00    +0.000 A 
ATOM     25  C   UNL     1       4.638   3.700  16.612  0.00  0.00    +0.000 A 
ATOM     26  C   UNL     1       4.959   3.998  17.960  0.00  0.00    +0.000 A 
BRANCH  21  28
ATOM     27  C   UNL     1       8.013   5.900  19.303  0.00  0.00    +0.000 C 
ATOM     28  C   UNL     1       6.593   5.386  19.342  0.00  0.00    +0.000 C 
ENDBRANCH  21  28
ENDBRANCH  17  26
ENDBRANCH   1  19
TORSDOF 3
ENDMDL
MODEL 4
REMARK VINA RESULT:      -8.0      1.487      2.153
REMARK  Name = 
REMARK  5 active torsions:
REMARK  status: ('A' for Active; 'I' for Inactive)
REMARK    1  A    between atoms: C_1  and  C_2
REMARK    2  A    between atoms: C_2  and  C_3
REMARK    3  A    between atoms: C_8  and  N_9
REMARK    4  A    between atoms: N_9  and  C_10
REMARK    5  A    between atoms: C_11  and  C_13
REMARK                            x       y       z     vdW  Elec       q    Type
REMARK                         _______ _______ _______ _____ _____    ______ ____
ROOT
ATOM      1  C   UNL     1       2.420   5.768  19.116  0.00  0.00    +0.000 A 
ATOM      2  C   UNL     1       3.092   6.354  18.037  0.00  0.00    +0.000 A 
ATOM      3  C   UNL     1       2.915   7.733  17.879  0.00  0.00    +0.000 A 
ATOM      4  C   UNL     1       1.932   8.471  18.668  0.00  0.00    +0.000 A 
ATOM      5  C   UNL     1       1.218   9.759  18.361  0.00  0.00    +0.000 A 
ATOM      6  O   UNL     1       1.858  10.375  17.546  0.00  0.00    +0.000 OA
ATOM      7  N   UNL     1       0.233  10.304  19.353  0.00  0.00    +0.000 N 
ATOM      8  C   UNL     1       1.266  10.778  20.092  0.00  0.00    +0.000 A 
ATOM      9  N   UNL     1       1.337   9.528  20.829  0.00  0.00    +0.000 NA
ATOM     10  C   UNL     1       1.633   8.131  19.933  0.00  0.00    +0.000 A 
ATOM     11  C   UNL     1       1.771   6.658  20.111  0.00  0.00    +0.000 A 
ATOM     12  C   UNL     1       0.631  12.416  19.483  0.00  0.00    +0.000 C 
ATOM     13  C   UNL     1      -0.485  13.882  19.381  0.00  0.00    +0.000 C 
ATOM     14  C   UNL     1      -1.850  14.107  20.552  0.00  0.00    +0.000 C 
ATOM     15  C   UNL     1      -1.326  12.696  21.059  0.00  0.00    +0.000 C 
ATOM     16  C   UNL     1      -0.951  10.948  20.553  0.00  0.00    +0.000 C 
ENDROOT
BRANCH   1  19
ATOM     17  N   UNL     1       4.262   3.895  19.179  0.00  0.00    +0.000 N 
ATOM     18  C   UNL     1       4.506   2.542  19.650  0.00  0.00    +0.000 C 
ATOM     19  C   UNL     1       2.900   4.372  19.417  0.00  0.00    +0.000 C 
ATOM     20  O   UNL     1       1.898   3.811  19.868  0.00  0.00    +0.000 OA
BRANCH  17  26
ATOM     21  C   UNL     1       5.859   4.699  17.251  0.00  0.00    +0.000 A 
ATOM     22  C   UNL     1       6.896   5.510  16.765  0.00  0.00    +0.000 A 
ATOM     23  C   UNL     1       7.738   6.138  17.648  0.00  0.00    +0.000 A 
ATOM     24  C   UNL     1       7.435   6.103  18.998  0.00  0.00    +0.000 A 
ATOM     25  C   UNL     1       6.333   5.366  19.471  0.00  0.00    +0.000 A 
ATOM     26  C   UNL     1       5.465   4.635  18.621  0.00  0.00    +0.000 A 
BRANCH  21  28
ATOM     27  C   UNL     1       5.367   4.405  14.823  0.00  0.00    +0.000 C 
ATOM     28  C   UNL     1       5.290   3.815  16.212  0.00  0.00    +0.000 C 
ENDBRANCH  21  28
ENDBRANCH  17  26
ENDBRANCH   1  19
TORSDOF 3
ENDMDL
MODEL 5
REMARK VINA RESULT:      -8.0      1.646      2.951
REMARK  Name = 
REMARK  5 active torsions:
REMARK  status: ('A' for Active; 'I' for Inactive)
REMARK    1  A    between atoms: C_1  and  C_2
REMARK    2  A    between atoms: C_2  and  C_3
REMARK    3  A    between atoms: C_8  and  N_9
REMARK    4  A    between atoms: N_9  and  C_10
REMARK    5  A    between atoms: C_11  and  C_13
REMARK                            x       y       z     vdW  Elec       q    Type
REMARK                         _______ _______ _______ _____ _____    ______ ____
ROOT
ATOM      1  C   UNL     1       2.248   5.311  19.391  0.00  0.00    +0.000 A 
ATOM      2  C   UNL     1       2.782   6.040  18.322  0.00  0.00    +0.000 A 
ATOM      3  C   UNL     1       2.619   7.428  18.384  0.00  0.00    +0.000 A 
ATOM      4  C   UNL     1       1.770   8.052  19.396  0.00  0.00    +0.000 A 
ATOM      5  C   UNL     1       1.053   9.375  19.373  0.00  0.00    +0.000 A 
ATOM      6  O   UNL     1       1.591  10.096  18.571  0.00  0.00    +0.000 OA
ATOM      7  N   UNL     1       0.225   9.778  20.557  0.00  0.00    +0.000 N 
ATOM      8  C   UNL     1       1.360  10.139  21.205  0.00  0.00    +0.000 A 
ATOM      9  N   UNL     1       1.500   8.796  21.744  0.00  0.00    +0.000 NA
ATOM     10  C   UNL     1       1.638   7.538  20.630  0.00  0.00    +0.000 A 
ATOM     11  C   UNL     1       1.762   6.054  20.581  0.00  0.00    +0.000 A 
ATOM     12  C   UNL     1       0.689  11.849  20.924  0.00  0.00    +0.000 C 
ATOM     13  C   UNL     1      -0.395  13.321  21.182  0.00  0.00    +0.000 C 
ATOM     14  C   UNL     1      -1.582  13.384  22.550  0.00  0.00    +0.000 C 
ATOM     15  C   UNL     1      -1.029  11.913  22.778  0.00  0.00    +0.000 C 
ATOM     16  C   UNL     1      -0.769  10.253  21.987  0.00  0.00    +0.000 C 
ENDROOT
BRANCH   1  19
ATOM     17  N   UNL     1       3.845   3.366  18.632  0.00  0.00    +0.000 N 
ATOM     18  C   UNL     1       4.184   1.983  18.919  0.00  0.00    +0.000 C 
ATOM     19  C   UNL     1       2.730   3.884  19.426  0.00  0.00    +0.000 C 
ATOM     20  O   UNL     1       1.973   3.341  20.234  0.00  0.00    +0.000 OA
BRANCH  17  26
ATOM     21  C   UNL     1       5.920   4.836  17.966  0.00  0.00    +0.000 A 
ATOM     22  C   UNL     1       6.803   5.365  17.012  0.00  0.00    +0.000 A 
ATOM     23  C   UNL     1       6.451   5.360  15.685  0.00  0.00    +0.000 A 
ATOM     24  C   UNL     1       5.315   4.671  15.299  0.00  0.00    +0.000 A 
ATOM     25  C   UNL     1       4.484   4.057  16.255  0.00  0.00    +0.000 A 
ATOM     26  C   UNL     1       4.750   4.086  17.647  0.00  0.00    +0.000 A 
BRANCH  21  28
ATOM     27  C   UNL     1       7.667   5.778  19.478  0.00  0.00    +0.000 C 
ATOM     28  C   UNL     1       6.260   5.242  19.346  0.00  0.00    +0.000 C 
ENDBRANCH  21  28
ENDBRANCH  17  26
ENDBRANCH   1  19
TORSDOF 3
ENDMDL
MODEL 6
REMARK VINA RESULT:      -7.8      2.011      3.654
REMARK  Name = 
REMARK  5 active torsions:
REMARK  status: ('A' for Active; 'I' for Inactive)
REMARK    1  A    between atoms: C_1  and  C_2
REMARK    2  A    between atoms: C_2  and  C_3
REMARK    3  A    between atoms: C_8  and  N_9
REMARK    4  A    between atoms: N_9  and  C_10
REMARK    5  A    between atoms: C_11  and  C_13
REMARK                            x       y       z     vdW  Elec       q    Type
REMARK                         _______ _______ _______ _____ _____    ______ ____
ROOT
ATOM      1  C   UNL     1       3.252   7.201  18.263  0.00  0.00    +0.000 A 
ATOM      2  C   UNL     1       2.848   6.606  19.464  0.00  0.00    +0.000 A 
ATOM      3  C   UNL     1       1.897   7.310  20.210  0.00  0.00    +0.000 A 
ATOM      4  C   UNL     1       1.507   8.673  19.854  0.00  0.00    +0.000 A 
ATOM      5  C   UNL     1       0.944   9.771  20.715  0.00  0.00    +0.000 A 
ATOM      6  O   UNL     1       0.438   9.280  21.692  0.00  0.00    +0.000 OA
ATOM      7  N   UNL     1       0.635  11.101  20.094  0.00  0.00    +0.000 N 
ATOM      8  C   UNL     1      -0.514  10.582  19.596  0.00  0.00    +0.000 A 
ATOM      9  N   UNL     1       0.177  10.163  18.388  0.00  0.00    +0.000 NA
ATOM     10  C   UNL     1       1.465   9.093  18.579  0.00  0.00    +0.000 A 
ATOM     11  C   UNL     1       2.503   8.387  17.775  0.00  0.00    +0.000 A 
ATOM     12  C   UNL     1      -1.284  11.687  20.877  0.00  0.00    +0.000 C 
ATOM     13  C   UNL     1      -1.865  13.262  21.645  0.00  0.00    +0.000 C 
ATOM     14  C   UNL     1      -1.799  14.829  20.738  0.00  0.00    +0.000 C 
ATOM     15  C   UNL     1      -1.119  13.892  19.651  0.00  0.00    +0.000 C 
ATOM     16  C   UNL     1       0.268  12.698  19.336  0.00  0.00    +0.000 C 
ENDROOT
BRANCH   1  19
ATOM     17  N   UNL     1       3.842   4.807  17.354  0.00  0.00    +0.000 N 
ATOM     18  C   UNL     1       4.620   4.128  16.331  0.00  0.00    +0.000 C 
ATOM     19  C   UNL     1       4.017   6.259  17.369  0.00  0.00    +0.000 C 
ATOM     20  O   UNL     1       4.762   7.006  16.730  0.00  0.00    +0.000 OA
BRANCH  17  26
ATOM     21  C   UNL     1       3.243   3.165  19.318  0.00  0.00    +0.000 A 
ATOM     22  C   UNL     1       2.311   2.487  20.119  0.00  0.00    +0.000 A 
ATOM     23  C   UNL     1       1.013   2.360  19.691  0.00  0.00    +0.000 A 
ATOM     24  C   UNL     1       0.610   3.059  18.567  0.00  0.00    +0.000 A 
ATOM     25  C   UNL     1       1.531   3.820  17.822  0.00  0.00    +0.000 A 
ATOM     26  C   UNL     1       2.901   3.935  18.167  0.00  0.00    +0.000 A 
BRANCH  21  28
ATOM     27  C   UNL     1       4.781   1.698  20.624  0.00  0.00    +0.000 C 
ATOM     28  C   UNL     1       4.640   2.901  19.719  0.00  0.00    +0.000 C 
ENDBRANCH  21  28
ENDBRANCH  17  26
ENDBRANCH   1  19
TORSDOF 3
ENDMDL
MODEL 7
REMARK VINA RESULT:      -7.5      2.543      8.887
REMARK  Name = 
REMARK  5 active torsions:
REMARK  status: ('A' for Active; 'I' for Inactive)
REMARK    1  A    between atoms: C_1  and  C_2
REMARK    2  A    between atoms: C_2  and  C_3
REMARK    3  A    between atoms: C_8  and  N_9
REMARK    4  A    between atoms: N_9  and  C_10
REMARK    5  A    between atoms: C_11  and  C_13
REMARK                            x       y       z     vdW  Elec       q    Type
REMARK                         _______ _______ _______ _____ _____    ______ ____
ROOT
ATOM      1  C   UNL     1       1.026  10.349  19.125  0.00  0.00    +0.000 A 
ATOM      2  C   UNL     1       0.859  10.074  20.488  0.00  0.00    +0.000 A 
ATOM      3  C   UNL     1       1.289   8.814  20.918  0.00  0.00    +0.000 A 
ATOM      4  C   UNL     1       1.697   7.783  19.968  0.00  0.00    +0.000 A 
ATOM      5  C   UNL     1       1.703   6.285  20.112  0.00  0.00    +0.000 A 
ATOM      6  O   UNL     1       1.722   6.007  21.284  0.00  0.00    +0.000 OA
ATOM      7  N   UNL     1       2.168   5.442  18.962  0.00  0.00    +0.000 N 
ATOM      8  C   UNL     1       3.451   5.714  19.304  0.00  0.00    +0.000 A 
ATOM      9  N   UNL     1       3.446   6.893  18.455  0.00  0.00    +0.000 NA
ATOM     10  C   UNL     1       2.305   8.083  18.808  0.00  0.00    +0.000 A 
ATOM     11  C   UNL     1       1.826   9.402  18.307  0.00  0.00    +0.000 A 
ATOM     12  C   UNL     1       3.440   3.927  19.816  0.00  0.00    +0.000 C 
ATOM     13  C   UNL     1       3.469   2.094  19.611  0.00  0.00    +0.000 C 
ATOM     14  C   UNL     1       3.723   1.334  17.985  0.00  0.00    +0.000 C 
ATOM     15  C   UNL     1       3.708   2.859  17.541  0.00  0.00    +0.000 C 
ATOM     16  C   UNL     1       2.728   4.436  17.572  0.00  0.00    +0.000 C 
ENDROOT
BRANCH   1  19
ATOM     17  N   UNL     1      -0.424  12.421  18.411  0.00  0.00    +0.000 N 
ATOM     18  C   UNL     1      -0.359  13.863  18.244  0.00  0.00    +0.000 C 
ATOM     19  C   UNL     1       0.848  11.808  18.795  0.00  0.00    +0.000 C 
ATOM     20  O   UNL     1       1.982  12.275  18.924  0.00  0.00    +0.000 OA
BRANCH  17  26
ATOM     21  C   UNL     1      -2.952  12.093  19.055  0.00  0.00    +0.000 A 
ATOM     22  C   UNL     1      -4.236  11.590  18.796  0.00  0.00    +0.000 A 
ATOM     23  C   UNL     1      -4.400  10.589  17.871  0.00  0.00    +0.000 A 
ATOM     24  C   UNL     1      -3.321  10.225  17.085  0.00  0.00    +0.000 A 
ATOM     25  C   UNL     1      -2.054  10.806  17.284  0.00  0.00    +0.000 A 
ATOM     26  C   UNL     1      -1.800  11.793  18.270  0.00  0.00    +0.000 A 
BRANCH  21  28
ATOM     27  C   UNL     1      -2.142  12.167  21.413  0.00  0.00    +0.000 C 
ATOM     28  C   UNL     1      -2.886  12.877  20.306  0.00  0.00    +0.000 C 
ENDBRANCH  21  28
ENDBRANCH  17  26
ENDBRANCH   1  19
TORSDOF 3
ENDMDL
MODEL 8
REMARK VINA RESULT:      -7.4      2.498      4.213
REMARK  Name = 
REMARK  5 active torsions:
REMARK  status: ('A' for Active; 'I' for Inactive)
REMARK    1  A    between atoms: C_1  and  C_2
REMARK    2  A    between atoms: C_2  and  C_3
REMARK    3  A    between atoms: C_8  and  N_9
REMARK    4  A    between atoms: N_9  and  C_10
REMARK    5  A    between atoms: C_11  and  C_13
REMARK                            x       y       z     vdW  Elec       q    Type
REMARK                         _______ _______ _______ _____ _____    ______ ____
ROOT
ATOM      1  C   UNL     1       2.910   7.171  18.564  0.00  0.00    +0.000 A 
ATOM      2  C   UNL     1       2.610   7.962  17.448  0.00  0.00    +0.000 A 
ATOM      3  C   UNL     1       1.795   9.075  17.685  0.00  0.00    +0.000 A 
ATOM      4  C   UNL     1       1.139   9.279  18.975  0.00  0.00    +0.000 A 
ATOM      5  C   UNL     1      -0.111  10.046  19.311  0.00  0.00    +0.000 A 
ATOM      6  O   UNL     1      -0.315  10.857  18.444  0.00  0.00    +0.000 OA
ATOM      7  N   UNL     1      -0.581  10.088  20.734  0.00  0.00    +0.000 N 
ATOM      8  C   UNL     1       0.353  11.035  20.997  0.00  0.00    +0.000 A 
ATOM      9  N   UNL     1       1.325  10.009  21.335  0.00  0.00    +0.000 NA
ATOM     10  C   UNL     1       1.704   8.892  20.130  0.00  0.00    +0.000 A 
ATOM     11  C   UNL     1       2.540   7.679  19.909  0.00  0.00    +0.000 A 
ATOM     12  C   UNL     1      -1.143  12.133  21.111  0.00  0.00    +0.000 C 
ATOM     13  C   UNL     1      -2.667  12.870  21.847  0.00  0.00    +0.000 C 
ATOM     14  C   UNL     1      -3.190  12.457  23.532  0.00  0.00    +0.000 C 
ATOM     15  C   UNL     1      -1.927  11.499  23.429  0.00  0.00    +0.000 C 
ATOM     16  C   UNL     1      -1.139  10.131  22.451  0.00  0.00    +0.000 C 
ENDROOT
BRANCH   1  19
ATOM     17  N   UNL     1       4.072   4.828  18.821  0.00  0.00    +0.000 N 
ATOM     18  C   UNL     1       5.207   4.052  18.349  0.00  0.00    +0.000 C 
ATOM     19  C   UNL     1       4.030   6.197  18.307  0.00  0.00    +0.000 C 
ATOM     20  O   UNL     1       4.821   6.840  17.612  0.00  0.00    +0.000 OA
BRANCH  17  26
ATOM     21  C   UNL     1       2.061   3.179  19.209  0.00  0.00    +0.000 A 
ATOM     22  C   UNL     1       1.243   2.406  20.047  0.00  0.00    +0.000 A 
ATOM     23  C   UNL     1       1.229   2.652  21.397  0.00  0.00    +0.000 A 
ATOM     24  C   UNL     1       2.155   3.535  21.924  0.00  0.00    +0.000 A 
ATOM     25  C   UNL     1       3.043   4.235  21.085  0.00  0.00    +0.000 A 
ATOM     26  C   UNL     1       3.062   4.082  19.676  0.00  0.00    +0.000 A 
BRANCH  21  28
ATOM     27  C   UNL     1       1.062   4.305  17.220  0.00  0.00    +0.000 C 
ATOM     28  C   UNL     1       1.698   3.055  17.782  0.00  0.00    +0.000 C 
ENDBRANCH  21  28
ENDBRANCH  17  26
ENDBRANCH   1  19
TORSDOF 3
ENDMDL
MODEL 9
REMARK VINA RESULT:      -7.3      1.622      2.469
REMARK  Name = 
REMARK  5 active torsions:
REMARK  status: ('A' for Active; 'I' for Inactive)
REMARK    1  A    between atoms: C_1  and  C_2
REMARK    2  A    between atoms: C_2  and  C_3
REMARK    3  A    between atoms: C_8  and  N_9
REMARK    4  A    between atoms: N_9  and  C_10
REMARK    5  A    between atoms: C_11  and  C_13
REMARK                            x       y       z     vdW  Elec       q    Type
REMARK                         _______ _______ _______ _____ _____    ______ ____
ROOT
ATOM      1  C   UNL     1       2.130   5.898  19.935  0.00  0.00    +0.000 A 
ATOM      2  C   UNL     1       2.751   6.360  18.769  0.00  0.00    +0.000 A 
ATOM      3  C   UNL     1       2.583   7.719  18.481  0.00  0.00    +0.000 A 
ATOM      4  C   UNL     1       1.653   8.550  19.241  0.00  0.00    +0.000 A 
ATOM      5  C   UNL     1       0.940   9.814  18.841  0.00  0.00    +0.000 A 
ATOM      6  O   UNL     1       1.543  10.332  17.936  0.00  0.00    +0.000 OA
ATOM      7  N   UNL     1       0.016  10.472  19.823  0.00  0.00    +0.000 N 
ATOM      8  C   UNL     1       1.091  11.001  20.455  0.00  0.00    +0.000 A 
ATOM      9  N   UNL     1       1.187   9.830  21.311  0.00  0.00    +0.000 NA
ATOM     10  C   UNL     1       1.417   8.344  20.547  0.00  0.00    +0.000 A 
ATOM     11  C   UNL     1       1.546   6.895  20.867  0.00  0.00    +0.000 A 
ATOM     12  C   UNL     1       0.446  12.580  19.717  0.00  0.00    +0.000 C 
ATOM     13  C   UNL     1      -0.656  14.048  19.524  0.00  0.00    +0.000 C 
ATOM     14  C   UNL     1      -1.954  14.413  20.735  0.00  0.00    +0.000 C 
ATOM     15  C   UNL     1      -1.421  13.051  21.355  0.00  0.00    +0.000 C 
ATOM     16  C   UNL     1      -1.096  11.255  21.010  0.00  0.00    +0.000 C 
ENDROOT
BRANCH   1  19
ATOM     17  N   UNL     1       3.831   3.896  19.860  0.00  0.00    +0.000 N 
ATOM     18  C   UNL     1       4.130   2.621  20.490  0.00  0.00    +0.000 C 
ATOM     19  C   UNL     1       2.608   4.531  20.351  0.00  0.00    +0.000 C 
ATOM     20  O   UNL     1       1.741   4.148  21.140  0.00  0.00    +0.000 OA
BRANCH  17  26
ATOM     21  C   UNL     1       4.922   4.160  17.482  0.00  0.00    +0.000 A 
ATOM     22  C   UNL     1       5.818   4.778  16.597  0.00  0.00    +0.000 A 
ATOM     23  C   UNL     1       6.856   5.526  17.095  0.00  0.00    +0.000 A 
ATOM     24  C   UNL     1       6.889   5.803  18.450  0.00  0.00    +0.000 A 
ATOM     25  C   UNL     1       5.926   5.258  19.321  0.00  0.00    +0.000 A 
ATOM     26  C   UNL     1       4.871   4.419  18.884  0.00  0.00    +0.000 A 
BRANCH  21  28
ATOM     27  C   UNL     1       2.621   3.340  16.974  0.00  0.00    +0.000 C 
ATOM     28  C   UNL     1       4.108   3.112  16.831  0.00  0.00    +0.000 C 
ENDBRANCH  21  28
ENDBRANCH  17  26
ENDBRANCH   1  19
TORSDOF 3
ENDMDL
