MODEL 1
REMARK VINA RESULT:      -7.6      0.000      0.000
REMARK  Name = 
REMARK  7 active torsions:
REMARK  status: ('A' for Active; 'I' for Inactive)
REMARK    1  A    between atoms: C_1  and  C_2
REMARK    2  A    between atoms: C_2  and  N_3
REMARK    3  A    between atoms: C_10  and  C_11
REMARK    4  A    between atoms: N_13  and  C_14
REMARK    5  A    between atoms: C_14  and  C_15
REMARK    6  A    between atoms: C_18  and  O_19
REMARK    7  A    between atoms: O_19  and  C_20
REMARK                            x       y       z     vdW  Elec       q    Type
REMARK                         _______ _______ _______ _____ _____    ______ ____
ROOT
ATOM      1  C   UNL     1       2.019   9.030  18.250  0.00  0.00    +0.000 C 
ATOM      2  O   UNL     1       2.449   9.959  17.582  0.00  0.00    +0.000 OA
ATOM      3  N   UNL     1       1.035   9.168  19.204  0.00  0.00    +0.000 N 
ATOM      4  H   UNL     1       0.770   8.390  19.788  0.00  0.00    +0.000 HD
ENDROOT
BRANCH   1  12
ATOM      5  N   UNL     1       1.559   4.206  18.971  0.00  0.00    +0.000 N 
ATOM      6  C   UNL     1       1.646   2.921  18.277  0.00  0.00    +0.000 C 
ATOM      7  C   UNL     1       3.056   2.353  18.276  0.00  0.00    +0.000 C 
ATOM      8  S   UNL     1       4.231   3.429  17.401  0.00  0.00    +0.000 S 
ATOM      9  C   UNL     1       3.523   5.045  17.735  0.00  0.00    +0.000 A 
ATOM     10  C   UNL     1       4.241   6.140  17.216  0.00  0.00    +0.000 A 
ATOM     11  C   UNL     1       3.778   7.445  17.380  0.00  0.00    +0.000 A 
ATOM     12  C   UNL     1       2.592   7.666  18.076  0.00  0.00    +0.000 A 
ATOM     13  C   UNL     1       1.900   6.583  18.636  0.00  0.00    +0.000 A 
ATOM     14  C   UNL     1       2.332   5.254  18.470  0.00  0.00    +0.000 A 
BRANCH   5  16
ATOM     15  C   UNL     1       2.079   3.828  21.368  0.00  0.00    +0.000 C 
ATOM     16  C   UNL     1       1.037   4.246  20.341  0.00  0.00    +0.000 C 
ENDBRANCH   5  16
ENDBRANCH   1  12
BRANCH   3  17
ATOM     17  C   UNL     1       0.404  10.445  19.475  0.00  0.00    +0.000 C 
BRANCH  17  18
ATOM     18  C   UNL     1      -0.883  10.582  18.701  0.00  0.00    +0.000 A 
ATOM     19  C   UNL     1      -1.869  11.495  19.093  0.00  0.00    +0.000 A 
ATOM     20  C   UNL     1      -3.060  11.597  18.369  0.00  0.00    +0.000 A 
ATOM     21  C   UNL     1      -3.277  10.812  17.236  0.00  0.00    +0.000 A 
ATOM     22  C   UNL     1      -2.297   9.905  16.836  0.00  0.00    +0.000 A 
ATOM     23  C   UNL     1      -1.106   9.795  17.560  0.00  0.00    +0.000 A 
BRANCH  21  24
ATOM     24  O   UNL     1      -4.490  10.985  16.630  0.00  0.00    +0.000 OA
ATOM     25  C   UNL     1      -5.367  11.915  17.256  0.00  0.00    +0.000 C 
ENDBRANCH  21  24
ENDBRANCH  17  18
ENDBRANCH   3  17
TORSDOF 5
ENDMDL
MODEL 2
REMARK VINA RESULT:      -7.5      1.083      1.501
REMARK  Name = 
REMARK  7 active torsions:
REMARK  status: ('A' for Active; 'I' for Inactive)
REMARK    1  A    between atoms: C_1  and  C_2
REMARK    2  A    between atoms: C_2  and  N_3
REMARK    3  A    between atoms: C_10  and  C_11
REMARK    4  A    between atoms: N_13  and  C_14
REMARK    5  A    between atoms: C_14  and  C_15
REMARK    6  A    between atoms: C_18  and  O_19
REMARK    7  A    between atoms: O_19  and  C_20
REMARK                            x       y       z     vdW  Elec       q    Type
REMARK                         _______ _______ _______ _____ _____    ______ ____
ROOT
ATOM      1  C   UNL     1       1.627   8.617  19.612  0.00  0.00    +0.000 C 
ATOM      2  O   UNL     1       1.368   8.649  20.806  0.00  0.00    +0.000 OA
ATOM      3  N   UNL     1       1.286   9.618  18.730  0.00  0.00    +0.000 N 
ATOM      4  H   UNL     1       1.447   9.511  17.740  0.00  0.00    +0.000 HD
ENDROOT
BRANCH   1  12
ATOM      5  N   UNL     1       2.338   3.771  19.717  0.00  0.00    +0.000 N 
ATOM      6  C   UNL     1       2.373   2.590  18.855  0.00  0.00    +0.000 C 
ATOM      7  C   UNL     1       3.748   2.347  18.253  0.00  0.00    +0.000 C 
ATOM      8  S   UNL     1       4.282   3.714  17.181  0.00  0.00    +0.000 S 
ATOM      9  C   UNL     1       3.487   5.107  17.990  0.00  0.00    +0.000 A 
ATOM     10  C   UNL     1       3.743   6.367  17.415  0.00  0.00    +0.000 A 
ATOM     11  C   UNL     1       3.159   7.524  17.932  0.00  0.00    +0.000 A 
ATOM     12  C   UNL     1       2.317   7.429  19.037  0.00  0.00    +0.000 A 
ATOM     13  C   UNL     1       2.099   6.182  19.642  0.00  0.00    +0.000 A 
ATOM     14  C   UNL     1       2.659   4.996  19.132  0.00  0.00    +0.000 A 
BRANCH   5  16
ATOM     15  C   UNL     1       1.383   2.571  21.668  0.00  0.00    +0.000 C 
ATOM     16  C   UNL     1       2.392   3.597  21.172  0.00  0.00    +0.000 C 
ENDBRANCH   5  16
ENDBRANCH   1  12
BRANCH   3  17
ATOM     17  C   UNL     1       0.604  10.822  19.164  0.00  0.00    +0.000 C 
BRANCH  17  18
ATOM     18  C   UNL     1      -0.816  10.845  18.658  0.00  0.00    +0.000 A 
ATOM     19  C   UNL     1      -1.233   9.985  17.634  0.00  0.00    +0.000 A 
ATOM     20  C   UNL     1      -2.550  10.030  17.171  0.00  0.00    +0.000 A 
ATOM     21  C   UNL     1      -3.475  10.912  17.733  0.00  0.00    +0.000 A 
ATOM     22  C   UNL     1      -3.069  11.767  18.757  0.00  0.00    +0.000 A 
ATOM     23  C   UNL     1      -1.750  11.729  19.220  0.00  0.00    +0.000 A 
BRANCH  21  24
ATOM     24  O   UNL     1      -4.723  10.880  17.177  0.00  0.00    +0.000 OA
ATOM     25  C   UNL     1      -5.805  11.118  18.070  0.00  0.00    +0.000 C 
ENDBRANCH  21  24
ENDBRANCH  17  18
ENDBRANCH   3  17
TORSDOF 5
ENDMDL
MODEL 3
REMARK VINA RESULT:      -7.4      1.035      1.051
REMARK  Name = 
REMARK  7 active torsions:
REMARK  status: ('A' for Active; 'I' for Inactive)
REMARK    1  A    between atoms: C_1  and  C_2
REMARK    2  A    between atoms: C_2  and  N_3
REMARK    3  A    between atoms: C_10  and  C_11
REMARK    4  A    between atoms: N_13  and  C_14
REMARK    5  A    between atoms: C_14  and  C_15
REMARK    6  A    between atoms: C_18  and  O_19
REMARK    7  A    between atoms: O_19  and  C_20
REMARK                            x       y       z     vdW  Elec       q    Type
REMARK                         _______ _______ _______ _____ _____    ______ ____
ROOT
ATOM      1  C   UNL     1       1.652   8.409  19.605  0.00  0.00    +0.000 C 
ATOM      2  O   UNL     1       1.454   8.527  20.806  0.00  0.00    +0.000 OA
ATOM      3  N   UNL     1       1.307   9.367  18.678  0.00  0.00    +0.000 N 
ATOM      4  H   UNL     1       1.415   9.192  17.691  0.00  0.00    +0.000 HD
ENDROOT
BRANCH   1  12
ATOM      5  N   UNL     1       1.575   3.516  19.384  0.00  0.00    +0.000 N 
ATOM      6  C   UNL     1       1.623   2.402  18.437  0.00  0.00    +0.000 C 
ATOM      7  C   UNL     1       3.045   1.966  18.120  0.00  0.00    +0.000 C 
ATOM      8  S   UNL     1       4.008   3.287  17.325  0.00  0.00    +0.000 S 
ATOM      9  C   UNL     1       3.273   4.742  18.079  0.00  0.00    +0.000 A 
ATOM     10  C   UNL     1       3.841   5.973  17.698  0.00  0.00    +0.000 A 
ATOM     11  C   UNL     1       3.338   7.178  18.189  0.00  0.00    +0.000 A 
ATOM     12  C   UNL     1       2.264   7.159  19.077  0.00  0.00    +0.000 A 
ATOM     13  C   UNL     1       1.729   5.933  19.496  0.00  0.00    +0.000 A 
ATOM     14  C   UNL     1       2.202   4.702  19.003  0.00  0.00    +0.000 A 
BRANCH   5  16
ATOM     15  C   UNL     1       2.504   2.816  21.576  0.00  0.00    +0.000 C 
ATOM     16  C   UNL     1       1.272   3.246  20.794  0.00  0.00    +0.000 C 
ENDBRANCH   5  16
ENDBRANCH   1  12
BRANCH   3  17
ATOM     17  C   UNL     1       0.696  10.624  19.065  0.00  0.00    +0.000 C 
BRANCH  17  18
ATOM     18  C   UNL     1      -0.720  10.711  18.555  0.00  0.00    +0.000 A 
ATOM     19  C   UNL     1      -1.623  11.640  19.085  0.00  0.00    +0.000 A 
ATOM     20  C   UNL     1      -2.935  11.696  18.607  0.00  0.00    +0.000 A 
ATOM     21  C   UNL     1      -3.359  10.848  17.583  0.00  0.00    +0.000 A 
ATOM     22  C   UNL     1      -2.463   9.924  17.046  0.00  0.00    +0.000 A 
ATOM     23  C   UNL     1      -1.151   9.861  17.525  0.00  0.00    +0.000 A 
BRANCH  21  24
ATOM     24  O   UNL     1      -4.670  10.981  17.221  0.00  0.00    +0.000 OA
ATOM     25  C   UNL     1      -5.479  11.755  18.100  0.00  0.00    +0.000 C 
ENDBRANCH  21  24
ENDBRANCH  17  18
ENDBRANCH   3  17
TORSDOF 5
ENDMDL
MODEL 4
REMARK VINA RESULT:      -7.2      2.799      4.361
REMARK  Name = 
REMARK  7 active torsions:
REMARK  status: ('A' for Active; 'I' for Inactive)
REMARK    1  A    between atoms: C_1  and  C_2
REMARK    2  A    between atoms: C_2  and  N_3
REMARK    3  A    between atoms: C_10  and  C_11
REMARK    4  A    between atoms: N_13  and  C_14
REMARK    5  A    between atoms: C_14  and  C_15
REMARK    6  A    between atoms: C_18  and  O_19
REMARK    7  A    between atoms: O_19  and  C_20
REMARK                            x       y       z     vdW  Elec       q    Type
REMARK                         _______ _______ _______ _____ _____    ______ ____
ROOT
ATOM      1  C   UNL     1       2.190   5.887  20.072  0.00  0.00    +0.000 C 
ATOM      2  O   UNL     1       1.657   5.106  20.848  0.00  0.00    +0.000 OA
ATOM      3  N   UNL     1       2.081   7.256  20.173  0.00  0.00    +0.000 N 
ATOM      4  H   UNL     1       2.469   7.858  19.463  0.00  0.00    +0.000 HD
ENDROOT
BRANCH   1  12
ATOM      5  N   UNL     1       6.338   6.025  17.469  0.00  0.00    +0.000 N 
ATOM      6  C   UNL     1       7.372   5.163  16.899  0.00  0.00    +0.000 C 
ATOM      7  C   UNL     1       7.018   4.671  15.504  0.00  0.00    +0.000 C 
ATOM      8  S   UNL     1       5.514   3.651  15.495  0.00  0.00    +0.000 S 
ATOM      9  C   UNL     1       4.590   4.401  16.841  0.00  0.00    +0.000 A 
ATOM     10  C   UNL     1       3.314   3.854  17.077  0.00  0.00    +0.000 A 
ATOM     11  C   UNL     1       2.511   4.328  18.115  0.00  0.00    +0.000 A 
ATOM     12  C   UNL     1       2.977   5.363  18.921  0.00  0.00    +0.000 A 
ATOM     13  C   UNL     1       4.227   5.943  18.658  0.00  0.00    +0.000 A 
ATOM     14  C   UNL     1       5.067   5.473  17.632  0.00  0.00    +0.000 A 
BRANCH   5  16
ATOM     15  C   UNL     1       7.930   7.883  17.884  0.00  0.00    +0.000 C 
ATOM     16  C   UNL     1       6.528   7.480  17.453  0.00  0.00    +0.000 C 
ENDBRANCH   5  16
ENDBRANCH   1  12
BRANCH   3  17
ATOM     17  C   UNL     1       1.335   7.888  21.243  0.00  0.00    +0.000 C 
BRANCH  17  18
ATOM     18  C   UNL     1       0.683   9.160  20.763  0.00  0.00    +0.000 A 
ATOM     19  C   UNL     1       0.887   9.630  19.460  0.00  0.00    +0.000 A 
ATOM     20  C   UNL     1       0.284  10.817  19.037  0.00  0.00    +0.000 A 
ATOM     21  C   UNL     1      -0.545  11.540  19.895  0.00  0.00    +0.000 A 
ATOM     22  C   UNL     1      -0.758  11.077  21.192  0.00  0.00    +0.000 A 
ATOM     23  C   UNL     1      -0.153   9.891  21.621  0.00  0.00    +0.000 A 
BRANCH  21  24
ATOM     24  O   UNL     1      -1.055  12.698  19.374  0.00  0.00    +0.000 OA
ATOM     25  C   UNL     1      -0.346  13.242  18.267  0.00  0.00    +0.000 C 
ENDBRANCH  21  24
ENDBRANCH  17  18
ENDBRANCH   3  17
TORSDOF 5
ENDMDL
MODEL 5
REMARK VINA RESULT:      -7.1      2.744      4.203
REMARK  Name = 
REMARK  7 active torsions:
REMARK  status: ('A' for Active; 'I' for Inactive)
REMARK    1  A    between atoms: C_1  and  C_2
REMARK    2  A    between atoms: C_2  and  N_3
REMARK    3  A    between atoms: C_10  and  C_11
REMARK    4  A    between atoms: N_13  and  C_14
REMARK    5  A    between atoms: C_14  and  C_15
REMARK    6  A    between atoms: C_18  and  O_19
REMARK    7  A    between atoms: O_19  and  C_20
REMARK                            x       y       z     vdW  Elec       q    Type
REMARK                         _______ _______ _______ _____ _____    ______ ____
ROOT
ATOM      1  C   UNL     1       2.207   5.946  19.994  0.00  0.00    +0.000 C 
ATOM      2  O   UNL     1       1.639   5.196  20.776  0.00  0.00    +0.000 OA
ATOM      3  N   UNL     1       2.138   7.320  20.069  0.00  0.00    +0.000 N 
ATOM      4  H   UNL     1       2.554   7.896  19.354  0.00  0.00    +0.000 HD
ENDROOT
BRANCH   1  12
ATOM      5  N   UNL     1       6.358   5.980  17.393  0.00  0.00    +0.000 N 
ATOM      6  C   UNL     1       7.392   5.096  16.858  0.00  0.00    +0.000 C 
ATOM      7  C   UNL     1       7.040   4.551  15.483  0.00  0.00    +0.000 C 
ATOM      8  S   UNL     1       5.534   3.532  15.512  0.00  0.00    +0.000 S 
ATOM      9  C   UNL     1       4.609   4.335  16.826  0.00  0.00    +0.000 A 
ATOM     10  C   UNL     1       3.332   3.799  17.081  0.00  0.00    +0.000 A 
ATOM     11  C   UNL     1       2.529   4.313  18.099  0.00  0.00    +0.000 A 
ATOM     12  C   UNL     1       2.995   5.378  18.866  0.00  0.00    +0.000 A 
ATOM     13  C   UNL     1       4.245   5.946  18.582  0.00  0.00    +0.000 A 
ATOM     14  C   UNL     1       5.086   5.436  17.575  0.00  0.00    +0.000 A 
BRANCH   5  16
ATOM     15  C   UNL     1       7.903   7.864  17.866  0.00  0.00    +0.000 C 
ATOM     16  C   UNL     1       6.549   7.433  17.321  0.00  0.00    +0.000 C 
ENDBRANCH   5  16
ENDBRANCH   1  12
BRANCH   3  17
ATOM     17  C   UNL     1       1.395   7.994  21.115  0.00  0.00    +0.000 C 
BRANCH  17  18
ATOM     18  C   UNL     1       0.703   9.220  20.576  0.00  0.00    +0.000 A 
ATOM     19  C   UNL     1      -0.081  10.032  21.406  0.00  0.00    +0.000 A 
ATOM     20  C   UNL     1      -0.724  11.157  20.885  0.00  0.00    +0.000 A 
ATOM     21  C   UNL     1      -0.579  11.503  19.540  0.00  0.00    +0.000 A 
ATOM     22  C   UNL     1       0.204  10.703  18.709  0.00  0.00    +0.000 A 
ATOM     23  C   UNL     1       0.845   9.573  19.226  0.00  0.00    +0.000 A 
BRANCH  21  24
ATOM     24  O   UNL     1      -1.279  12.609  19.144  0.00  0.00    +0.000 OA
ATOM     25  C   UNL     1      -1.325  13.680  20.081  0.00  0.00    +0.000 C 
ENDBRANCH  21  24
ENDBRANCH  17  18
ENDBRANCH   3  17
TORSDOF 5
ENDMDL
MODEL 6
REMARK VINA RESULT:      -7.0      1.561      2.719
REMARK  Name = 
REMARK  7 active torsions:
REMARK  status: ('A' for Active; 'I' for Inactive)
REMARK    1  A    between atoms: C_1  and  C_2
REMARK    2  A    between atoms: C_2  and  N_3
REMARK    3  A    between atoms: C_10  and  C_11
REMARK    4  A    between atoms: N_13  and  C_14
REMARK    5  A    between atoms: C_14  and  C_15
REMARK    6  A    between atoms: C_18  and  O_19
REMARK    7  A    between atoms: O_19  and  C_20
REMARK                            x       y       z     vdW  Elec       q    Type
REMARK                         _______ _______ _______ _____ _____    ______ ____
ROOT
ATOM      1  C   UNL     1       1.968   8.548  18.529  0.00  0.00    +0.000 C 
ATOM      2  O   UNL     1       2.399   8.819  17.417  0.00  0.00    +0.000 OA
ATOM      3  N   UNL     1       1.314   9.453  19.336  0.00  0.00    +0.000 N 
ATOM      4  H   UNL     1       1.050   9.207  20.277  0.00  0.00    +0.000 HD
ENDROOT
BRANCH   1  12
ATOM      5  N   UNL     1       4.228   4.215  18.186  0.00  0.00    +0.000 N 
ATOM      6  C   UNL     1       4.989   3.244  18.971  0.00  0.00    +0.000 C 
ATOM      7  C   UNL     1       4.094   2.238  19.679  0.00  0.00    +0.000 C 
ATOM      8  S   UNL     1       2.982   3.031  20.879  0.00  0.00    +0.000 S 
ATOM      9  C   UNL     1       2.713   4.622  20.090  0.00  0.00    +0.000 A 
ATOM     10  C   UNL     1       1.832   5.490  20.764  0.00  0.00    +0.000 A 
ATOM     11  C   UNL     1       1.566   6.767  20.270  0.00  0.00    +0.000 A 
ATOM     12  C   UNL     1       2.175   7.183  19.088  0.00  0.00    +0.000 A 
ATOM     13  C   UNL     1       3.014   6.304  18.389  0.00  0.00    +0.000 A 
ATOM     14  C   UNL     1       3.317   5.017  18.873  0.00  0.00    +0.000 A 
BRANCH   5  16
ATOM     15  C   UNL     1       5.340   4.588  15.998  0.00  0.00    +0.000 C 
ATOM     16  C   UNL     1       4.126   4.039  16.733  0.00  0.00    +0.000 C 
ENDBRANCH   5  16
ENDBRANCH   1  12
BRANCH   3  17
ATOM     17  C   UNL     1       1.059  10.815  18.909  0.00  0.00    +0.000 C 
BRANCH  17  18
ATOM     18  C   UNL     1      -0.421  11.064  18.770  0.00  0.00    +0.000 A 
ATOM     19  C   UNL     1      -1.199  10.320  17.874  0.00  0.00    +0.000 A 
ATOM     20  C   UNL     1      -2.567  10.574  17.752  0.00  0.00    +0.000 A 
ATOM     21  C   UNL     1      -3.184  11.554  18.531  0.00  0.00    +0.000 A 
ATOM     22  C   UNL     1      -2.418  12.295  19.430  0.00  0.00    +0.000 A 
ATOM     23  C   UNL     1      -1.047  12.047  19.552  0.00  0.00    +0.000 A 
BRANCH  21  24
ATOM     24  O   UNL     1      -4.520  11.726  18.300  0.00  0.00    +0.000 OA
ATOM     25  C   UNL     1      -4.925  11.670  16.937  0.00  0.00    +0.000 C 
ENDBRANCH  21  24
ENDBRANCH  17  18
ENDBRANCH   3  17
TORSDOF 5
ENDMDL
MODEL 7
REMARK VINA RESULT:      -7.0      3.711      8.461
REMARK  Name = 
REMARK  7 active torsions:
REMARK  status: ('A' for Active; 'I' for Inactive)
REMARK    1  A    between atoms: C_1  and  C_2
REMARK    2  A    between atoms: C_2  and  N_3
REMARK    3  A    between atoms: C_10  and  C_11
REMARK    4  A    between atoms: N_13  and  C_14
REMARK    5  A    between atoms: C_14  and  C_15
REMARK    6  A    between atoms: C_18  and  O_19
REMARK    7  A    between atoms: O_19  and  C_20
REMARK                            x       y       z     vdW  Elec       q    Type
REMARK                         _______ _______ _______ _____ _____    ______ ____
ROOT
ATOM      1  C   UNL     1       2.620   6.139  19.190  0.00  0.00    +0.000 C 
ATOM      2  O   UNL     1       2.205   5.679  18.136  0.00  0.00    +0.000 OA
ATOM      3  N   UNL     1       3.658   5.586  19.907  0.00  0.00    +0.000 N 
ATOM      4  H   UNL     1       3.912   5.952  20.812  0.00  0.00    +0.000 HD
ENDROOT
BRANCH   1  12
ATOM      5  N   UNL     1       1.127  10.767  18.598  0.00  0.00    +0.000 N 
ATOM      6  C   UNL     1      -0.028  11.642  18.797  0.00  0.00    +0.000 C 
ATOM      7  C   UNL     1      -0.058  12.262  20.185  0.00  0.00    +0.000 C 
ATOM      8  S   UNL     1      -0.200  11.010  21.495  0.00  0.00    +0.000 S 
ATOM      9  C   UNL     1       0.683   9.636  20.746  0.00  0.00    +0.000 A 
ATOM     10  C   UNL     1       0.798   8.483  21.546  0.00  0.00    +0.000 A 
ATOM     11  C   UNL     1       1.433   7.337  21.066  0.00  0.00    +0.000 A 
ATOM     12  C   UNL     1       1.968   7.341  19.779  0.00  0.00    +0.000 A 
ATOM     13  C   UNL     1       1.898   8.503  18.999  0.00  0.00    +0.000 A 
ATOM     14  C   UNL     1       1.247   9.667  19.449  0.00  0.00    +0.000 A 
BRANCH   5  16
ATOM     15  C   UNL     1       2.580  12.730  18.157  0.00  0.00    +0.000 C 
ATOM     16  C   UNL     1       2.286  11.268  17.852  0.00  0.00    +0.000 C 
ENDBRANCH   5  16
ENDBRANCH   1  12
BRANCH   3  17
ATOM     17  C   UNL     1       4.369   4.410  19.444  0.00  0.00    +0.000 C 
BRANCH  17  18
ATOM     18  C   UNL     1       5.226   4.739  18.248  0.00  0.00    +0.000 A 
ATOM     19  C   UNL     1       5.002   4.128  17.008  0.00  0.00    +0.000 A 
ATOM     20  C   UNL     1       5.815   4.437  15.915  0.00  0.00    +0.000 A 
ATOM     21  C   UNL     1       6.845   5.371  16.033  0.00  0.00    +0.000 A 
ATOM     22  C   UNL     1       7.071   5.988  17.262  0.00  0.00    +0.000 A 
ATOM     23  C   UNL     1       6.262   5.678  18.361  0.00  0.00    +0.000 A 
BRANCH  21  24
ATOM     24  O   UNL     1       7.586   5.568  14.901  0.00  0.00    +0.000 OA
ATOM     25  C   UNL     1       7.184   4.818  13.760  0.00  0.00    +0.000 C 
ENDBRANCH  21  24
ENDBRANCH  17  18
ENDBRANCH   3  17
TORSDOF 5
ENDMDL
MODEL 8
REMARK VINA RESULT:      -7.0      1.886      3.186
REMARK  Name = 
REMARK  7 active torsions:
REMARK  status: ('A' for Active; 'I' for Inactive)
REMARK    1  A    between atoms: C_1  and  C_2
REMARK    2  A    between atoms: C_2  and  N_3
REMARK    3  A    between atoms: C_10  and  C_11
REMARK    4  A    between atoms: N_13  and  C_14
REMARK    5  A    between atoms: C_14  and  C_15
REMARK    6  A    between atoms: C_18  and  O_19
REMARK    7  A    between atoms: O_19  and  C_20
REMARK                            x       y       z     vdW  Elec       q    Type
REMARK                         _______ _______ _______ _____ _____    ______ ____
ROOT
ATOM      1  C   UNL     1       1.027   8.263  20.674  0.00  0.00    +0.000 C 
ATOM      2  O   UNL     1       0.339   8.319  21.683  0.00  0.00    +0.000 OA
ATOM      3  N   UNL     1       1.146   9.299  19.773  0.00  0.00    +0.000 N 
ATOM      4  H   UNL     1       1.659   9.178  18.914  0.00  0.00    +0.000 HD
ENDROOT
BRANCH   1  12
ATOM      5  N   UNL     1       4.660   6.097  18.202  0.00  0.00    +0.000 N 
ATOM      6  C   UNL     1       5.787   5.181  18.372  0.00  0.00    +0.000 C 
ATOM      7  C   UNL     1       5.383   3.724  18.210  0.00  0.00    +0.000 C 
ATOM      8  S   UNL     1       4.172   3.201  19.460  0.00  0.00    +0.000 S 
ATOM      9  C   UNL     1       3.277   4.736  19.725  0.00  0.00    +0.000 A 
ATOM     10  C   UNL     1       2.206   4.662  20.636  0.00  0.00    +0.000 A 
ATOM     11  C   UNL     1       1.453   5.793  20.952  0.00  0.00    +0.000 A 
ATOM     12  C   UNL     1       1.762   7.010  20.349  0.00  0.00    +0.000 A 
ATOM     13  C   UNL     1       2.796   7.076  19.405  0.00  0.00    +0.000 A 
ATOM     14  C   UNL     1       3.585   5.957  19.081  0.00  0.00    +0.000 A 
BRANCH   5  16
ATOM     15  C   UNL     1       5.246   6.124  15.790  0.00  0.00    +0.000 C 
ATOM     16  C   UNL     1       4.499   6.806  16.927  0.00  0.00    +0.000 C 
ENDBRANCH   5  16
ENDBRANCH   1  12
BRANCH   3  17
ATOM     17  C   UNL     1       0.473  10.568  19.971  0.00  0.00    +0.000 C 
BRANCH  17  18
ATOM     18  C   UNL     1      -0.709  10.697  19.045  0.00  0.00    +0.000 A 
ATOM     19  C   UNL     1      -0.804   9.925  17.881  0.00  0.00    +0.000 A 
ATOM     20  C   UNL     1      -1.902  10.068  17.029  0.00  0.00    +0.000 A 
ATOM     21  C   UNL     1      -2.929  10.962  17.334  0.00  0.00    +0.000 A 
ATOM     22  C   UNL     1      -2.846  11.730  18.494  0.00  0.00    +0.000 A 
ATOM     23  C   UNL     1      -1.746  11.594  19.347  0.00  0.00    +0.000 A 
BRANCH  21  24
ATOM     24  O   UNL     1      -3.935  11.031  16.410  0.00  0.00    +0.000 OA
ATOM     25  C   UNL     1      -3.638  10.483  15.130  0.00  0.00    +0.000 C 
ENDBRANCH  21  24
ENDBRANCH  17  18
ENDBRANCH   3  17
TORSDOF 5
ENDMDL
MODEL 9
REMARK VINA RESULT:      -7.0      1.498      2.489
REMARK  Name = 
REMARK  7 active torsions:
REMARK  status: ('A' for Active; 'I' for Inactive)
REMARK    1  A    between atoms: C_1  and  C_2
REMARK    2  A    between atoms: C_2  and  N_3
REMARK    3  A    between atoms: C_10  and  C_11
REMARK    4  A    between atoms: N_13  and  C_14
REMARK    5  A    between atoms: C_14  and  C_15
REMARK    6  A    between atoms: C_18  and  O_19
REMARK    7  A    between atoms: O_19  and  C_20
REMARK                            x       y       z     vdW  Elec       q    Type
REMARK                         _______ _______ _______ _____ _____    ______ ____
ROOT
ATOM      1  C   UNL     1       1.859   8.586  18.812  0.00  0.00    +0.000 C 
ATOM      2  O   UNL     1       2.512   9.021  17.874  0.00  0.00    +0.000 OA
ATOM      3  N   UNL     1       0.913   9.323  19.490  0.00  0.00    +0.000 N 
ATOM      4  H   UNL     1       0.459   8.950  20.309  0.00  0.00    +0.000 HD
ENDROOT
BRANCH   1  12
ATOM      5  N   UNL     1       4.276   4.357  18.287  0.00  0.00    +0.000 N 
ATOM      6  C   UNL     1       5.049   3.368  19.037  0.00  0.00    +0.000 C 
ATOM      7  C   UNL     1       4.172   2.295  19.663  0.00  0.00    +0.000 C 
ATOM      8  S   UNL     1       3.003   2.980  20.874  0.00  0.00    +0.000 S 
ATOM      9  C   UNL     1       2.700   4.604  20.169  0.00  0.00    +0.000 A 
ATOM     10  C   UNL     1       1.772   5.402  20.866  0.00  0.00    +0.000 A 
ATOM     11  C   UNL     1       1.475   6.696  20.438  0.00  0.00    +0.000 A 
ATOM     12  C   UNL     1       2.099   7.199  19.299  0.00  0.00    +0.000 A 
ATOM     13  C   UNL     1       2.985   6.389  18.575  0.00  0.00    +0.000 A 
ATOM     14  C   UNL     1       3.320   5.088  18.993  0.00  0.00    +0.000 A 
BRANCH   5  16
ATOM     15  C   UNL     1       5.599   4.157  16.197  0.00  0.00    +0.000 C 
ATOM     16  C   UNL     1       4.217   4.261  16.824  0.00  0.00    +0.000 C 
ENDBRANCH   5  16
ENDBRANCH   1  12
BRANCH   3  17
ATOM     17  C   UNL     1       0.595  10.688  19.118  0.00  0.00    +0.000 C 
BRANCH  17  18
ATOM     18  C   UNL     1      -0.810  10.782  18.578  0.00  0.00    +0.000 A 
ATOM     19  C   UNL     1      -1.723  11.708  19.097  0.00  0.00    +0.000 A 
ATOM     20  C   UNL     1      -3.024  11.771  18.592  0.00  0.00    +0.000 A 
ATOM     21  C   UNL     1      -3.427  10.933  17.551  0.00  0.00    +0.000 A 
ATOM     22  C   UNL     1      -2.522  10.013  17.025  0.00  0.00    +0.000 A 
ATOM     23  C   UNL     1      -1.220   9.943  17.532  0.00  0.00    +0.000 A 
BRANCH  21  24
ATOM     24  O   UNL     1      -4.730  11.073  17.162  0.00  0.00    +0.000 OA
ATOM     25  C   UNL     1      -5.563  11.817  18.044  0.00  0.00    +0.000 C 
ENDBRANCH  21  24
ENDBRANCH  17  18
ENDBRANCH   3  17
TORSDOF 5
ENDMDL
