MODEL 1
REMARK VINA RESULT:      -6.9      0.000      0.000
REMARK  Name = 
REMARK  9 active torsions:
REMARK  status: ('A' for Active; 'I' for Inactive)
REMARK    1  A    between atoms: C_1  and  O_2
REMARK    2  A    between atoms: O_2  and  C_3
REMARK    3  A    between atoms: C_13  and  C_15
REMARK    4  A    between atoms: C_17  and  O_18
REMARK    5  A    between atoms: O_18  and  C_19
REMARK    6  A    between atoms: C_20  and  O_21
REMARK    7  A    between atoms: O_21  and  C_22
REMARK    8  A    between atoms: C_23  and  O_24
REMARK    9  A    between atoms: O_24  and  C_25
REMARK                            x       y       z     vdW  Elec       q    Type
REMARK                         _______ _______ _______ _____ _____    ______ ____
ROOT
ATOM      1  C   UNL     1       4.078   5.307  18.754  0.00  0.00    +0.000 A 
ATOM      2  C   UNL     1       4.167   6.257  17.717  0.00  0.00    +0.000 A 
ATOM      3  C   UNL     1       3.376   7.408  17.733  0.00  0.00    +0.000 A 
ATOM      4  C   UNL     1       2.516   7.580  18.800  0.00  0.00    +0.000 A 
ATOM      5  C   UNL     1       2.438   6.656  19.819  0.00  0.00    +0.000 A 
ATOM      6  C   UNL     1       3.193   5.502  19.817  0.00  0.00    +0.000 A 
ATOM      7  O   UNL     1       1.527   6.998  20.798  0.00  0.00    +0.000 OA
ATOM      8  C   UNL     1       1.019   8.214  20.323  0.00  0.00    +0.000 A 
ATOM      9  O   UNL     1       0.199   8.863  20.960  0.00  0.00    +0.000 OA
ATOM     10  N   UNL     1       1.558   8.537  19.071  0.00  0.00    +0.000 N 
ATOM     11  C   UNL     1       1.325   9.660  18.292  0.00  0.00    +0.000 C 
ATOM     12  O   UNL     1       2.172  10.207  17.590  0.00  0.00    +0.000 OA
ENDROOT
BRANCH  11  13
ATOM     13  C   UNL     1      -0.057  10.218  18.282  0.00  0.00    +0.000 A 
ATOM     14  C   UNL     1      -0.343  11.309  19.099  0.00  0.00    +0.000 A 
ATOM     15  C   UNL     1      -1.601  11.917  19.043  0.00  0.00    +0.000 A 
ATOM     16  C   UNL     1      -2.597  11.413  18.172  0.00  0.00    +0.000 A 
ATOM     17  C   UNL     1      -2.304  10.309  17.343  0.00  0.00    +0.000 A 
ATOM     18  C   UNL     1      -1.026   9.738  17.396  0.00  0.00    +0.000 A 
BRANCH  15  19
ATOM     19  O   UNL     1      -1.932  12.998  19.829  0.00  0.00    +0.000 OA
ATOM     20  C   UNL     1      -1.530  12.923  21.195  0.00  0.00    +0.000 C 
ENDBRANCH  15  19
BRANCH  16  21
ATOM     21  O   UNL     1      -3.823  12.037  18.261  0.00  0.00    +0.000 OA
ATOM     22  C   UNL     1      -4.944  11.246  18.637  0.00  0.00    +0.000 C 
ENDBRANCH  16  21
BRANCH  17  23
ATOM     23  O   UNL     1      -3.288   9.825  16.522  0.00  0.00    +0.000 OA
ATOM     24  C   UNL     1      -3.135   9.963  15.114  0.00  0.00    +0.000 C 
ENDBRANCH  17  23
ENDBRANCH  11  13
BRANCH   1  26
ATOM     25  C   UNL     1       3.985   2.959  18.974  0.00  0.00    +0.000 C 
ATOM     26  O   UNL     1       4.773   4.130  18.796  0.00  0.00    +0.000 OA
ENDBRANCH   1  26
TORSDOF 5
ENDMDL
MODEL 2
REMARK VINA RESULT:      -6.9      1.441      2.827
REMARK  Name = 
REMARK  9 active torsions:
REMARK  status: ('A' for Active; 'I' for Inactive)
REMARK    1  A    between atoms: C_1  and  O_2
REMARK    2  A    between atoms: O_2  and  C_3
REMARK    3  A    between atoms: C_13  and  C_15
REMARK    4  A    between atoms: C_17  and  O_18
REMARK    5  A    between atoms: O_18  and  C_19
REMARK    6  A    between atoms: C_20  and  O_21
REMARK    7  A    between atoms: O_21  and  C_22
REMARK    8  A    between atoms: C_23  and  O_24
REMARK    9  A    between atoms: O_24  and  C_25
REMARK                            x       y       z     vdW  Elec       q    Type
REMARK                         _______ _______ _______ _____ _____    ______ ____
ROOT
ATOM      1  C   UNL     1       3.066   3.708  19.090  0.00  0.00    +0.000 A 
ATOM      2  C   UNL     1       3.277   4.421  17.893  0.00  0.00    +0.000 A 
ATOM      3  C   UNL     1       2.981   5.783  17.810  0.00  0.00    +0.000 A 
ATOM      4  C   UNL     1       2.483   6.401  18.942  0.00  0.00    +0.000 A 
ATOM      5  C   UNL     1       2.288   5.704  20.115  0.00  0.00    +0.000 A 
ATOM      6  C   UNL     1       2.554   4.356  20.217  0.00  0.00    +0.000 A 
ATOM      7  O   UNL     1       1.788   6.488  21.137  0.00  0.00    +0.000 OA
ATOM      8  C   UNL     1       1.670   7.742  20.524  0.00  0.00    +0.000 A 
ATOM      9  O   UNL     1       1.293   8.728  21.143  0.00  0.00    +0.000 OA
ATOM     10  N   UNL     1       2.017   7.680  19.168  0.00  0.00    +0.000 N 
ATOM     11  C   UNL     1       2.052   8.707  18.237  0.00  0.00    +0.000 C 
ATOM     12  O   UNL     1       2.875   8.793  17.328  0.00  0.00    +0.000 OA
ENDROOT
BRANCH  11  13
ATOM     13  C   UNL     1       0.998   9.756  18.327  0.00  0.00    +0.000 A 
ATOM     14  C   UNL     1      -0.292   9.445  17.905  0.00  0.00    +0.000 A 
ATOM     15  C   UNL     1      -1.326  10.373  18.064  0.00  0.00    +0.000 A 
ATOM     16  C   UNL     1      -1.062  11.642  18.635  0.00  0.00    +0.000 A 
ATOM     17  C   UNL     1       0.246  11.955  19.063  0.00  0.00    +0.000 A 
ATOM     18  C   UNL     1       1.257  10.995  18.921  0.00  0.00    +0.000 A 
BRANCH  15  19
ATOM     19  O   UNL     1      -2.617  10.112  17.665  0.00  0.00    +0.000 OA
ATOM     20  C   UNL     1      -2.812   9.928  16.265  0.00  0.00    +0.000 C 
ENDBRANCH  15  19
BRANCH  16  21
ATOM     21  O   UNL     1      -2.136  12.505  18.665  0.00  0.00    +0.000 OA
ATOM     22  C   UNL     1      -2.856  12.624  19.886  0.00  0.00    +0.000 C 
ENDBRANCH  16  21
BRANCH  17  23
ATOM     23  O   UNL     1       0.485  13.195  19.594  0.00  0.00    +0.000 OA
ATOM     24  C   UNL     1       1.084  14.188  18.772  0.00  0.00    +0.000 C 
ENDBRANCH  17  23
ENDBRANCH  11  13
BRANCH   1  26
ATOM     25  C   UNL     1       3.501   1.637  18.046  0.00  0.00    +0.000 C 
ATOM     26  O   UNL     1       3.278   2.366  19.247  0.00  0.00    +0.000 OA
ENDBRANCH   1  26
TORSDOF 5
ENDMDL
MODEL 3
REMARK VINA RESULT:      -6.8      1.977      8.160
REMARK  Name = 
REMARK  9 active torsions:
REMARK  status: ('A' for Active; 'I' for Inactive)
REMARK    1  A    between atoms: C_1  and  O_2
REMARK    2  A    between atoms: O_2  and  C_3
REMARK    3  A    between atoms: C_13  and  C_15
REMARK    4  A    between atoms: C_17  and  O_18
REMARK    5  A    between atoms: O_18  and  C_19
REMARK    6  A    between atoms: C_20  and  O_21
REMARK    7  A    between atoms: O_21  and  C_22
REMARK    8  A    between atoms: C_23  and  O_24
REMARK    9  A    between atoms: O_24  and  C_25
REMARK                            x       y       z     vdW  Elec       q    Type
REMARK                         _______ _______ _______ _____ _____    ______ ____
ROOT
ATOM      1  C   UNL     1      -0.840  11.340  19.372  0.00  0.00    +0.000 A 
ATOM      2  C   UNL     1      -0.798  10.525  20.520  0.00  0.00    +0.000 A 
ATOM      3  C   UNL     1       0.106   9.465  20.611  0.00  0.00    +0.000 A 
ATOM      4  C   UNL     1       0.956   9.253  19.543  0.00  0.00    +0.000 A 
ATOM      5  C   UNL     1       0.921  10.058  18.425  0.00  0.00    +0.000 A 
ATOM      6  C   UNL     1       0.025  11.098  18.301  0.00  0.00    +0.000 A 
ATOM      7  O   UNL     1       1.844   9.697  17.464  0.00  0.00    +0.000 OA
ATOM      8  C   UNL     1       2.470   8.590  18.050  0.00  0.00    +0.000 A 
ATOM      9  O   UNL     1       3.400   8.010  17.503  0.00  0.00    +0.000 OA
ATOM     10  N   UNL     1       1.884   8.266  19.281  0.00  0.00    +0.000 N 
ATOM     11  C   UNL     1       2.234   7.260  20.167  0.00  0.00    +0.000 C 
ATOM     12  O   UNL     1       2.168   7.357  21.391  0.00  0.00    +0.000 OA
ENDROOT
BRANCH  11  13
ATOM     13  C   UNL     1       2.689   5.962  19.594  0.00  0.00    +0.000 A 
ATOM     14  C   UNL     1       1.742   5.114  19.025  0.00  0.00    +0.000 A 
ATOM     15  C   UNL     1       2.145   3.934  18.393  0.00  0.00    +0.000 A 
ATOM     16  C   UNL     1       3.517   3.583  18.347  0.00  0.00    +0.000 A 
ATOM     17  C   UNL     1       4.475   4.445  18.922  0.00  0.00    +0.000 A 
ATOM     18  C   UNL     1       4.047   5.637  19.522  0.00  0.00    +0.000 A 
BRANCH  15  19
ATOM     19  O   UNL     1       1.247   3.064  17.815  0.00  0.00    +0.000 OA
ATOM     20  C   UNL     1       0.483   2.267  18.716  0.00  0.00    +0.000 C 
ENDBRANCH  15  19
BRANCH  16  21
ATOM     21  O   UNL     1       3.789   2.360  17.774  0.00  0.00    +0.000 OA
ATOM     22  C   UNL     1       3.923   1.238  18.639  0.00  0.00    +0.000 C 
ENDBRANCH  16  21
BRANCH  17  23
ATOM     23  O   UNL     1       5.794   4.078  18.884  0.00  0.00    +0.000 OA
ATOM     24  C   UNL     1       6.624   4.611  17.859  0.00  0.00    +0.000 C 
ENDBRANCH  17  23
ENDBRANCH  11  13
BRANCH   1  26
ATOM     25  C   UNL     1      -1.448  13.560  19.892  0.00  0.00    +0.000 C 
ATOM     26  O   UNL     1      -1.725  12.364  19.173  0.00  0.00    +0.000 OA
ENDBRANCH   1  26
TORSDOF 5
ENDMDL
MODEL 4
REMARK VINA RESULT:      -6.8      0.896      2.651
REMARK  Name = 
REMARK  9 active torsions:
REMARK  status: ('A' for Active; 'I' for Inactive)
REMARK    1  A    between atoms: C_1  and  O_2
REMARK    2  A    between atoms: O_2  and  C_3
REMARK    3  A    between atoms: C_13  and  C_15
REMARK    4  A    between atoms: C_17  and  O_18
REMARK    5  A    between atoms: O_18  and  C_19
REMARK    6  A    between atoms: C_20  and  O_21
REMARK    7  A    between atoms: O_21  and  C_22
REMARK    8  A    between atoms: C_23  and  O_24
REMARK    9  A    between atoms: O_24  and  C_25
REMARK                            x       y       z     vdW  Elec       q    Type
REMARK                         _______ _______ _______ _____ _____    ______ ____
ROOT
ATOM      1  C   UNL     1       3.608   4.644  18.590  0.00  0.00    +0.000 A 
ATOM      2  C   UNL     1       3.779   5.566  17.539  0.00  0.00    +0.000 A 
ATOM      3  C   UNL     1       3.240   6.851  17.621  0.00  0.00    +0.000 A 
ATOM      4  C   UNL     1       2.544   7.183  18.768  0.00  0.00    +0.000 A 
ATOM      5  C   UNL     1       2.387   6.283  19.800  0.00  0.00    +0.000 A 
ATOM      6  C   UNL     1       2.892   5.002  19.735  0.00  0.00    +0.000 A 
ATOM      7  O   UNL     1       1.667   6.792  20.862  0.00  0.00    +0.000 OA
ATOM      8  C   UNL     1       1.366   8.089  20.427  0.00  0.00    +0.000 A 
ATOM      9  O   UNL     1       0.761   8.882  21.136  0.00  0.00    +0.000 OA
ATOM     10  N   UNL     1       1.829   8.309  19.123  0.00  0.00    +0.000 N 
ATOM     11  C   UNL     1       1.747   9.462  18.359  0.00  0.00    +0.000 C 
ATOM     12  O   UNL     1       2.611   9.836  17.568  0.00  0.00    +0.000 OA
ENDROOT
BRANCH  11  13
ATOM     13  C   UNL     1       0.511  10.285  18.483  0.00  0.00    +0.000 A 
ATOM     14  C   UNL     1      -0.671   9.803  17.926  0.00  0.00    +0.000 A 
ATOM     15  C   UNL     1      -1.869  10.502  18.106  0.00  0.00    +0.000 A 
ATOM     16  C   UNL     1      -1.882  11.716  18.836  0.00  0.00    +0.000 A 
ATOM     17  C   UNL     1      -0.684  12.201  19.401  0.00  0.00    +0.000 A 
ATOM     18  C   UNL     1       0.497  11.465  19.233  0.00  0.00    +0.000 A 
BRANCH  15  19
ATOM     19  O   UNL     1      -3.063  10.066  17.577  0.00  0.00    +0.000 OA
ATOM     20  C   UNL     1      -3.082   9.858  16.167  0.00  0.00    +0.000 C 
ENDBRANCH  15  19
BRANCH  16  21
ATOM     21  O   UNL     1      -3.099  12.360  18.878  0.00  0.00    +0.000 OA
ATOM     22  C   UNL     1      -3.764  12.440  20.133  0.00  0.00    +0.000 C 
ENDBRANCH  16  21
BRANCH  17  23
ATOM     23  O   UNL     1      -0.714  13.387  20.087  0.00  0.00    +0.000 OA
ATOM     24  C   UNL     1      -0.347  13.392  21.461  0.00  0.00    +0.000 C 
ENDBRANCH  17  23
ENDBRANCH  11  13
BRANCH   1  26
ATOM     25  C   UNL     1       3.969   2.659  19.816  0.00  0.00    +0.000 C 
ATOM     26  O   UNL     1       4.055   3.351  18.575  0.00  0.00    +0.000 OA
ENDBRANCH   1  26
TORSDOF 5
ENDMDL
MODEL 5
REMARK VINA RESULT:      -6.7      1.267      1.403
REMARK  Name = 
REMARK  9 active torsions:
REMARK  status: ('A' for Active; 'I' for Inactive)
REMARK    1  A    between atoms: C_1  and  O_2
REMARK    2  A    between atoms: O_2  and  C_3
REMARK    3  A    between atoms: C_13  and  C_15
REMARK    4  A    between atoms: C_17  and  O_18
REMARK    5  A    between atoms: O_18  and  C_19
REMARK    6  A    between atoms: C_20  and  O_21
REMARK    7  A    between atoms: O_21  and  C_22
REMARK    8  A    between atoms: C_23  and  O_24
REMARK    9  A    between atoms: O_24  and  C_25
REMARK                            x       y       z     vdW  Elec       q    Type
REMARK                         _______ _______ _______ _____ _____    ______ ____
ROOT
ATOM      1  C   UNL     1       3.565   4.236  18.525  0.00  0.00    +0.000 A 
ATOM      2  C   UNL     1       3.739   5.145  17.463  0.00  0.00    +0.000 A 
ATOM      3  C   UNL     1       3.272   6.457  17.561  0.00  0.00    +0.000 A 
ATOM      4  C   UNL     1       2.645   6.828  18.735  0.00  0.00    +0.000 A 
ATOM      5  C   UNL     1       2.486   5.940  19.778  0.00  0.00    +0.000 A 
ATOM      6  C   UNL     1       2.919   4.635  19.698  0.00  0.00    +0.000 A 
ATOM      7  O   UNL     1       1.840   6.490  20.867  0.00  0.00    +0.000 OA
ATOM      8  C   UNL     1       1.589   7.800  20.439  0.00  0.00    +0.000 A 
ATOM      9  O   UNL     1       1.058   8.626  21.169  0.00  0.00    +0.000 OA
ATOM     10  N   UNL     1       2.006   7.991  19.115  0.00  0.00    +0.000 N 
ATOM     11  C   UNL     1       1.952   9.145  18.350  0.00  0.00    +0.000 C 
ATOM     12  O   UNL     1       2.799   9.470  17.520  0.00  0.00    +0.000 OA
ENDROOT
BRANCH  11  13
ATOM     13  C   UNL     1       0.767  10.032  18.522  0.00  0.00    +0.000 A 
ATOM     14  C   UNL     1       0.942  11.269  19.137  0.00  0.00    +0.000 A 
ATOM     15  C   UNL     1      -0.126  12.166  19.229  0.00  0.00    +0.000 A 
ATOM     16  C   UNL     1      -1.398  11.812  18.716  0.00  0.00    +0.000 A 
ATOM     17  C   UNL     1      -1.573  10.559  18.090  0.00  0.00    +0.000 A 
ATOM     18  C   UNL     1      -0.478   9.692  17.983  0.00  0.00    +0.000 A 
BRANCH  15  19
ATOM     19  O   UNL     1      -0.004  13.400  19.827  0.00  0.00    +0.000 OA
ATOM     20  C   UNL     1       0.926  14.296  19.222  0.00  0.00    +0.000 C 
ENDBRANCH  15  19
BRANCH  16  21
ATOM     21  O   UNL     1      -2.396  12.737  18.936  0.00  0.00    +0.000 OA
ATOM     22  C   UNL     1      -3.228  12.556  20.076  0.00  0.00    +0.000 C 
ENDBRANCH  16  21
BRANCH  17  23
ATOM     23  O   UNL     1      -2.816  10.229  17.617  0.00  0.00    +0.000 OA
ATOM     24  C   UNL     1      -2.949   9.840  16.256  0.00  0.00    +0.000 C 
ENDBRANCH  17  23
ENDBRANCH  11  13
BRANCH   1  26
ATOM     25  C   UNL     1       2.881   1.983  18.364  0.00  0.00    +0.000 C 
ATOM     26  O   UNL     1       3.942   2.921  18.497  0.00  0.00    +0.000 OA
ENDBRANCH   1  26
TORSDOF 5
ENDMDL
MODEL 6
REMARK VINA RESULT:      -6.7      2.032      8.000
REMARK  Name = 
REMARK  9 active torsions:
REMARK  status: ('A' for Active; 'I' for Inactive)
REMARK    1  A    between atoms: C_1  and  O_2
REMARK    2  A    between atoms: O_2  and  C_3
REMARK    3  A    between atoms: C_13  and  C_15
REMARK    4  A    between atoms: C_17  and  O_18
REMARK    5  A    between atoms: O_18  and  C_19
REMARK    6  A    between atoms: C_20  and  O_21
REMARK    7  A    between atoms: O_21  and  C_22
REMARK    8  A    between atoms: C_23  and  O_24
REMARK    9  A    between atoms: O_24  and  C_25
REMARK                            x       y       z     vdW  Elec       q    Type
REMARK                         _______ _______ _______ _____ _____    ______ ____
ROOT
ATOM      1  C   UNL     1      -0.961  11.382  19.730  0.00  0.00    +0.000 A 
ATOM      2  C   UNL     1      -0.835  10.520  20.838  0.00  0.00    +0.000 A 
ATOM      3  C   UNL     1       0.077   9.464  20.822  0.00  0.00    +0.000 A 
ATOM      4  C   UNL     1       0.852   9.303  19.690  0.00  0.00    +0.000 A 
ATOM      5  C   UNL     1       0.737  10.154  18.612  0.00  0.00    +0.000 A 
ATOM      6  C   UNL     1      -0.171  11.191  18.594  0.00  0.00    +0.000 A 
ATOM      7  O   UNL     1       1.593   9.839  17.575  0.00  0.00    +0.000 OA
ATOM      8  C   UNL     1       2.263   8.713  18.070  0.00  0.00    +0.000 A 
ATOM      9  O   UNL     1       3.155   8.164  17.436  0.00  0.00    +0.000 OA
ATOM     10  N   UNL     1       1.765   8.334  19.323  0.00  0.00    +0.000 N 
ATOM     11  C   UNL     1       2.180   7.295  20.140  0.00  0.00    +0.000 C 
ATOM     12  O   UNL     1       2.198   7.341  21.369  0.00  0.00    +0.000 OA
ENDROOT
BRANCH  11  13
ATOM     13  C   UNL     1       2.600   6.026  19.483  0.00  0.00    +0.000 A 
ATOM     14  C   UNL     1       3.952   5.694  19.471  0.00  0.00    +0.000 A 
ATOM     15  C   UNL     1       4.370   4.467  18.949  0.00  0.00    +0.000 A 
ATOM     16  C   UNL     1       3.423   3.563  18.409  0.00  0.00    +0.000 A 
ATOM     17  C   UNL     1       2.052   3.899  18.424  0.00  0.00    +0.000 A 
ATOM     18  C   UNL     1       1.657   5.122  18.982  0.00  0.00    +0.000 A 
BRANCH  15  19
ATOM     19  O   UNL     1       5.695   4.093  18.915  0.00  0.00    +0.000 OA
ATOM     20  C   UNL     1       6.623   5.117  18.566  0.00  0.00    +0.000 C 
ENDBRANCH  15  19
BRANCH  16  21
ATOM     21  O   UNL     1       3.955   2.423  17.847  0.00  0.00    +0.000 OA
ATOM     22  C   UNL     1       3.870   1.214  18.593  0.00  0.00    +0.000 C 
ENDBRANCH  16  21
BRANCH  17  23
ATOM     23  O   UNL     1       1.154   3.020  17.879  0.00  0.00    +0.000 OA
ATOM     24  C   UNL     1       0.481   2.109  18.739  0.00  0.00    +0.000 C 
ENDBRANCH  17  23
ENDBRANCH  11  13
BRANCH   1  26
ATOM     25  C   UNL     1      -1.346  13.703  19.920  0.00  0.00    +0.000 C 
ATOM     26  O   UNL     1      -1.861  12.407  19.636  0.00  0.00    +0.000 OA
ENDBRANCH   1  26
TORSDOF 5
ENDMDL
MODEL 7
REMARK VINA RESULT:      -6.6      2.828      7.922
REMARK  Name = 
REMARK  9 active torsions:
REMARK  status: ('A' for Active; 'I' for Inactive)
REMARK    1  A    between atoms: C_1  and  O_2
REMARK    2  A    between atoms: O_2  and  C_3
REMARK    3  A    between atoms: C_13  and  C_15
REMARK    4  A    between atoms: C_17  and  O_18
REMARK    5  A    between atoms: O_18  and  C_19
REMARK    6  A    between atoms: C_20  and  O_21
REMARK    7  A    between atoms: O_21  and  C_22
REMARK    8  A    between atoms: C_23  and  O_24
REMARK    9  A    between atoms: O_24  and  C_25
REMARK                            x       y       z     vdW  Elec       q    Type
REMARK                         _______ _______ _______ _____ _____    ______ ____
ROOT
ATOM      1  C   UNL     1       0.249  11.588  21.469  0.00  0.00    +0.000 A 
ATOM      2  C   UNL     1       0.454  11.774  20.087  0.00  0.00    +0.000 A 
ATOM      3  C   UNL     1       0.912  10.727  19.285  0.00  0.00    +0.000 A 
ATOM      4  C   UNL     1       1.147   9.509  19.893  0.00  0.00    +0.000 A 
ATOM      5  C   UNL     1       0.936   9.325  21.243  0.00  0.00    +0.000 A 
ATOM      6  C   UNL     1       0.504  10.348  22.060  0.00  0.00    +0.000 A 
ATOM      7  O   UNL     1       1.222   8.044  21.670  0.00  0.00    +0.000 OA
ATOM      8  C   UNL     1       1.642   7.420  20.488  0.00  0.00    +0.000 A 
ATOM      9  O   UNL     1       1.943   6.234  20.457  0.00  0.00    +0.000 OA
ATOM     10  N   UNL     1       1.673   8.324  19.419  0.00  0.00    +0.000 N 
ATOM     11  C   UNL     1       2.008   8.087  18.095  0.00  0.00    +0.000 C 
ATOM     12  O   UNL     1       1.480   8.641  17.133  0.00  0.00    +0.000 OA
ENDROOT
BRANCH  11  13
ATOM     13  C   UNL     1       3.108   7.119  17.824  0.00  0.00    +0.000 A 
ATOM     14  C   UNL     1       2.812   5.758  17.809  0.00  0.00    +0.000 A 
ATOM     15  C   UNL     1       3.798   4.828  17.465  0.00  0.00    +0.000 A 
ATOM     16  C   UNL     1       5.109   5.264  17.151  0.00  0.00    +0.000 A 
ATOM     17  C   UNL     1       5.406   6.643  17.164  0.00  0.00    +0.000 A 
ATOM     18  C   UNL     1       4.392   7.556  17.482  0.00  0.00    +0.000 A 
BRANCH  15  19
ATOM     19  O   UNL     1       3.554   3.473  17.434  0.00  0.00    +0.000 OA
ATOM     20  C   UNL     1       2.250   3.065  17.840  0.00  0.00    +0.000 C 
ENDBRANCH  15  19
BRANCH  16  21
ATOM     21  O   UNL     1       6.017   4.256  16.909  0.00  0.00    +0.000 OA
ATOM     22  C   UNL     1       6.363   3.987  15.555  0.00  0.00    +0.000 C 
ENDBRANCH  16  21
BRANCH  17  23
ATOM     23  O   UNL     1       6.685   7.042  16.877  0.00  0.00    +0.000 OA
ATOM     24  C   UNL     1       7.622   7.155  17.940  0.00  0.00    +0.000 C 
ENDBRANCH  17  23
ENDBRANCH  11  13
BRANCH   1  26
ATOM     25  C   UNL     1      -1.377  12.327  23.012  0.00  0.00    +0.000 C 
ATOM     26  O   UNL     1      -0.146  12.567  22.339  0.00  0.00    +0.000 OA
ENDBRANCH   1  26
TORSDOF 5
ENDMDL
MODEL 8
REMARK VINA RESULT:      -6.5      1.230      1.468
REMARK  Name = 
REMARK  9 active torsions:
REMARK  status: ('A' for Active; 'I' for Inactive)
REMARK    1  A    between atoms: C_1  and  O_2
REMARK    2  A    between atoms: O_2  and  C_3
REMARK    3  A    between atoms: C_13  and  C_15
REMARK    4  A    between atoms: C_17  and  O_18
REMARK    5  A    between atoms: O_18  and  C_19
REMARK    6  A    between atoms: C_20  and  O_21
REMARK    7  A    between atoms: O_21  and  C_22
REMARK    8  A    between atoms: C_23  and  O_24
REMARK    9  A    between atoms: O_24  and  C_25
REMARK                            x       y       z     vdW  Elec       q    Type
REMARK                         _______ _______ _______ _____ _____    ______ ____
ROOT
ATOM      1  C   UNL     1       3.406   5.522  18.417  0.00  0.00    +0.000 A 
ATOM      2  C   UNL     1       3.501   6.608  17.524  0.00  0.00    +0.000 A 
ATOM      3  C   UNL     1       2.894   7.831  17.819  0.00  0.00    +0.000 A 
ATOM      4  C   UNL     1       2.210   7.935  19.015  0.00  0.00    +0.000 A 
ATOM      5  C   UNL     1       2.129   6.875  19.893  0.00  0.00    +0.000 A 
ATOM      6  C   UNL     1       2.700   5.652  19.616  0.00  0.00    +0.000 A 
ATOM      7  O   UNL     1       1.408   7.167  21.034  0.00  0.00    +0.000 OA
ATOM      8  C   UNL     1       1.027   8.497  20.817  0.00  0.00    +0.000 A 
ATOM      9  O   UNL     1       0.397   9.132  21.653  0.00  0.00    +0.000 OA
ATOM     10  N   UNL     1       1.444   8.947  19.558  0.00  0.00    +0.000 N 
ATOM     11  C   UNL     1       1.281  10.201  18.990  0.00  0.00    +0.000 C 
ATOM     12  O   UNL     1       2.103  10.745  18.255  0.00  0.00    +0.000 OA
ENDROOT
BRANCH  11  13
ATOM     13  C   UNL     1       0.006  10.921  19.263  0.00  0.00    +0.000 A 
ATOM     14  C   UNL     1       0.007  11.951  20.200  0.00  0.00    +0.000 A 
ATOM     15  C   UNL     1      -1.148  12.711  20.410  0.00  0.00    +0.000 A 
ATOM     16  C   UNL     1      -2.332  12.422  19.688  0.00  0.00    +0.000 A 
ATOM     17  C   UNL     1      -2.330  11.380  18.737  0.00  0.00    +0.000 A 
ATOM     18  C   UNL     1      -1.151  10.654  18.522  0.00  0.00    +0.000 A 
BRANCH  15  19
ATOM     19  O   UNL     1      -1.197  13.740  21.324  0.00  0.00    +0.000 OA
ATOM     20  C   UNL     1      -0.917  13.387  22.677  0.00  0.00    +0.000 C 
ENDBRANCH  15  19
BRANCH  16  21
ATOM     21  O   UNL     1      -3.429  13.179  20.037  0.00  0.00    +0.000 OA
ATOM     22  C   UNL     1      -4.334  12.633  20.990  0.00  0.00    +0.000 C 
ENDBRANCH  16  21
BRANCH  17  23
ATOM     23  O   UNL     1      -3.491  11.104  18.063  0.00  0.00    +0.000 OA
ATOM     24  C   UNL     1      -3.732   9.770  17.632  0.00  0.00    +0.000 C 
ENDBRANCH  17  23
ENDBRANCH  11  13
BRANCH   1  26
ATOM     25  C   UNL     1       4.362   4.031  16.857  0.00  0.00    +0.000 C 
ATOM     26  O   UNL     1       3.922   4.276  18.188  0.00  0.00    +0.000 OA
ENDBRANCH   1  26
TORSDOF 5
ENDMDL
MODEL 9
REMARK VINA RESULT:      -6.4      3.005      7.801
REMARK  Name = 
REMARK  9 active torsions:
REMARK  status: ('A' for Active; 'I' for Inactive)
REMARK    1  A    between atoms: C_1  and  O_2
REMARK    2  A    between atoms: O_2  and  C_3
REMARK    3  A    between atoms: C_13  and  C_15
REMARK    4  A    between atoms: C_17  and  O_18
REMARK    5  A    between atoms: O_18  and  C_19
REMARK    6  A    between atoms: C_20  and  O_21
REMARK    7  A    between atoms: O_21  and  C_22
REMARK    8  A    between atoms: C_23  and  O_24
REMARK    9  A    between atoms: O_24  and  C_25
REMARK                            x       y       z     vdW  Elec       q    Type
REMARK                         _______ _______ _______ _____ _____    ______ ____
ROOT
ATOM      1  C   UNL     1       0.315  10.575  21.862  0.00  0.00    +0.000 A 
ATOM      2  C   UNL     1       0.602  11.029  20.560  0.00  0.00    +0.000 A 
ATOM      3  C   UNL     1       1.139  10.166  19.603  0.00  0.00    +0.000 A 
ATOM      4  C   UNL     1       1.370   8.856  19.979  0.00  0.00    +0.000 A 
ATOM      5  C   UNL     1       1.079   8.411  21.251  0.00  0.00    +0.000 A 
ATOM      6  C   UNL     1       0.567   9.248  22.219  0.00  0.00    +0.000 A 
ATOM      7  O   UNL     1       1.373   7.075  21.441  0.00  0.00    +0.000 OA
ATOM      8  C   UNL     1       1.885   6.700  20.192  0.00  0.00    +0.000 A 
ATOM      9  O   UNL     1       2.221   5.547  19.953  0.00  0.00    +0.000 OA
ATOM     10  N   UNL     1       1.958   7.795  19.322  0.00  0.00    +0.000 N 
ATOM     11  C   UNL     1       2.383   7.825  18.003  0.00  0.00    +0.000 C 
ATOM     12  O   UNL     1       1.901   8.547  17.132  0.00  0.00    +0.000 OA
ENDROOT
BRANCH  11  13
ATOM     13  C   UNL     1       3.525   6.945  17.625  0.00  0.00    +0.000 A 
ATOM     14  C   UNL     1       4.759   7.530  17.356  0.00  0.00    +0.000 A 
ATOM     15  C   UNL     1       5.874   6.729  17.093  0.00  0.00    +0.000 A 
ATOM     16  C   UNL     1       5.750   5.318  17.078  0.00  0.00    +0.000 A 
ATOM     17  C   UNL     1       4.498   4.726  17.354  0.00  0.00    +0.000 A 
ATOM     18  C   UNL     1       3.404   5.552  17.645  0.00  0.00    +0.000 A 
BRANCH  15  19
ATOM     19  O   UNL     1       7.116   7.259  16.822  0.00  0.00    +0.000 OA
ATOM     20  C   UNL     1       7.579   8.257  17.729  0.00  0.00    +0.000 C 
ENDBRANCH  15  19
BRANCH  16  21
ATOM     21  O   UNL     1       6.892   4.633  16.725  0.00  0.00    +0.000 OA
ATOM     22  C   UNL     1       7.077   4.314  15.351  0.00  0.00    +0.000 C 
ENDBRANCH  16  21
BRANCH  17  23
ATOM     23  O   UNL     1       4.394   3.361  17.315  0.00  0.00    +0.000 OA
ATOM     24  C   UNL     1       3.209   2.751  17.810  0.00  0.00    +0.000 C 
ENDBRANCH  17  23
ENDBRANCH  11  13
BRANCH   1  26
ATOM     25  C   UNL     1      -1.578  11.389  23.013  0.00  0.00    +0.000 C 
ATOM     26  O   UNL     1      -0.162  11.360  22.876  0.00  0.00    +0.000 OA
ENDBRANCH   1  26
TORSDOF 5
ENDMDL
