MODEL 1
REMARK VINA RESULT:      -6.7      0.000      0.000
REMARK  Name = 
REMARK  11 active torsions:
REMARK  status: ('A' for Active; 'I' for Inactive)
REMARK    1  A    between atoms: C_1  and  C_2
REMARK    2  A    between atoms: C_2  and  O_3
REMARK    3  A    between atoms: O_3  and  C_4
REMARK    4  A    between atoms: C_4  and  C_6
REMARK    5  A    between atoms: C_8  and  S_9
REMARK    6  A    between atoms: S_9  and  C_10
REMARK    7  A    between atoms: C_10  and  C_11
REMARK    8  A    between atoms: C_10  and  C_12
REMARK    9  A    between atoms: C_13  and  C_14
REMARK   10  A    between atoms: C_16  and  C_17
REMARK   11  A    between atoms: C_20  and  O_21
REMARK                            x       y       z     vdW  Elec       q    Type
REMARK                         _______ _______ _______ _____ _____    ______ ____
ROOT
ATOM      1  C   UNL     1       3.190   4.422  17.502  0.00  0.00    +0.000 A 
ATOM      2  S   UNL     1       4.323   3.373  16.753  0.00  0.00    +0.000 S 
ATOM      3  C   UNL     1       5.500   4.602  16.587  0.00  0.00    +0.000 A 
ATOM      4  C   UNL     1       5.056   5.794  17.125  0.00  0.00    +0.000 A 
ATOM      5  C   UNL     1       3.727   5.692  17.707  0.00  0.00    +0.000 A 
ENDROOT
BRANCH   5   6
ATOM      6  C   UNL     1       3.010   6.757  18.439  0.00  0.00    +0.000 A 
ATOM      7  C   UNL     1       2.667   6.593  19.790  0.00  0.00    +0.000 A 
ATOM      8  C   UNL     1       1.854   7.523  20.447  0.00  0.00    +0.000 A 
ATOM      9  C   UNL     1       1.427   8.657  19.769  0.00  0.00    +0.000 A 
ATOM     10  C   UNL     1       1.809   8.880  18.455  0.00  0.00    +0.000 A 
ATOM     11  C   UNL     1       2.576   7.922  17.784  0.00  0.00    +0.000 A 
BRANCH   9  12
ATOM     12  O   UNL     1       0.614   9.576  20.362  0.00  0.00    +0.000 OA
ATOM     13  H   UNL     1      -0.177   9.120  20.695  0.00  0.00    +0.000 HD
ENDBRANCH   9  12
ENDBRANCH   5   6
BRANCH   1  14
ATOM     14  C   UNL     1       1.845   3.949  17.781  0.00  0.00    +0.000 C 
ATOM     15  O   UNL     1       0.831   4.332  17.211  0.00  0.00    +0.000 OA
BRANCH  14  16
ATOM     16  O   UNL     1       1.834   3.046  18.814  0.00  0.00    +0.000 OA
BRANCH  16  18
ATOM     17  C   UNL     1       1.568   3.302  21.226  0.00  0.00    +0.000 C 
ATOM     18  C   UNL     1       0.897   3.337  19.864  0.00  0.00    +0.000 C 
ENDBRANCH  16  18
ENDBRANCH  14  16
ENDBRANCH   1  14
BRANCH   4  19
ATOM     19  C   UNL     1       5.839   6.997  17.092  0.00  0.00    +0.000 C 
ATOM     20  N   UNL     1       6.457   7.979  17.050  0.00  0.00    +0.000 NA
ENDBRANCH   4  19
BRANCH   3  21
ATOM     21  S   UNL     1       7.006   4.244  15.733  0.00  0.00    +0.000 S 
BRANCH  21  22
ATOM     22  C   UNL     1       6.694   4.801  14.017  0.00  0.00    +0.000 C 
ATOM     23  C   UNL     1       7.981   5.235  13.324  0.00  0.00    +0.000 C 
ATOM     24  C   UNL     1       6.049   3.646  13.249  0.00  0.00    +0.000 C 
ENDBRANCH  21  22
ENDBRANCH   3  21
TORSDOF 8
ENDMDL
MODEL 2
REMARK VINA RESULT:      -6.5      0.191      1.022
REMARK  Name = 
REMARK  11 active torsions:
REMARK  status: ('A' for Active; 'I' for Inactive)
REMARK    1  A    between atoms: C_1  and  C_2
REMARK    2  A    between atoms: C_2  and  O_3
REMARK    3  A    between atoms: O_3  and  C_4
REMARK    4  A    between atoms: C_4  and  C_6
REMARK    5  A    between atoms: C_8  and  S_9
REMARK    6  A    between atoms: S_9  and  C_10
REMARK    7  A    between atoms: C_10  and  C_11
REMARK    8  A    between atoms: C_10  and  C_12
REMARK    9  A    between atoms: C_13  and  C_14
REMARK   10  A    between atoms: C_16  and  C_17
REMARK   11  A    between atoms: C_20  and  O_21
REMARK                            x       y       z     vdW  Elec       q    Type
REMARK                         _______ _______ _______ _____ _____    ______ ____
ROOT
ATOM      1  C   UNL     1       3.106   4.366  17.558  0.00  0.00    +0.000 A 
ATOM      2  S   UNL     1       4.304   3.346  16.874  0.00  0.00    +0.000 S 
ATOM      3  C   UNL     1       5.422   4.624  16.679  0.00  0.00    +0.000 A 
ATOM      4  C   UNL     1       4.909   5.813  17.159  0.00  0.00    +0.000 A 
ATOM      5  C   UNL     1       3.576   5.668  17.720  0.00  0.00    +0.000 A 
ENDROOT
BRANCH   5   6
ATOM      6  C   UNL     1       2.793   6.724  18.395  0.00  0.00    +0.000 A 
ATOM      7  C   UNL     1       2.391   7.875  17.698  0.00  0.00    +0.000 A 
ATOM      8  C   UNL     1       1.789   8.949  18.363  0.00  0.00    +0.000 A 
ATOM      9  C   UNL     1       1.531   8.853  19.724  0.00  0.00    +0.000 A 
ATOM     10  C   UNL     1       1.853   7.700  20.423  0.00  0.00    +0.000 A 
ATOM     11  C   UNL     1       2.504   6.650  19.768  0.00  0.00    +0.000 A 
BRANCH   9  12
ATOM     12  O   UNL     1       0.969   9.883  20.416  0.00  0.00    +0.000 OA
ATOM     13  H   UNL     1       0.799   9.588  21.326  0.00  0.00    +0.000 HD
ENDBRANCH   9  12
ENDBRANCH   5   6
BRANCH   1  14
ATOM     14  C   UNL     1       1.781   3.838  17.831  0.00  0.00    +0.000 C 
ATOM     15  O   UNL     1       0.761   4.145  17.227  0.00  0.00    +0.000 OA
BRANCH  14  16
ATOM     16  O   UNL     1       1.792   2.980  18.903  0.00  0.00    +0.000 OA
BRANCH  16  18
ATOM     17  C   UNL     1       1.635   3.210  21.326  0.00  0.00    +0.000 C 
ATOM     18  C   UNL     1       0.930   3.354  19.989  0.00  0.00    +0.000 C 
ENDBRANCH  16  18
ENDBRANCH  14  16
ENDBRANCH   1  14
BRANCH   4  19
ATOM     19  C   UNL     1       5.633   7.052  17.091  0.00  0.00    +0.000 C 
ATOM     20  N   UNL     1       6.210   8.057  17.058  0.00  0.00    +0.000 NA
ENDBRANCH   4  19
BRANCH   3  21
ATOM     21  S   UNL     1       6.961   4.308  15.868  0.00  0.00    +0.000 S 
BRANCH  21  22
ATOM     22  C   UNL     1       6.675   4.835  14.138  0.00  0.00    +0.000 C 
ATOM     23  C   UNL     1       7.977   5.222  13.444  0.00  0.00    +0.000 C 
ATOM     24  C   UNL     1       6.006   3.680  13.390  0.00  0.00    +0.000 C 
ENDBRANCH  21  22
ENDBRANCH   3  21
TORSDOF 8
ENDMDL
MODEL 3
REMARK VINA RESULT:      -5.8      3.066      6.156
REMARK  Name = 
REMARK  11 active torsions:
REMARK  status: ('A' for Active; 'I' for Inactive)
REMARK    1  A    between atoms: C_1  and  C_2
REMARK    2  A    between atoms: C_2  and  O_3
REMARK    3  A    between atoms: O_3  and  C_4
REMARK    4  A    between atoms: C_4  and  C_6
REMARK    5  A    between atoms: C_8  and  S_9
REMARK    6  A    between atoms: S_9  and  C_10
REMARK    7  A    between atoms: C_10  and  C_11
REMARK    8  A    between atoms: C_10  and  C_12
REMARK    9  A    between atoms: C_13  and  C_14
REMARK   10  A    between atoms: C_16  and  C_17
REMARK   11  A    between atoms: C_20  and  O_21
REMARK                            x       y       z     vdW  Elec       q    Type
REMARK                         _______ _______ _______ _____ _____    ______ ____
ROOT
ATOM      1  C   UNL     1       3.485   4.699  19.592  0.00  0.00    +0.000 A 
ATOM      2  S   UNL     1       2.181   4.985  20.670  0.00  0.00    +0.000 S 
ATOM      3  C   UNL     1       1.814   6.505  19.979  0.00  0.00    +0.000 A 
ATOM      4  C   UNL     1       2.650   6.784  18.915  0.00  0.00    +0.000 A 
ATOM      5  C   UNL     1       3.599   5.716  18.647  0.00  0.00    +0.000 A 
ENDROOT
BRANCH   5   6
ATOM      6  C   UNL     1       4.563   5.665  17.527  0.00  0.00    +0.000 A 
ATOM      7  C   UNL     1       4.377   4.771  16.462  0.00  0.00    +0.000 A 
ATOM      8  C   UNL     1       5.360   4.603  15.479  0.00  0.00    +0.000 A 
ATOM      9  C   UNL     1       6.512   5.375  15.526  0.00  0.00    +0.000 A 
ATOM     10  C   UNL     1       6.690   6.316  16.528  0.00  0.00    +0.000 A 
ATOM     11  C   UNL     1       5.732   6.444  17.539  0.00  0.00    +0.000 A 
BRANCH   9  12
ATOM     12  O   UNL     1       7.505   5.227  14.605  0.00  0.00    +0.000 OA
ATOM     13  H   UNL     1       7.192   4.628  13.907  0.00  0.00    +0.000 HD
ENDBRANCH   9  12
ENDBRANCH   5   6
BRANCH   1  14
ATOM     14  C   UNL     1       4.335   3.536  19.783  0.00  0.00    +0.000 C 
ATOM     15  O   UNL     1       5.559   3.550  19.781  0.00  0.00    +0.000 OA
BRANCH  14  16
ATOM     16  O   UNL     1       3.595   2.388  19.913  0.00  0.00    +0.000 OA
BRANCH  16  18
ATOM     17  C   UNL     1       1.682   2.004  18.448  0.00  0.00    +0.000 C 
ATOM     18  C   UNL     1       3.169   1.796  18.676  0.00  0.00    +0.000 C 
ENDBRANCH  16  18
ENDBRANCH  14  16
ENDBRANCH   1  14
BRANCH   4  19
ATOM     19  C   UNL     1       2.576   8.012  18.174  0.00  0.00    +0.000 C 
ATOM     20  N   UNL     1       2.522   8.992  17.556  0.00  0.00    +0.000 NA
ENDBRANCH   4  19
BRANCH   3  21
ATOM     21  S   UNL     1       0.551   7.503  20.710  0.00  0.00    +0.000 S 
BRANCH  21  22
ATOM     22  C   UNL     1       1.408   9.058  21.157  0.00  0.00    +0.000 C 
ATOM     23  C   UNL     1       0.770  10.267  20.479  0.00  0.00    +0.000 C 
ATOM     24  C   UNL     1       1.349   9.217  22.677  0.00  0.00    +0.000 C 
ENDBRANCH  21  22
ENDBRANCH   3  21
TORSDOF 8
ENDMDL
MODEL 4
REMARK VINA RESULT:      -5.5      1.052      1.363
REMARK  Name = 
REMARK  11 active torsions:
REMARK  status: ('A' for Active; 'I' for Inactive)
REMARK    1  A    between atoms: C_1  and  C_2
REMARK    2  A    between atoms: C_2  and  O_3
REMARK    3  A    between atoms: O_3  and  C_4
REMARK    4  A    between atoms: C_4  and  C_6
REMARK    5  A    between atoms: C_8  and  S_9
REMARK    6  A    between atoms: S_9  and  C_10
REMARK    7  A    between atoms: C_10  and  C_11
REMARK    8  A    between atoms: C_10  and  C_12
REMARK    9  A    between atoms: C_13  and  C_14
REMARK   10  A    between atoms: C_16  and  C_17
REMARK   11  A    between atoms: C_20  and  O_21
REMARK                            x       y       z     vdW  Elec       q    Type
REMARK                         _______ _______ _______ _____ _____    ______ ____
ROOT
ATOM      1  C   UNL     1       3.016   4.673  18.485  0.00  0.00    +0.000 A 
ATOM      2  S   UNL     1       4.221   3.499  18.146  0.00  0.00    +0.000 S 
ATOM      3  C   UNL     1       5.356   4.669  17.630  0.00  0.00    +0.000 A 
ATOM      4  C   UNL     1       4.842   5.947  17.742  0.00  0.00    +0.000 A 
ATOM      5  C   UNL     1       3.493   5.967  18.287  0.00  0.00    +0.000 A 
ENDROOT
BRANCH   5   6
ATOM      6  C   UNL     1       2.704   7.172  18.617  0.00  0.00    +0.000 A 
ATOM      7  C   UNL     1       2.296   7.423  19.936  0.00  0.00    +0.000 A 
ATOM      8  C   UNL     1       1.419   8.472  20.234  0.00  0.00    +0.000 A 
ATOM      9  C   UNL     1       0.989   9.315  19.217  0.00  0.00    +0.000 A 
ATOM     10  C   UNL     1       1.432   9.132  17.916  0.00  0.00    +0.000 A 
ATOM     11  C   UNL     1       2.265   8.051  17.611  0.00  0.00    +0.000 A 
BRANCH   9  12
ATOM     12  O   UNL     1       0.117  10.333  19.458  0.00  0.00    +0.000 OA
ATOM     13  H   UNL     1      -0.556  10.334  18.756  0.00  0.00    +0.000 HD
ENDBRANCH   9  12
ENDBRANCH   5   6
BRANCH   1  14
ATOM     14  C   UNL     1       1.680   4.245  18.861  0.00  0.00    +0.000 C 
ATOM     15  O   UNL     1       0.884   3.685  18.118  0.00  0.00    +0.000 OA
BRANCH  14  16
ATOM     16  O   UNL     1       1.384   4.598  20.154  0.00  0.00    +0.000 OA
BRANCH  16  18
ATOM     17  C   UNL     1       1.335   2.609  21.567  0.00  0.00    +0.000 C 
ATOM     18  C   UNL     1       2.094   3.860  21.162  0.00  0.00    +0.000 C 
ENDBRANCH  16  18
ENDBRANCH  14  16
ENDBRANCH   1  14
BRANCH   4  19
ATOM     19  C   UNL     1       5.578   7.115  17.348  0.00  0.00    +0.000 C 
ATOM     20  N   UNL     1       6.184   8.046  17.015  0.00  0.00    +0.000 NA
ENDBRANCH   4  19
BRANCH   3  21
ATOM     21  S   UNL     1       6.910   4.135  16.980  0.00  0.00    +0.000 S 
BRANCH  21  22
ATOM     22  C   UNL     1       6.660   4.119  15.167  0.00  0.00    +0.000 C 
ATOM     23  C   UNL     1       5.179   4.134  14.802  0.00  0.00    +0.000 C 
ATOM     24  C   UNL     1       7.357   5.346  14.576  0.00  0.00    +0.000 C 
ENDBRANCH  21  22
ENDBRANCH   3  21
TORSDOF 8
ENDMDL
MODEL 5
REMARK VINA RESULT:      -5.5      3.093      6.121
REMARK  Name = 
REMARK  11 active torsions:
REMARK  status: ('A' for Active; 'I' for Inactive)
REMARK    1  A    between atoms: C_1  and  C_2
REMARK    2  A    between atoms: C_2  and  O_3
REMARK    3  A    between atoms: O_3  and  C_4
REMARK    4  A    between atoms: C_4  and  C_6
REMARK    5  A    between atoms: C_8  and  S_9
REMARK    6  A    between atoms: S_9  and  C_10
REMARK    7  A    between atoms: C_10  and  C_11
REMARK    8  A    between atoms: C_10  and  C_12
REMARK    9  A    between atoms: C_13  and  C_14
REMARK   10  A    between atoms: C_16  and  C_17
REMARK   11  A    between atoms: C_20  and  O_21
REMARK                            x       y       z     vdW  Elec       q    Type
REMARK                         _______ _______ _______ _____ _____    ______ ____
ROOT
ATOM      1  C   UNL     1       3.419   4.542  19.664  0.00  0.00    +0.000 A 
ATOM      2  S   UNL     1       2.049   4.893  20.635  0.00  0.00    +0.000 S 
ATOM      3  C   UNL     1       1.806   6.423  19.913  0.00  0.00    +0.000 A 
ATOM      4  C   UNL     1       2.735   6.658  18.917  0.00  0.00    +0.000 A 
ATOM      5  C   UNL     1       3.653   5.546  18.727  0.00  0.00    +0.000 A 
ENDROOT
BRANCH   5   6
ATOM      6  C   UNL     1       4.698   5.446  17.686  0.00  0.00    +0.000 A 
ATOM      7  C   UNL     1       5.946   6.061  17.862  0.00  0.00    +0.000 A 
ATOM      8  C   UNL     1       6.882   6.106  16.822  0.00  0.00    +0.000 A 
ATOM      9  C   UNL     1       6.595   5.482  15.616  0.00  0.00    +0.000 A 
ATOM     10  C   UNL     1       5.397   4.806  15.439  0.00  0.00    +0.000 A 
ATOM     11  C   UNL     1       4.442   4.809  16.460  0.00  0.00    +0.000 A 
BRANCH   9  12
ATOM     12  O   UNL     1       7.466   5.521  14.569  0.00  0.00    +0.000 OA
ATOM     13  H   UNL     1       7.707   4.610  14.333  0.00  0.00    +0.000 HD
ENDBRANCH   9  12
ENDBRANCH   5   6
BRANCH   1  14
ATOM     14  C   UNL     1       4.199   3.343  19.923  0.00  0.00    +0.000 C 
ATOM     15  O   UNL     1       5.406   3.318  20.127  0.00  0.00    +0.000 OA
BRANCH  14  16
ATOM     16  O   UNL     1       3.422   2.214  19.858  0.00  0.00    +0.000 OA
BRANCH  16  18
ATOM     17  C   UNL     1       2.348   2.075  17.672  0.00  0.00    +0.000 C 
ATOM     18  C   UNL     1       3.434   1.541  18.589  0.00  0.00    +0.000 C 
ENDBRANCH  16  18
ENDBRANCH  14  16
ENDBRANCH   1  14
BRANCH   4  19
ATOM     19  C   UNL     1       2.774   7.883  18.169  0.00  0.00    +0.000 C 
ATOM     20  N   UNL     1       2.809   8.884  17.584  0.00  0.00    +0.000 NA
ENDBRANCH   4  19
BRANCH   3  21
ATOM     21  S   UNL     1       0.537   7.481  20.541  0.00  0.00    +0.000 S 
BRANCH  21  22
ATOM     22  C   UNL     1       1.420   9.013  21.015  0.00  0.00    +0.000 C 
ATOM     23  C   UNL     1       0.825  10.240  20.332  0.00  0.00    +0.000 C 
ATOM     24  C   UNL     1       1.333   9.165  22.534  0.00  0.00    +0.000 C 
ENDBRANCH  21  22
ENDBRANCH   3  21
TORSDOF 8
ENDMDL
MODEL 6
REMARK VINA RESULT:      -5.3      1.449      2.240
REMARK  Name = 
REMARK  11 active torsions:
REMARK  status: ('A' for Active; 'I' for Inactive)
REMARK    1  A    between atoms: C_1  and  C_2
REMARK    2  A    between atoms: C_2  and  O_3
REMARK    3  A    between atoms: O_3  and  C_4
REMARK    4  A    between atoms: C_4  and  C_6
REMARK    5  A    between atoms: C_8  and  S_9
REMARK    6  A    between atoms: S_9  and  C_10
REMARK    7  A    between atoms: C_10  and  C_11
REMARK    8  A    between atoms: C_10  and  C_12
REMARK    9  A    between atoms: C_13  and  C_14
REMARK   10  A    between atoms: C_16  and  C_17
REMARK   11  A    between atoms: C_20  and  O_21
REMARK                            x       y       z     vdW  Elec       q    Type
REMARK                         _______ _______ _______ _____ _____    ______ ____
ROOT
ATOM      1  C   UNL     1       3.358   4.795  19.491  0.00  0.00    +0.000 A 
ATOM      2  S   UNL     1       4.708   3.754  19.299  0.00  0.00    +0.000 S 
ATOM      3  C   UNL     1       5.545   4.861  18.301  0.00  0.00    +0.000 A 
ATOM      4  C   UNL     1       4.825   6.028  18.137  0.00  0.00    +0.000 A 
ATOM      5  C   UNL     1       3.567   6.024  18.867  0.00  0.00    +0.000 A 
ENDROOT
BRANCH   5   6
ATOM      6  C   UNL     1       2.616   7.150  18.974  0.00  0.00    +0.000 A 
ATOM      7  C   UNL     1       2.283   7.916  17.846  0.00  0.00    +0.000 A 
ATOM      8  C   UNL     1       1.510   9.077  17.965  0.00  0.00    +0.000 A 
ATOM      9  C   UNL     1       1.015   9.446  19.209  0.00  0.00    +0.000 A 
ATOM     10  C   UNL     1       1.271   8.669  20.328  0.00  0.00    +0.000 A 
ATOM     11  C   UNL     1       2.089   7.539  20.217  0.00  0.00    +0.000 A 
BRANCH   9  12
ATOM     12  O   UNL     1       0.280  10.580  19.374  0.00  0.00    +0.000 OA
ATOM     13  H   UNL     1       0.121  10.975  18.500  0.00  0.00    +0.000 HD
ENDBRANCH   9  12
ENDBRANCH   5   6
BRANCH   1  14
ATOM     14  C   UNL     1       2.173   4.319  20.184  0.00  0.00    +0.000 C 
ATOM     15  O   UNL     1       2.066   4.202  21.398  0.00  0.00    +0.000 OA
BRANCH  14  16
ATOM     16  O   UNL     1       1.188   3.953  19.302  0.00  0.00    +0.000 OA
BRANCH  16  18
ATOM     17  C   UNL     1       1.959   2.077  17.946  0.00  0.00    +0.000 C 
ATOM     18  C   UNL     1       1.064   2.539  19.082  0.00  0.00    +0.000 C 
ENDBRANCH  16  18
ENDBRANCH  14  16
ENDBRANCH   1  14
BRANCH   4  19
ATOM     19  C   UNL     1       5.288   7.115  17.320  0.00  0.00    +0.000 C 
ATOM     20  N   UNL     1       5.670   7.978  16.645  0.00  0.00    +0.000 NA
ENDBRANCH   4  19
BRANCH   3  21
ATOM     21  S   UNL     1       7.085   4.378  17.580  0.00  0.00    +0.000 S 
BRANCH  21  22
ATOM     22  C   UNL     1       6.660   3.948  15.853  0.00  0.00    +0.000 C 
ATOM     23  C   UNL     1       5.154   3.800  15.663  0.00  0.00    +0.000 C 
ATOM     24  C   UNL     1       7.197   5.050  14.939  0.00  0.00    +0.000 C 
ENDBRANCH  21  22
ENDBRANCH   3  21
TORSDOF 8
ENDMDL
MODEL 7
REMARK VINA RESULT:      -5.2      2.269      3.427
REMARK  Name = 
REMARK  11 active torsions:
REMARK  status: ('A' for Active; 'I' for Inactive)
REMARK    1  A    between atoms: C_1  and  C_2
REMARK    2  A    between atoms: C_2  and  O_3
REMARK    3  A    between atoms: O_3  and  C_4
REMARK    4  A    between atoms: C_4  and  C_6
REMARK    5  A    between atoms: C_8  and  S_9
REMARK    6  A    between atoms: S_9  and  C_10
REMARK    7  A    between atoms: C_10  and  C_11
REMARK    8  A    between atoms: C_10  and  C_12
REMARK    9  A    between atoms: C_13  and  C_14
REMARK   10  A    between atoms: C_16  and  C_17
REMARK   11  A    between atoms: C_20  and  O_21
REMARK                            x       y       z     vdW  Elec       q    Type
REMARK                         _______ _______ _______ _____ _____    ______ ____
ROOT
ATOM      1  C   UNL     1       2.525   5.658  19.962  0.00  0.00    +0.000 A 
ATOM      2  S   UNL     1       3.617   5.169  18.732  0.00  0.00    +0.000 S 
ATOM      3  C   UNL     1       3.558   6.683  17.941  0.00  0.00    +0.000 A 
ATOM      4  C   UNL     1       2.743   7.568  18.618  0.00  0.00    +0.000 A 
ATOM      5  C   UNL     1       2.171   6.999  19.828  0.00  0.00    +0.000 A 
ENDROOT
BRANCH   5   6
ATOM      6  C   UNL     1       1.336   7.711  20.818  0.00  0.00    +0.000 A 
ATOM      7  C   UNL     1      -0.064   7.630  20.766  0.00  0.00    +0.000 A 
ATOM      8  C   UNL     1      -0.864   8.422  21.596  0.00  0.00    +0.000 A 
ATOM      9  C   UNL     1      -0.266   9.259  22.528  0.00  0.00    +0.000 A 
ATOM     10  C   UNL     1       1.115   9.306  22.650  0.00  0.00    +0.000 A 
ATOM     11  C   UNL     1       1.914   8.555  21.782  0.00  0.00    +0.000 A 
BRANCH   9  12
ATOM     12  O   UNL     1      -1.006  10.065  23.340  0.00  0.00    +0.000 OA
ATOM     13  H   UNL     1      -1.914  10.099  22.995  0.00  0.00    +0.000 HD
ENDBRANCH   9  12
ENDBRANCH   5   6
BRANCH   1  14
ATOM     14  C   UNL     1       2.049   4.685  20.930  0.00  0.00    +0.000 C 
ATOM     15  O   UNL     1       2.630   4.375  21.963  0.00  0.00    +0.000 OA
BRANCH  14  16
ATOM     16  O   UNL     1       0.877   4.099  20.520  0.00  0.00    +0.000 OA
BRANCH  16  18
ATOM     17  C   UNL     1       0.867   2.472  18.703  0.00  0.00    +0.000 C 
ATOM     18  C   UNL     1       0.976   2.702  20.200  0.00  0.00    +0.000 C 
ENDBRANCH  16  18
ENDBRANCH  14  16
ENDBRANCH   1  14
BRANCH   4  19
ATOM     19  C   UNL     1       2.494   8.903  18.152  0.00  0.00    +0.000 C 
ATOM     20  N   UNL     1       2.305   9.978  17.756  0.00  0.00    +0.000 NA
ENDBRANCH   4  19
BRANCH   3  21
ATOM     21  S   UNL     1       4.421   6.891  16.412  0.00  0.00    +0.000 S 
BRANCH  21  22
ATOM     22  C   UNL     1       5.807   5.700  16.511  0.00  0.00    +0.000 C 
ATOM     23  C   UNL     1       6.156   5.126  15.141  0.00  0.00    +0.000 C 
ATOM     24  C   UNL     1       7.019   6.424  17.099  0.00  0.00    +0.000 C 
ENDBRANCH  21  22
ENDBRANCH   3  21
TORSDOF 8
ENDMDL
MODEL 8
REMARK VINA RESULT:      -5.2      8.944     11.335
REMARK  Name = 
REMARK  11 active torsions:
REMARK  status: ('A' for Active; 'I' for Inactive)
REMARK    1  A    between atoms: C_1  and  C_2
REMARK    2  A    between atoms: C_2  and  O_3
REMARK    3  A    between atoms: O_3  and  C_4
REMARK    4  A    between atoms: C_4  and  C_6
REMARK    5  A    between atoms: C_8  and  S_9
REMARK    6  A    between atoms: S_9  and  C_10
REMARK    7  A    between atoms: C_10  and  C_11
REMARK    8  A    between atoms: C_10  and  C_12
REMARK    9  A    between atoms: C_13  and  C_14
REMARK   10  A    between atoms: C_16  and  C_17
REMARK   11  A    between atoms: C_20  and  O_21
REMARK                            x       y       z     vdW  Elec       q    Type
REMARK                         _______ _______ _______ _____ _____    ______ ____
ROOT
ATOM      1  C   UNL     1      -5.444  12.054  19.688  0.00  0.00    +0.000 A 
ATOM      2  S   UNL     1      -5.531  13.054  21.080  0.00  0.00    +0.000 S 
ATOM      3  C   UNL     1      -3.849  13.362  21.084  0.00  0.00    +0.000 A 
ATOM      4  C   UNL     1      -3.226  12.741  20.019  0.00  0.00    +0.000 A 
ATOM      5  C   UNL     1      -4.153  12.014  19.167  0.00  0.00    +0.000 A 
ENDROOT
BRANCH   5   6
ATOM      6  C   UNL     1      -3.819  11.324  17.903  0.00  0.00    +0.000 A 
ATOM      7  C   UNL     1      -2.879  10.281  17.882  0.00  0.00    +0.000 A 
ATOM      8  C   UNL     1      -2.440   9.729  16.673  0.00  0.00    +0.000 A 
ATOM      9  C   UNL     1      -2.985  10.178  15.478  0.00  0.00    +0.000 A 
ATOM     10  C   UNL     1      -3.966  11.158  15.474  0.00  0.00    +0.000 A 
ATOM     11  C   UNL     1      -4.364  11.747  16.679  0.00  0.00    +0.000 A 
BRANCH   9  12
ATOM     12  O   UNL     1      -2.569   9.686  14.277  0.00  0.00    +0.000 OA
ATOM     13  H   UNL     1      -3.236   9.057  13.955  0.00  0.00    +0.000 HD
ENDBRANCH   9  12
ENDBRANCH   5   6
BRANCH   1  14
ATOM     14  C   UNL     1      -6.627  11.339  19.240  0.00  0.00    +0.000 C 
ATOM     15  O   UNL     1      -7.203  11.525  18.176  0.00  0.00    +0.000 OA
BRANCH  14  16
ATOM     16  O   UNL     1      -7.068  10.452  20.190  0.00  0.00    +0.000 OA
BRANCH  16  18
ATOM     17  C   UNL     1      -7.813   8.212  20.805  0.00  0.00    +0.000 C 
ATOM     18  C   UNL     1      -7.158   9.087  19.751  0.00  0.00    +0.000 C 
ENDBRANCH  16  18
ENDBRANCH  14  16
ENDBRANCH   1  14
BRANCH   4  19
ATOM     19  C   UNL     1      -1.808  12.813  19.803  0.00  0.00    +0.000 C 
ATOM     20  N   UNL     1      -0.659  12.855  19.645  0.00  0.00    +0.000 NA
ENDBRANCH   4  19
BRANCH   3  21
ATOM     21  S   UNL     1      -3.148  14.303  22.406  0.00  0.00    +0.000 S 
BRANCH  21  22
ATOM     22  C   UNL     1      -2.933  13.089  23.759  0.00  0.00    +0.000 C 
ATOM     23  C   UNL     1      -4.264  12.737  24.417  0.00  0.00    +0.000 C 
ATOM     24  C   UNL     1      -2.287  11.831  23.176  0.00  0.00    +0.000 C 
ENDBRANCH  21  22
ENDBRANCH   3  21
TORSDOF 8
ENDMDL
MODEL 9
REMARK VINA RESULT:      -5.1      1.439      1.936
REMARK  Name = 
REMARK  11 active torsions:
REMARK  status: ('A' for Active; 'I' for Inactive)
REMARK    1  A    between atoms: C_1  and  C_2
REMARK    2  A    between atoms: C_2  and  O_3
REMARK    3  A    between atoms: O_3  and  C_4
REMARK    4  A    between atoms: C_4  and  C_6
REMARK    5  A    between atoms: C_8  and  S_9
REMARK    6  A    between atoms: S_9  and  C_10
REMARK    7  A    between atoms: C_10  and  C_11
REMARK    8  A    between atoms: C_10  and  C_12
REMARK    9  A    between atoms: C_13  and  C_14
REMARK   10  A    between atoms: C_16  and  C_17
REMARK   11  A    between atoms: C_20  and  O_21
REMARK                            x       y       z     vdW  Elec       q    Type
REMARK                         _______ _______ _______ _____ _____    ______ ____
ROOT
ATOM      1  C   UNL     1       3.304   4.893  19.351  0.00  0.00    +0.000 A 
ATOM      2  S   UNL     1       4.585   3.768  19.150  0.00  0.00    +0.000 S 
ATOM      3  C   UNL     1       5.525   4.856  18.226  0.00  0.00    +0.000 A 
ATOM      4  C   UNL     1       4.893   6.077  18.096  0.00  0.00    +0.000 A 
ATOM      5  C   UNL     1       3.616   6.129  18.790  0.00  0.00    +0.000 A 
ENDROOT
BRANCH   5   6
ATOM      6  C   UNL     1       2.741   7.313  18.921  0.00  0.00    +0.000 A 
ATOM      7  C   UNL     1       2.169   7.648  20.158  0.00  0.00    +0.000 A 
ATOM      8  C   UNL     1       1.218   8.669  20.261  0.00  0.00    +0.000 A 
ATOM      9  C   UNL     1       0.877   9.404  19.133  0.00  0.00    +0.000 A 
ATOM     10  C   UNL     1       1.480   9.140  17.912  0.00  0.00    +0.000 A 
ATOM     11  C   UNL     1       2.389   8.084  17.800  0.00  0.00    +0.000 A 
BRANCH   9  12
ATOM     12  O   UNL     1      -0.061  10.390  19.182  0.00  0.00    +0.000 OA
ATOM     13  H   UNL     1      -0.240  10.692  18.276  0.00  0.00    +0.000 HD
ENDBRANCH   9  12
ENDBRANCH   5   6
BRANCH   1  14
ATOM     14  C   UNL     1       2.069   4.470  19.989  0.00  0.00    +0.000 C 
ATOM     15  O   UNL     1       1.874   4.441  21.198  0.00  0.00    +0.000 OA
BRANCH  14  16
ATOM     16  O   UNL     1       1.145   4.047  19.067  0.00  0.00    +0.000 OA
BRANCH  16  18
ATOM     17  C   UNL     1       1.670   1.732  18.502  0.00  0.00    +0.000 C 
ATOM     18  C   UNL     1       0.723   2.682  19.213  0.00  0.00    +0.000 C 
ENDBRANCH  16  18
ENDBRANCH  14  16
ENDBRANCH   1  14
BRANCH   4  19
ATOM     19  C   UNL     1       5.453   7.162  17.341  0.00  0.00    +0.000 C 
ATOM     20  N   UNL     1       5.927   8.031  16.736  0.00  0.00    +0.000 NA
ENDBRANCH   4  19
BRANCH   3  21
ATOM     21  S   UNL     1       7.050   4.298  17.528  0.00  0.00    +0.000 S 
BRANCH  21  22
ATOM     22  C   UNL     1       6.649   3.972  15.771  0.00  0.00    +0.000 C 
ATOM     23  C   UNL     1       5.143   3.904  15.541  0.00  0.00    +0.000 C 
ATOM     24  C   UNL     1       7.258   5.092  14.925  0.00  0.00    +0.000 C 
ENDBRANCH  21  22
ENDBRANCH   3  21
TORSDOF 8
ENDMDL
