MODEL 1
REMARK VINA RESULT:      -7.9      0.000      0.000
REMARK  Name = 
REMARK  5 active torsions:
REMARK  status: ('A' for Active; 'I' for Inactive)
REMARK    1  A    between atoms: C_1  and  C_2
REMARK    2  A    between atoms: C_4  and  C_5
REMARK    3  A    between atoms: C_9  and  C_11
REMARK    4  A    between atoms: C_14  and  N_15
REMARK    5  A    between atoms: C_18  and  C_19
REMARK                            x       y       z     vdW  Elec       q    Type
REMARK                         _______ _______ _______ _____ _____    ______ ____
ROOT
ATOM      1  C   UNL     1       0.957  12.365  18.951  0.00  0.00    +0.000 C 
ATOM      2  C   UNL     1       0.683  11.321  19.988  0.00  0.00    +0.000 A 
ATOM      3  C   UNL     1      -0.113  11.581  21.082  0.00  0.00    +0.000 A 
ATOM      4  C   UNL     1      -0.271  10.550  21.987  0.00  0.00    +0.000 A 
ATOM      5  C   UNL     1      -1.140  10.730  23.196  0.00  0.00    +0.000 C 
ATOM      6  N   UNL     1       0.323   9.345  21.828  0.00  0.00    +0.000 NA
ATOM      7  C   UNL     1       1.057   9.172  20.715  0.00  0.00    +0.000 A 
ATOM      8  N   UNL     1       1.632   7.912  20.584  0.00  0.00    +0.000 N 
ATOM      9  C   UNL     1       2.231   7.441  19.439  0.00  0.00    +0.000 C 
ATOM     10  O   UNL     1       2.284   8.002  18.352  0.00  0.00    +0.000 OA
ATOM     11  N   UNL     1       1.264  10.121  19.798  0.00  0.00    +0.000 NA
ATOM     12  H   UNL     1       1.458   7.316  21.375  0.00  0.00    +0.000 HD
ENDROOT
BRANCH   9  13
ATOM     13  C   UNL     1       2.813   6.070  19.527  0.00  0.00    +0.000 A 
ATOM     14  C   UNL     1       3.934   5.679  18.787  0.00  0.00    +0.000 A 
ATOM     15  C   UNL     1       4.404   4.364  18.884  0.00  0.00    +0.000 A 
ATOM     16  C   UNL     1       3.753   3.447  19.729  0.00  0.00    +0.000 A 
ATOM     17  C   UNL     1       2.633   3.815  20.492  0.00  0.00    +0.000 A 
ATOM     18  C   UNL     1       1.922   2.918  21.467  0.00  0.00    +0.000 C 
ATOM     19  C   UNL     1       2.167   5.135  20.360  0.00  0.00    +0.000 A 
BRANCH  16  20
ATOM     20  N   UNL     1       4.286   2.092  19.769  0.00  0.00    +0.000 N 
ATOM     21  O   UNL     1       3.860   1.300  18.918  0.00  0.00    +0.000 OA
ATOM     22  O   UNL     1       5.093   1.824  20.669  0.00  0.00    +0.000 OA
ENDBRANCH  16  20
ENDBRANCH   9  13
TORSDOF 2
ENDMDL
MODEL 2
REMARK VINA RESULT:      -7.4      4.955      8.306
REMARK  Name = 
REMARK  5 active torsions:
REMARK  status: ('A' for Active; 'I' for Inactive)
REMARK    1  A    between atoms: C_1  and  C_2
REMARK    2  A    between atoms: C_4  and  C_5
REMARK    3  A    between atoms: C_9  and  C_11
REMARK    4  A    between atoms: C_14  and  N_15
REMARK    5  A    between atoms: C_18  and  C_19
REMARK                            x       y       z     vdW  Elec       q    Type
REMARK                         _______ _______ _______ _____ _____    ______ ____
ROOT
ATOM      1  C   UNL     1       8.736   6.100  12.732  0.00  0.00    +0.000 C 
ATOM      2  C   UNL     1       7.671   5.062  12.895  0.00  0.00    +0.000 A 
ATOM      3  C   UNL     1       7.404   4.140  11.907  0.00  0.00    +0.000 A 
ATOM      4  C   UNL     1       6.379   3.248  12.157  0.00  0.00    +0.000 A 
ATOM      5  C   UNL     1       6.032   2.191  11.152  0.00  0.00    +0.000 C 
ATOM      6  N   UNL     1       5.660   3.271  13.303  0.00  0.00    +0.000 NA
ATOM      7  C   UNL     1       6.011   4.186  14.222  0.00  0.00    +0.000 A 
ATOM      8  N   UNL     1       5.257   4.158  15.392  0.00  0.00    +0.000 N 
ATOM      9  C   UNL     1       5.573   4.842  16.542  0.00  0.00    +0.000 C 
ATOM     10  O   UNL     1       6.583   5.503  16.752  0.00  0.00    +0.000 OA
ATOM     11  N   UNL     1       6.983   5.086  14.052  0.00  0.00    +0.000 NA
ATOM     12  H   UNL     1       4.512   3.483  15.364  0.00  0.00    +0.000 HD
ENDROOT
BRANCH   9  13
ATOM     13  C   UNL     1       4.607   4.697  17.670  0.00  0.00    +0.000 A 
ATOM     14  C   UNL     1       4.497   5.645  18.694  0.00  0.00    +0.000 A 
ATOM     15  C   UNL     1       3.600   5.428  19.745  0.00  0.00    +0.000 A 
ATOM     16  C   UNL     1       2.811   4.264  19.765  0.00  0.00    +0.000 A 
ATOM     17  C   UNL     1       2.891   3.302  18.745  0.00  0.00    +0.000 A 
ATOM     18  C   UNL     1       2.038   2.068  18.655  0.00  0.00    +0.000 C 
ATOM     19  C   UNL     1       3.816   3.533  17.711  0.00  0.00    +0.000 A 
BRANCH  16  20
ATOM     20  N   UNL     1       1.911   4.095  20.897  0.00  0.00    +0.000 N 
ATOM     21  O   UNL     1       0.777   4.582  20.787  0.00  0.00    +0.000 OA
ATOM     22  O   UNL     1       2.354   3.511  21.895  0.00  0.00    +0.000 OA
ENDBRANCH  16  20
ENDBRANCH   9  13
TORSDOF 2
ENDMDL
MODEL 3
REMARK VINA RESULT:      -7.3      1.697      2.584
REMARK  Name = 
REMARK  5 active torsions:
REMARK  status: ('A' for Active; 'I' for Inactive)
REMARK    1  A    between atoms: C_1  and  C_2
REMARK    2  A    between atoms: C_4  and  C_5
REMARK    3  A    between atoms: C_9  and  C_11
REMARK    4  A    between atoms: C_14  and  N_15
REMARK    5  A    between atoms: C_18  and  C_19
REMARK                            x       y       z     vdW  Elec       q    Type
REMARK                         _______ _______ _______ _____ _____    ______ ____
ROOT
ATOM      1  C   UNL     1      -0.031  13.639  18.699  0.00  0.00    +0.000 C 
ATOM      2  C   UNL     1      -0.096  12.485  19.650  0.00  0.00    +0.000 A 
ATOM      3  C   UNL     1      -0.826  12.551  20.816  0.00  0.00    +0.000 A 
ATOM      4  C   UNL     1      -0.788  11.436  21.630  0.00  0.00    +0.000 A 
ATOM      5  C   UNL     1      -1.571  11.403  22.909  0.00  0.00    +0.000 C 
ATOM      6  N   UNL     1      -0.071  10.332  21.318  0.00  0.00    +0.000 NA
ATOM      7  C   UNL     1       0.586  10.346  20.145  0.00  0.00    +0.000 A 
ATOM      8  N   UNL     1       1.293   9.183  19.856  0.00  0.00    +0.000 N 
ATOM      9  C   UNL     1       1.848   8.888  18.634  0.00  0.00    +0.000 C 
ATOM     10  O   UNL     1       1.748   9.542  17.603  0.00  0.00    +0.000 OA
ATOM     11  N   UNL     1       0.605  11.387  19.309  0.00  0.00    +0.000 NA
ATOM     12  H   UNL     1       1.255   8.505  20.599  0.00  0.00    +0.000 HD
ENDROOT
BRANCH   9  13
ATOM     13  C   UNL     1       2.593   7.598  18.552  0.00  0.00    +0.000 A 
ATOM     14  C   UNL     1       2.454   6.586  19.509  0.00  0.00    +0.000 A 
ATOM     15  C   UNL     1       3.214   5.417  19.396  0.00  0.00    +0.000 A 
ATOM     16  C   UNL     1       4.107   5.262  18.320  0.00  0.00    +0.000 A 
ATOM     17  C   UNL     1       4.258   6.255  17.339  0.00  0.00    +0.000 A 
ATOM     18  C   UNL     1       5.136   6.140  16.125  0.00  0.00    +0.000 C 
ATOM     19  C   UNL     1       3.499   7.430  17.488  0.00  0.00    +0.000 A 
BRANCH  16  20
ATOM     20  N   UNL     1       4.877   4.027  18.273  0.00  0.00    +0.000 N 
ATOM     21  O   UNL     1       4.384   3.085  17.638  0.00  0.00    +0.000 OA
ATOM     22  O   UNL     1       5.946   3.998  18.899  0.00  0.00    +0.000 OA
ENDBRANCH  16  20
ENDBRANCH   9  13
TORSDOF 2
ENDMDL
MODEL 4
REMARK VINA RESULT:      -7.3      0.763      1.801
REMARK  Name = 
REMARK  5 active torsions:
REMARK  status: ('A' for Active; 'I' for Inactive)
REMARK    1  A    between atoms: C_1  and  C_2
REMARK    2  A    between atoms: C_4  and  C_5
REMARK    3  A    between atoms: C_9  and  C_11
REMARK    4  A    between atoms: C_14  and  N_15
REMARK    5  A    between atoms: C_18  and  C_19
REMARK                            x       y       z     vdW  Elec       q    Type
REMARK                         _______ _______ _______ _____ _____    ______ ____
ROOT
ATOM      1  C   UNL     1       1.357  12.779  18.604  0.00  0.00    +0.000 C 
ATOM      2  C   UNL     1       0.942  11.763  19.622  0.00  0.00    +0.000 A 
ATOM      3  C   UNL     1       0.147  12.100  20.695  0.00  0.00    +0.000 A 
ATOM      4  C   UNL     1      -0.147  11.085  21.585  0.00  0.00    +0.000 A 
ATOM      5  C   UNL     1      -1.028  11.349  22.771  0.00  0.00    +0.000 C 
ATOM      6  N   UNL     1       0.319   9.825  21.431  0.00  0.00    +0.000 NA
ATOM      7  C   UNL     1       1.063   9.582  20.339  0.00  0.00    +0.000 A 
ATOM      8  N   UNL     1       1.505   8.268  20.212  0.00  0.00    +0.000 N 
ATOM      9  C   UNL     1       2.084   7.744  19.081  0.00  0.00    +0.000 C 
ATOM     10  O   UNL     1       2.229   8.303  18.001  0.00  0.00    +0.000 OA
ATOM     11  N   UNL     1       1.398  10.509  19.438  0.00  0.00    +0.000 NA
ATOM     12  H   UNL     1       1.244   7.689  20.992  0.00  0.00    +0.000 HD
ENDROOT
BRANCH   9  13
ATOM     13  C   UNL     1       2.513   6.318  19.172  0.00  0.00    +0.000 A 
ATOM     14  C   UNL     1       2.215   5.510  20.275  0.00  0.00    +0.000 A 
ATOM     15  C   UNL     1       2.685   4.193  20.317  0.00  0.00    +0.000 A 
ATOM     16  C   UNL     1       3.446   3.686  19.249  0.00  0.00    +0.000 A 
ATOM     17  C   UNL     1       3.750   4.469  18.123  0.00  0.00    +0.000 A 
ATOM     18  C   UNL     1       4.498   3.984  16.913  0.00  0.00    +0.000 C 
ATOM     19  C   UNL     1       3.286   5.797  18.116  0.00  0.00    +0.000 A 
BRANCH  16  20
ATOM     20  N   UNL     1       3.916   2.312  19.365  0.00  0.00    +0.000 N 
ATOM     21  O   UNL     1       4.916   2.122  20.072  0.00  0.00    +0.000 OA
ATOM     22  O   UNL     1       3.307   1.445  18.724  0.00  0.00    +0.000 OA
ENDBRANCH  16  20
ENDBRANCH   9  13
TORSDOF 2
ENDMDL
MODEL 5
REMARK VINA RESULT:      -7.2      1.384      1.656
REMARK  Name = 
REMARK  5 active torsions:
REMARK  status: ('A' for Active; 'I' for Inactive)
REMARK    1  A    between atoms: C_1  and  C_2
REMARK    2  A    between atoms: C_4  and  C_5
REMARK    3  A    between atoms: C_9  and  C_11
REMARK    4  A    between atoms: C_14  and  N_15
REMARK    5  A    between atoms: C_18  and  C_19
REMARK                            x       y       z     vdW  Elec       q    Type
REMARK                         _______ _______ _______ _____ _____    ______ ____
ROOT
ATOM      1  C   UNL     1      -0.473  13.309  18.236  0.00  0.00    +0.000 C 
ATOM      2  C   UNL     1      -0.354  12.317  19.351  0.00  0.00    +0.000 A 
ATOM      3  C   UNL     1      -0.946  12.534  20.575  0.00  0.00    +0.000 A 
ATOM      4  C   UNL     1      -0.744  11.563  21.537  0.00  0.00    +0.000 A 
ATOM      5  C   UNL     1      -1.369  11.698  22.894  0.00  0.00    +0.000 C 
ATOM      6  N   UNL     1      -0.001  10.457  21.308  0.00  0.00    +0.000 NA
ATOM      7  C   UNL     1       0.513  10.315  20.074  0.00  0.00    +0.000 A 
ATOM      8  N   UNL     1       1.253   9.153  19.878  0.00  0.00    +0.000 N 
ATOM      9  C   UNL     1       1.680   8.694  18.654  0.00  0.00    +0.000 C 
ATOM     10  O   UNL     1       1.419   9.172  17.557  0.00  0.00    +0.000 OA
ATOM     11  N   UNL     1       0.369  11.211  19.094  0.00  0.00    +0.000 NA
ATOM     12  H   UNL     1       1.344   8.599  20.713  0.00  0.00    +0.000 HD
ENDROOT
BRANCH   9  13
ATOM     13  C   UNL     1       2.490   7.441  18.676  0.00  0.00    +0.000 A 
ATOM     14  C   UNL     1       3.494   7.177  17.738  0.00  0.00    +0.000 A 
ATOM     15  C   UNL     1       4.187   5.963  17.789  0.00  0.00    +0.000 A 
ATOM     16  C   UNL     1       3.877   5.019  18.785  0.00  0.00    +0.000 A 
ATOM     17  C   UNL     1       2.883   5.262  19.746  0.00  0.00    +0.000 A 
ATOM     18  C   UNL     1       2.537   4.339  20.881  0.00  0.00    +0.000 C 
ATOM     19  C   UNL     1       2.185   6.481  19.659  0.00  0.00    +0.000 A 
BRANCH  16  20
ATOM     20  N   UNL     1       4.627   3.771  18.770  0.00  0.00    +0.000 N 
ATOM     21  O   UNL     1       4.114   2.819  18.164  0.00  0.00    +0.000 OA
ATOM     22  O   UNL     1       5.698   3.742  19.390  0.00  0.00    +0.000 OA
ENDBRANCH  16  20
ENDBRANCH   9  13
TORSDOF 2
ENDMDL
MODEL 6
REMARK VINA RESULT:      -7.1      2.798      7.911
REMARK  Name = 
REMARK  5 active torsions:
REMARK  status: ('A' for Active; 'I' for Inactive)
REMARK    1  A    between atoms: C_1  and  C_2
REMARK    2  A    between atoms: C_4  and  C_5
REMARK    3  A    between atoms: C_9  and  C_11
REMARK    4  A    between atoms: C_14  and  N_15
REMARK    5  A    between atoms: C_18  and  C_19
REMARK                            x       y       z     vdW  Elec       q    Type
REMARK                         _______ _______ _______ _____ _____    ______ ____
ROOT
ATOM      1  C   UNL     1       4.477   2.587  19.585  0.00  0.00    +0.000 C 
ATOM      2  C   UNL     1       4.371   3.788  18.699  0.00  0.00    +0.000 A 
ATOM      3  C   UNL     1       4.980   3.830  17.464  0.00  0.00    +0.000 A 
ATOM      4  C   UNL     1       4.839   5.002  16.748  0.00  0.00    +0.000 A 
ATOM      5  C   UNL     1       5.444   5.134  15.382  0.00  0.00    +0.000 C 
ATOM      6  N   UNL     1       4.149   6.065  17.222  0.00  0.00    +0.000 NA
ATOM      7  C   UNL     1       3.564   5.923  18.423  0.00  0.00    +0.000 A 
ATOM      8  N   UNL     1       2.849   7.034  18.861  0.00  0.00    +0.000 N 
ATOM      9  C   UNL     1       1.998   7.040  19.940  0.00  0.00    +0.000 C 
ATOM     10  O   UNL     1       1.671   6.079  20.626  0.00  0.00    +0.000 OA
ATOM     11  N   UNL     1       3.661   4.826  19.179  0.00  0.00    +0.000 NA
ATOM     12  H   UNL     1       2.915   7.816  18.232  0.00  0.00    +0.000 HD
ENDROOT
BRANCH   9  13
ATOM     13  C   UNL     1       1.357   8.351  20.255  0.00  0.00    +0.000 A 
ATOM     14  C   UNL     1       1.289   9.398  19.330  0.00  0.00    +0.000 A 
ATOM     15  C   UNL     1       0.713  10.616  19.703  0.00  0.00    +0.000 A 
ATOM     16  C   UNL     1       0.198  10.780  21.002  0.00  0.00    +0.000 A 
ATOM     17  C   UNL     1       0.241   9.743  21.948  0.00  0.00    +0.000 A 
ATOM     18  C   UNL     1      -0.344   9.812  23.330  0.00  0.00    +0.000 C 
ATOM     19  C   UNL     1       0.847   8.536  21.555  0.00  0.00    +0.000 A 
BRANCH  16  20
ATOM     20  N   UNL     1      -0.373  12.079  21.328  0.00  0.00    +0.000 N 
ATOM     21  O   UNL     1       0.372  12.891  21.894  0.00  0.00    +0.000 OA
ATOM     22  O   UNL     1      -1.566  12.263  21.049  0.00  0.00    +0.000 OA
ENDBRANCH  16  20
ENDBRANCH   9  13
TORSDOF 2
ENDMDL
MODEL 7
REMARK VINA RESULT:      -7.0      2.940      7.938
REMARK  Name = 
REMARK  5 active torsions:
REMARK  status: ('A' for Active; 'I' for Inactive)
REMARK    1  A    between atoms: C_1  and  C_2
REMARK    2  A    between atoms: C_4  and  C_5
REMARK    3  A    between atoms: C_9  and  C_11
REMARK    4  A    between atoms: C_14  and  N_15
REMARK    5  A    between atoms: C_18  and  C_19
REMARK                            x       y       z     vdW  Elec       q    Type
REMARK                         _______ _______ _______ _____ _____    ______ ____
ROOT
ATOM      1  C   UNL     1       3.623   4.695  17.234  0.00  0.00    +0.000 C 
ATOM      2  C   UNL     1       3.103   4.626  18.636  0.00  0.00    +0.000 A 
ATOM      3  C   UNL     1       3.209   3.477  19.388  0.00  0.00    +0.000 A 
ATOM      4  C   UNL     1       2.667   3.521  20.658  0.00  0.00    +0.000 A 
ATOM      5  C   UNL     1       2.756   2.328  21.563  0.00  0.00    +0.000 C 
ATOM      6  N   UNL     1       2.055   4.623  21.149  0.00  0.00    +0.000 NA
ATOM      7  C   UNL     1       2.026   5.706  20.355  0.00  0.00    +0.000 A 
ATOM      8  N   UNL     1       1.404   6.822  20.909  0.00  0.00    +0.000 N 
ATOM      9  C   UNL     1       1.451   8.088  20.376  0.00  0.00    +0.000 C 
ATOM     10  O   UNL     1       2.095   8.454  19.400  0.00  0.00    +0.000 OA
ATOM     11  N   UNL     1       2.519   5.740  19.114  0.00  0.00    +0.000 NA
ATOM     12  H   UNL     1       1.013   6.643  21.818  0.00  0.00    +0.000 HD
ENDROOT
BRANCH   9  13
ATOM     13  C   UNL     1       0.685   9.133  21.116  0.00  0.00    +0.000 A 
ATOM     14  C   UNL     1       0.442   9.056  22.492  0.00  0.00    +0.000 A 
ATOM     15  C   UNL     1      -0.320  10.049  23.117  0.00  0.00    +0.000 A 
ATOM     16  C   UNL     1      -0.831  11.121  22.364  0.00  0.00    +0.000 A 
ATOM     17  C   UNL     1      -0.592  11.230  20.984  0.00  0.00    +0.000 A 
ATOM     18  C   UNL     1      -1.043  12.375  20.120  0.00  0.00    +0.000 C 
ATOM     19  C   UNL     1       0.157  10.208  20.375  0.00  0.00    +0.000 A 
BRANCH  16  20
ATOM     20  N   UNL     1      -1.629  12.109  23.076  0.00  0.00    +0.000 N 
ATOM     21  O   UNL     1      -1.037  13.122  23.474  0.00  0.00    +0.000 OA
ATOM     22  O   UNL     1      -2.825  11.850  23.262  0.00  0.00    +0.000 OA
ENDBRANCH  16  20
ENDBRANCH   9  13
TORSDOF 2
ENDMDL
MODEL 8
REMARK VINA RESULT:      -7.0      2.361      2.722
REMARK  Name = 
REMARK  5 active torsions:
REMARK  status: ('A' for Active; 'I' for Inactive)
REMARK    1  A    between atoms: C_1  and  C_2
REMARK    2  A    between atoms: C_4  and  C_5
REMARK    3  A    between atoms: C_9  and  C_11
REMARK    4  A    between atoms: C_14  and  N_15
REMARK    5  A    between atoms: C_18  and  C_19
REMARK                            x       y       z     vdW  Elec       q    Type
REMARK                         _______ _______ _______ _____ _____    ______ ____
ROOT
ATOM      1  C   UNL     1      -1.055  11.726  19.096  0.00  0.00    +0.000 C 
ATOM      2  C   UNL     1      -0.354  10.712  19.945  0.00  0.00    +0.000 A 
ATOM      3  C   UNL     1      -0.622  10.589  21.290  0.00  0.00    +0.000 A 
ATOM      4  C   UNL     1       0.107   9.638  21.978  0.00  0.00    +0.000 A 
ATOM      5  C   UNL     1      -0.132   9.412  23.441  0.00  0.00    +0.000 C 
ATOM      6  N   UNL     1       1.043   8.866  21.379  0.00  0.00    +0.000 NA
ATOM      7  C   UNL     1       1.215   9.036  20.058  0.00  0.00    +0.000 A 
ATOM      8  N   UNL     1       2.174   8.208  19.481  0.00  0.00    +0.000 N 
ATOM      9  C   UNL     1       2.360   8.051  18.128  0.00  0.00    +0.000 C 
ATOM     10  O   UNL     1       1.681   8.534  17.230  0.00  0.00    +0.000 OA
ATOM     11  N   UNL     1       0.556   9.938  19.325  0.00  0.00    +0.000 NA
ATOM     12  H   UNL     1       2.646   7.627  20.153  0.00  0.00    +0.000 HD
ENDROOT
BRANCH   9  13
ATOM     13  C   UNL     1       3.468   7.136  17.726  0.00  0.00    +0.000 A 
ATOM     14  C   UNL     1       4.323   7.414  16.653  0.00  0.00    +0.000 A 
ATOM     15  C   UNL     1       5.316   6.493  16.303  0.00  0.00    +0.000 A 
ATOM     16  C   UNL     1       5.455   5.299  17.033  0.00  0.00    +0.000 A 
ATOM     17  C   UNL     1       4.620   5.000  18.122  0.00  0.00    +0.000 A 
ATOM     18  C   UNL     1       4.745   3.783  18.995  0.00  0.00    +0.000 C 
ATOM     19  C   UNL     1       3.615   5.931  18.440  0.00  0.00    +0.000 A 
BRANCH  16  20
ATOM     20  N   UNL     1       6.499   4.379  16.604  0.00  0.00    +0.000 N 
ATOM     21  O   UNL     1       6.174   3.509  15.784  0.00  0.00    +0.000 OA
ATOM     22  O   UNL     1       7.620   4.510  17.114  0.00  0.00    +0.000 OA
ENDBRANCH  16  20
ENDBRANCH   9  13
TORSDOF 2
ENDMDL
MODEL 9
REMARK VINA RESULT:      -7.0      4.938      8.360
REMARK  Name = 
REMARK  5 active torsions:
REMARK  status: ('A' for Active; 'I' for Inactive)
REMARK    1  A    between atoms: C_1  and  C_2
REMARK    2  A    between atoms: C_4  and  C_5
REMARK    3  A    between atoms: C_9  and  C_11
REMARK    4  A    between atoms: C_14  and  N_15
REMARK    5  A    between atoms: C_18  and  C_19
REMARK                            x       y       z     vdW  Elec       q    Type
REMARK                         _______ _______ _______ _____ _____    ______ ____
ROOT
ATOM      1  C   UNL     1       8.749   6.131  12.788  0.00  0.00    +0.000 C 
ATOM      2  C   UNL     1       7.695   5.077  12.930  0.00  0.00    +0.000 A 
ATOM      3  C   UNL     1       7.438   4.174  11.923  0.00  0.00    +0.000 A 
ATOM      4  C   UNL     1       6.423   3.266  12.154  0.00  0.00    +0.000 A 
ATOM      5  C   UNL     1       6.086   2.227  11.127  0.00  0.00    +0.000 C 
ATOM      6  N   UNL     1       5.705   3.255  13.301  0.00  0.00    +0.000 NA
ATOM      7  C   UNL     1       6.047   4.153  14.240  0.00  0.00    +0.000 A 
ATOM      8  N   UNL     1       5.295   4.092  15.410  0.00  0.00    +0.000 N 
ATOM      9  C   UNL     1       5.605   4.754  16.574  0.00  0.00    +0.000 C 
ATOM     10  O   UNL     1       6.608   5.422  16.797  0.00  0.00    +0.000 OA
ATOM     11  N   UNL     1       7.009   5.068  14.088  0.00  0.00    +0.000 NA
ATOM     12  H   UNL     1       4.558   3.409  15.368  0.00  0.00    +0.000 HD
ENDROOT
BRANCH   9  13
ATOM     13  C   UNL     1       4.643   4.574  17.700  0.00  0.00    +0.000 A 
ATOM     14  C   UNL     1       4.376   3.324  18.270  0.00  0.00    +0.000 A 
ATOM     15  C   UNL     1       3.430   3.219  19.295  0.00  0.00    +0.000 A 
ATOM     16  C   UNL     1       2.759   4.367  19.752  0.00  0.00    +0.000 A 
ATOM     17  C   UNL     1       3.016   5.636  19.207  0.00  0.00    +0.000 A 
ATOM     18  C   UNL     1       2.394   6.920  19.682  0.00  0.00    +0.000 C 
ATOM     19  C   UNL     1       3.954   5.712  18.162  0.00  0.00    +0.000 A 
BRANCH  16  20
ATOM     20  N   UNL     1       1.776   4.182  20.811  0.00  0.00    +0.000 N 
ATOM     21  O   UNL     1       0.586   4.148  20.468  0.00  0.00    +0.000 OA
ATOM     22  O   UNL     1       2.197   4.110  21.973  0.00  0.00    +0.000 OA
ENDBRANCH  16  20
ENDBRANCH   9  13
TORSDOF 2
ENDMDL
