MODEL 1
REMARK VINA RESULT:      -5.6      0.000      0.000
REMARK  Name = 
REMARK  11 active torsions:
REMARK  status: ('A' for Active; 'I' for Inactive)
REMARK    1  A    between atoms: C_1  and  O_2
REMARK    2  A    between atoms: O_2  and  C_3
REMARK    3  A    between atoms: C_3  and  C_4
REMARK    4  A    between atoms: C_4  and  N_5
REMARK    5  A    between atoms: N_8  and  C_9
REMARK    6  A    between atoms: C_9  and  C_10
REMARK    7  A    between atoms: C_10  and  C_11
REMARK    8  A    between atoms: C_11  and  C_12
REMARK    9  A    between atoms: C_12  and  N_13
REMARK   10  A    between atoms: C_12  and  C_14
REMARK   11  A    between atoms: C_14  and  O_16
REMARK                            x       y       z     vdW  Elec       q    Type
REMARK                         _______ _______ _______ _____ _____    ______ ____
ROOT
ATOM      1  N   UNK     1       6.028   3.997  18.877  0.00  0.00    +0.000 N 
ATOM      2  C   UNK     1       4.862   3.392  18.557  0.00  0.00    +0.000 C 
ATOM      3  N   UNK     1       4.503   2.258  19.044  0.00  0.00    +0.000 NA
ATOM      4  N   UNK     1       4.117   4.101  17.670  0.00  0.00    +0.000 N 
ATOM      5  H   UNK     1       6.650   3.488  19.490  0.00  0.00    +0.000 HD
ATOM      6  H   UNK     1       5.232   1.915  19.670  0.00  0.00    +0.000 HD
ATOM      7  H   UNK     1       4.667   4.338  16.853  0.00  0.00    +0.000 HD
ENDROOT
BRANCH   1   8
ATOM      8  C   UNK     1       6.113   5.450  19.038  0.00  0.00    +0.000 C 
BRANCH   8   9
ATOM      9  C   UNK     1       7.404   6.009  18.442  0.00  0.00    +0.000 C 
BRANCH   9  11
ATOM     10  C   UNK     1       7.804   8.194  17.645  0.00  0.00    +0.000 C 
ATOM     11  O   UNK     1       7.081   6.990  17.454  0.00  0.00    +0.000 OA
ENDBRANCH   9  11
ENDBRANCH   8   9
ENDBRANCH   1   8
BRANCH   4  12
ATOM     12  C   UNK     1       2.752   3.722  17.375  0.00  0.00    +0.000 C 
BRANCH  12  13
ATOM     13  C   UNK     1       1.779   4.577  18.188  0.00  0.00    +0.000 C 
BRANCH  13  14
ATOM     14  C   UNK     1       1.193   3.741  19.335  0.00  0.00    +0.000 C 
BRANCH  14  15
ATOM     15  C   UNK     1       1.603   4.171  20.747  0.00  0.00    +0.000 C 
BRANCH  15  16
ATOM     16  N   UNK     1       2.728   5.127  20.692  0.00  0.00    +0.000 NA
ATOM     17  H   UNK     1       3.467   4.791  21.317  0.00  0.00    +0.000 HD
ATOM     18  H   UNK     1       2.426   5.995  21.143  0.00  0.00    +0.000 HD
ENDBRANCH  15  16
BRANCH  15  19
ATOM     19  C   UNK     1       1.951   2.985  21.665  0.00  0.00    +0.000 C 
ATOM     20  O   UNK     1       1.153   2.434  22.410  0.00  0.00    +0.000 OA
BRANCH  19  21
ATOM     21  O   UNK     1       3.230   2.555  21.552  0.00  0.00    +0.000 OA
ATOM     22  H   UNK     1       3.646   2.285  22.395  0.00  0.00    +0.000 HD
ENDBRANCH  19  21
ENDBRANCH  15  19
ENDBRANCH  14  15
ENDBRANCH  13  14
ENDBRANCH  12  13
ENDBRANCH   4  12
TORSDOF 10
ENDMDL
MODEL 2
REMARK VINA RESULT:      -5.5      1.841      2.112
REMARK  Name = 
REMARK  11 active torsions:
REMARK  status: ('A' for Active; 'I' for Inactive)
REMARK    1  A    between atoms: C_1  and  O_2
REMARK    2  A    between atoms: O_2  and  C_3
REMARK    3  A    between atoms: C_3  and  C_4
REMARK    4  A    between atoms: C_4  and  N_5
REMARK    5  A    between atoms: N_8  and  C_9
REMARK    6  A    between atoms: C_9  and  C_10
REMARK    7  A    between atoms: C_10  and  C_11
REMARK    8  A    between atoms: C_11  and  C_12
REMARK    9  A    between atoms: C_12  and  N_13
REMARK   10  A    between atoms: C_12  and  C_14
REMARK   11  A    between atoms: C_14  and  O_16
REMARK                            x       y       z     vdW  Elec       q    Type
REMARK                         _______ _______ _______ _____ _____    ______ ____
ROOT
ATOM      1  N   UNK     1       6.011   4.114  17.858  0.00  0.00    +0.000 N 
ATOM      2  C   UNK     1       5.023   3.433  18.481  0.00  0.00    +0.000 C 
ATOM      3  N   UNK     1       4.856   3.448  19.755  0.00  0.00    +0.000 NA
ATOM      4  N   UNK     1       4.235   2.732  17.626  0.00  0.00    +0.000 N 
ATOM      5  H   UNK     1       6.665   4.609  18.450  0.00  0.00    +0.000 HD
ATOM      6  H   UNK     1       5.579   4.027  20.183  0.00  0.00    +0.000 HD
ATOM      7  H   UNK     1       4.798   2.139  17.028  0.00  0.00    +0.000 HD
ENDROOT
BRANCH   1   8
ATOM      8  C   UNK     1       5.791   4.766  16.565  0.00  0.00    +0.000 C 
BRANCH   8   9
ATOM      9  C   UNK     1       6.945   5.698  16.200  0.00  0.00    +0.000 C 
BRANCH   9  11
ATOM     10  C   UNK     1       6.590   4.419  14.249  0.00  0.00    +0.000 C 
ATOM     11  O   UNK     1       7.428   5.361  14.898  0.00  0.00    +0.000 OA
ENDBRANCH   9  11
ENDBRANCH   8   9
ENDBRANCH   1   8
BRANCH   4  12
ATOM     12  C   UNK     1       3.005   2.120  18.080  0.00  0.00    +0.000 C 
BRANCH  12  13
ATOM     13  C   UNK     1       1.871   3.146  18.075  0.00  0.00    +0.000 C 
BRANCH  13  14
ATOM     14  C   UNK     1       0.907   2.855  19.235  0.00  0.00    +0.000 C 
BRANCH  14  15
ATOM     15  C   UNK     1       1.177   3.624  20.532  0.00  0.00    +0.000 C 
BRANCH  15  16
ATOM     16  N   UNK     1       1.994   4.825  20.262  0.00  0.00    +0.000 NA
ATOM     17  H   UNK     1       2.943   4.522  20.022  0.00  0.00    +0.000 HD
ATOM     18  H   UNK     1       2.131   5.319  21.149  0.00  0.00    +0.000 HD
ENDBRANCH  15  16
BRANCH  15  19
ATOM     19  C   UNK     1       1.837   2.760  21.623  0.00  0.00    +0.000 C 
ATOM     20  O   UNK     1       3.032   2.503  21.667  0.00  0.00    +0.000 OA
BRANCH  19  21
ATOM     21  O   UNK     1       0.983   2.331  22.582  0.00  0.00    +0.000 OA
ATOM     22  H   UNK     1       0.922   2.914  23.364  0.00  0.00    +0.000 HD
ENDBRANCH  19  21
ENDBRANCH  15  19
ENDBRANCH  14  15
ENDBRANCH  13  14
ENDBRANCH  12  13
ENDBRANCH   4  12
TORSDOF 10
ENDMDL
MODEL 3
REMARK VINA RESULT:      -5.4      2.629      2.848
REMARK  Name = 
REMARK  11 active torsions:
REMARK  status: ('A' for Active; 'I' for Inactive)
REMARK    1  A    between atoms: C_1  and  O_2
REMARK    2  A    between atoms: O_2  and  C_3
REMARK    3  A    between atoms: C_3  and  C_4
REMARK    4  A    between atoms: C_4  and  N_5
REMARK    5  A    between atoms: N_8  and  C_9
REMARK    6  A    between atoms: C_9  and  C_10
REMARK    7  A    between atoms: C_10  and  C_11
REMARK    8  A    between atoms: C_11  and  C_12
REMARK    9  A    between atoms: C_12  and  N_13
REMARK   10  A    between atoms: C_12  and  C_14
REMARK   11  A    between atoms: C_14  and  O_16
REMARK                            x       y       z     vdW  Elec       q    Type
REMARK                         _______ _______ _______ _____ _____    ______ ____
ROOT
ATOM      1  N   UNK     1       5.792   3.927  17.305  0.00  0.00    +0.000 N 
ATOM      2  C   UNK     1       5.027   3.962  18.419  0.00  0.00    +0.000 C 
ATOM      3  N   UNK     1       5.123   3.096  19.364  0.00  0.00    +0.000 NA
ATOM      4  N   UNK     1       4.151   5.000  18.434  0.00  0.00    +0.000 N 
ATOM      5  H   UNK     1       6.425   3.143  17.213  0.00  0.00    +0.000 HD
ATOM      6  H   UNK     1       5.835   2.407  19.119  0.00  0.00    +0.000 HD
ATOM      7  H   UNK     1       3.599   5.010  17.585  0.00  0.00    +0.000 HD
ENDROOT
BRANCH   1   8
ATOM      8  C   UNK     1       6.297   5.155  16.687  0.00  0.00    +0.000 C 
BRANCH   8   9
ATOM      9  C   UNK     1       5.542   5.490  15.401  0.00  0.00    +0.000 C 
BRANCH   9  11
ATOM     10  C   UNK     1       6.425   4.000  13.798  0.00  0.00    +0.000 C 
ATOM     11  O   UNK     1       5.332   4.291  14.653  0.00  0.00    +0.000 OA
ENDBRANCH   9  11
ENDBRANCH   8   9
ENDBRANCH   1   8
BRANCH   4  12
ATOM     12  C   UNK     1       3.404   5.326  19.630  0.00  0.00    +0.000 C 
BRANCH  12  13
ATOM     13  C   UNK     1       1.910   5.096  19.398  0.00  0.00    +0.000 C 
BRANCH  13  14
ATOM     14  C   UNK     1       1.306   4.368  20.608  0.00  0.00    +0.000 C 
BRANCH  14  15
ATOM     15  C   UNK     1       1.457   2.844  20.609  0.00  0.00    +0.000 C 
BRANCH  15  16
ATOM     16  N   UNK     1       2.739   2.450  21.229  0.00  0.00    +0.000 NA
ATOM     17  H   UNK     1       2.795   1.427  21.231  0.00  0.00    +0.000 HD
ATOM     18  H   UNK     1       2.690   2.677  22.226  0.00  0.00    +0.000 HD
ENDBRANCH  15  16
BRANCH  15  19
ATOM     19  C   UNK     1       1.324   2.220  19.208  0.00  0.00    +0.000 C 
ATOM     20  O   UNK     1       0.310   2.267  18.527  0.00  0.00    +0.000 OA
BRANCH  19  21
ATOM     21  O   UNK     1       2.459   1.637  18.752  0.00  0.00    +0.000 OA
ATOM     22  H   UNK     1       2.561   1.649  17.779  0.00  0.00    +0.000 HD
ENDBRANCH  19  21
ENDBRANCH  15  19
ENDBRANCH  14  15
ENDBRANCH  13  14
ENDBRANCH  12  13
ENDBRANCH   4  12
TORSDOF 10
ENDMDL
MODEL 4
REMARK VINA RESULT:      -5.4      1.899      2.474
REMARK  Name = 
REMARK  11 active torsions:
REMARK  status: ('A' for Active; 'I' for Inactive)
REMARK    1  A    between atoms: C_1  and  O_2
REMARK    2  A    between atoms: O_2  and  C_3
REMARK    3  A    between atoms: C_3  and  C_4
REMARK    4  A    between atoms: C_4  and  N_5
REMARK    5  A    between atoms: N_8  and  C_9
REMARK    6  A    between atoms: C_9  and  C_10
REMARK    7  A    between atoms: C_10  and  C_11
REMARK    8  A    between atoms: C_11  and  C_12
REMARK    9  A    between atoms: C_12  and  N_13
REMARK   10  A    between atoms: C_12  and  C_14
REMARK   11  A    between atoms: C_14  and  O_16
REMARK                            x       y       z     vdW  Elec       q    Type
REMARK                         _______ _______ _______ _____ _____    ______ ____
ROOT
ATOM      1  N   UNK     1       6.721   5.328  19.249  0.00  0.00    +0.000 N 
ATOM      2  C   UNK     1       5.503   4.740  19.243  0.00  0.00    +0.000 C 
ATOM      3  N   UNK     1       4.513   5.169  19.940  0.00  0.00    +0.000 NA
ATOM      4  N   UNK     1       5.439   3.653  18.431  0.00  0.00    +0.000 N 
ATOM      5  H   UNK     1       6.844   6.109  19.880  0.00  0.00    +0.000 HD
ATOM      6  H   UNK     1       4.808   5.982  20.480  0.00  0.00    +0.000 HD
ATOM      7  H   UNK     1       6.183   3.001  18.650  0.00  0.00    +0.000 HD
ENDROOT
BRANCH   1   8
ATOM      8  C   UNK     1       7.523   5.434  18.029  0.00  0.00    +0.000 C 
BRANCH   8   9
ATOM      9  C   UNK     1       6.973   6.502  17.084  0.00  0.00    +0.000 C 
BRANCH   9  11
ATOM     10  C   UNK     1       7.060   4.762  15.493  0.00  0.00    +0.000 C 
ATOM     11  O   UNK     1       6.319   5.865  15.985  0.00  0.00    +0.000 OA
ENDBRANCH   9  11
ENDBRANCH   8   9
ENDBRANCH   1   8
BRANCH   4  12
ATOM     12  C   UNK     1       4.171   3.024  18.129  0.00  0.00    +0.000 C 
BRANCH  12  13
ATOM     13  C   UNK     1       3.334   3.932  17.226  0.00  0.00    +0.000 C 
BRANCH  13  14
ATOM     14  C   UNK     1       1.868   3.904  17.683  0.00  0.00    +0.000 C 
BRANCH  14  15
ATOM     15  C   UNK     1       1.553   2.958  18.847  0.00  0.00    +0.000 C 
BRANCH  15  16
ATOM     16  N   UNK     1       0.439   2.055  18.493  0.00  0.00    +0.000 NA
ATOM     17  H   UNK     1      -0.387   2.337  19.029  0.00  0.00    +0.000 HD
ATOM     18  H   UNK     1       0.651   1.129  18.874  0.00  0.00    +0.000 HD
ENDBRANCH  15  16
BRANCH  15  19
ATOM     19  C   UNK     1       1.248   3.696  20.163  0.00  0.00    +0.000 C 
ATOM     20  O   UNK     1       1.391   4.900  20.325  0.00  0.00    +0.000 OA
BRANCH  19  21
ATOM     21  O   UNK     1       0.755   2.901  21.142  0.00  0.00    +0.000 OA
ATOM     22  H   UNK     1      -0.176   3.079  21.382  0.00  0.00    +0.000 HD
ENDBRANCH  19  21
ENDBRANCH  15  19
ENDBRANCH  14  15
ENDBRANCH  13  14
ENDBRANCH  12  13
ENDBRANCH   4  12
TORSDOF 10
ENDMDL
MODEL 5
REMARK VINA RESULT:      -5.4      1.926      2.445
REMARK  Name = 
REMARK  11 active torsions:
REMARK  status: ('A' for Active; 'I' for Inactive)
REMARK    1  A    between atoms: C_1  and  O_2
REMARK    2  A    between atoms: O_2  and  C_3
REMARK    3  A    between atoms: C_3  and  C_4
REMARK    4  A    between atoms: C_4  and  N_5
REMARK    5  A    between atoms: N_8  and  C_9
REMARK    6  A    between atoms: C_9  and  C_10
REMARK    7  A    between atoms: C_10  and  C_11
REMARK    8  A    between atoms: C_11  and  C_12
REMARK    9  A    between atoms: C_12  and  N_13
REMARK   10  A    between atoms: C_12  and  C_14
REMARK   11  A    between atoms: C_14  and  O_16
REMARK                            x       y       z     vdW  Elec       q    Type
REMARK                         _______ _______ _______ _____ _____    ______ ____
ROOT
ATOM      1  N   UNK     1       6.606   5.318  18.745  0.00  0.00    +0.000 N 
ATOM      2  C   UNK     1       5.450   4.757  19.167  0.00  0.00    +0.000 C 
ATOM      3  N   UNK     1       4.401   5.441  19.453  0.00  0.00    +0.000 NA
ATOM      4  N   UNK     1       5.516   3.403  19.258  0.00  0.00    +0.000 N 
ATOM      5  H   UNK     1       6.634   6.329  18.712  0.00  0.00    +0.000 HD
ATOM      6  H   UNK     1       4.601   6.433  19.325  0.00  0.00    +0.000 HD
ATOM      7  H   UNK     1       6.311   3.123  19.820  0.00  0.00    +0.000 HD
ENDROOT
BRANCH   1   8
ATOM      8  C   UNK     1       7.434   4.681  17.719  0.00  0.00    +0.000 C 
BRANCH   8   9
ATOM      9  C   UNK     1       6.867   4.904  16.318  0.00  0.00    +0.000 C 
BRANCH   9  11
ATOM     10  C   UNK     1       5.147   6.437  15.810  0.00  0.00    +0.000 C 
ATOM     11  O   UNK     1       6.510   6.279  16.168  0.00  0.00    +0.000 OA
ENDBRANCH   9  11
ENDBRANCH   8   9
ENDBRANCH   1   8
BRANCH   4  12
ATOM     12  C   UNK     1       4.324   2.615  19.483  0.00  0.00    +0.000 C 
BRANCH  12  13
ATOM     13  C   UNK     1       3.571   2.408  18.167  0.00  0.00    +0.000 C 
BRANCH  13  14
ATOM     14  C   UNK     1       2.079   2.188  18.455  0.00  0.00    +0.000 C 
BRANCH  14  15
ATOM     15  C   UNK     1       1.264   3.454  18.738  0.00  0.00    +0.000 C 
BRANCH  15  16
ATOM     16  N   UNK     1       1.773   4.588  17.939  0.00  0.00    +0.000 NA
ATOM     17  H   UNK     1       1.219   4.649  17.079  0.00  0.00    +0.000 HD
ATOM     18  H   UNK     1       2.703   4.337  17.593  0.00  0.00    +0.000 HD
ENDBRANCH  15  16
BRANCH  15  19
ATOM     19  C   UNK     1       1.221   3.827  20.231  0.00  0.00    +0.000 C 
ATOM     20  O   UNK     1       1.011   3.029  21.133  0.00  0.00    +0.000 OA
BRANCH  19  21
ATOM     21  O   UNK     1       1.484   5.131  20.484  0.00  0.00    +0.000 OA
ATOM     22  H   UNK     1       0.789   5.752  20.189  0.00  0.00    +0.000 HD
ENDBRANCH  19  21
ENDBRANCH  15  19
ENDBRANCH  14  15
ENDBRANCH  13  14
ENDBRANCH  12  13
ENDBRANCH   4  12
TORSDOF 10
ENDMDL
MODEL 6
REMARK VINA RESULT:      -5.3      2.829      6.418
REMARK  Name = 
REMARK  11 active torsions:
REMARK  status: ('A' for Active; 'I' for Inactive)
REMARK    1  A    between atoms: C_1  and  O_2
REMARK    2  A    between atoms: O_2  and  C_3
REMARK    3  A    between atoms: C_3  and  C_4
REMARK    4  A    between atoms: C_4  and  N_5
REMARK    5  A    between atoms: N_8  and  C_9
REMARK    6  A    between atoms: C_9  and  C_10
REMARK    7  A    between atoms: C_10  and  C_11
REMARK    8  A    between atoms: C_11  and  C_12
REMARK    9  A    between atoms: C_12  and  N_13
REMARK   10  A    between atoms: C_12  and  C_14
REMARK   11  A    between atoms: C_14  and  O_16
REMARK                            x       y       z     vdW  Elec       q    Type
REMARK                         _______ _______ _______ _____ _____    ______ ____
ROOT
ATOM      1  N   UNK     1       5.020   3.706  19.642  0.00  0.00    +0.000 N 
ATOM      2  C   UNK     1       5.583   4.838  19.163  0.00  0.00    +0.000 C 
ATOM      3  N   UNK     1       6.743   5.253  19.528  0.00  0.00    +0.000 NA
ATOM      4  N   UNK     1       4.799   5.488  18.264  0.00  0.00    +0.000 N 
ATOM      5  H   UNK     1       5.535   3.210  20.357  0.00  0.00    +0.000 HD
ATOM      6  H   UNK     1       7.129   4.611  20.220  0.00  0.00    +0.000 HD
ATOM      7  H   UNK     1       3.875   5.647  18.650  0.00  0.00    +0.000 HD
ENDROOT
BRANCH   1   8
ATOM      8  C   UNK     1       4.227   2.826  18.781  0.00  0.00    +0.000 C 
BRANCH   8   9
ATOM      9  C   UNK     1       2.946   2.364  19.475  0.00  0.00    +0.000 C 
BRANCH   9  11
ATOM     10  C   UNK     1       1.551   2.779  21.333  0.00  0.00    +0.000 C 
ATOM     11  O   UNK     1       2.725   3.165  20.637  0.00  0.00    +0.000 OA
ENDBRANCH   9  11
ENDBRANCH   8   9
ENDBRANCH   1   8
BRANCH   4  12
ATOM     12  C   UNK     1       5.315   6.593  17.487  0.00  0.00    +0.000 C 
BRANCH  12  13
ATOM     13  C   UNK     1       5.196   6.289  15.993  0.00  0.00    +0.000 C 
BRANCH  13  14
ATOM     14  C   UNK     1       5.264   4.771  15.768  0.00  0.00    +0.000 C 
BRANCH  14  15
ATOM     15  C   UNK     1       6.639   4.218  15.380  0.00  0.00    +0.000 C 
BRANCH  15  16
ATOM     16  N   UNK     1       7.634   4.519  16.431  0.00  0.00    +0.000 NA
ATOM     17  H   UNK     1       7.467   5.472  16.768  0.00  0.00    +0.000 HD
ATOM     18  H   UNK     1       8.551   4.594  15.983  0.00  0.00    +0.000 HD
ENDBRANCH  15  16
BRANCH  15  19
ATOM     19  C   UNK     1       7.132   4.724  14.013  0.00  0.00    +0.000 C 
ATOM     20  O   UNK     1       7.988   5.585  13.866  0.00  0.00    +0.000 OA
BRANCH  19  21
ATOM     21  O   UNK     1       6.567   4.097  12.954  0.00  0.00    +0.000 OA
ATOM     22  H   UNK     1       6.998   4.279  12.095  0.00  0.00    +0.000 HD
ENDBRANCH  19  21
ENDBRANCH  15  19
ENDBRANCH  14  15
ENDBRANCH  13  14
ENDBRANCH  12  13
ENDBRANCH   4  12
TORSDOF 10
ENDMDL
MODEL 7
REMARK VINA RESULT:      -5.3      1.610      1.903
REMARK  Name = 
REMARK  11 active torsions:
REMARK  status: ('A' for Active; 'I' for Inactive)
REMARK    1  A    between atoms: C_1  and  O_2
REMARK    2  A    between atoms: O_2  and  C_3
REMARK    3  A    between atoms: C_3  and  C_4
REMARK    4  A    between atoms: C_4  and  N_5
REMARK    5  A    between atoms: N_8  and  C_9
REMARK    6  A    between atoms: C_9  and  C_10
REMARK    7  A    between atoms: C_10  and  C_11
REMARK    8  A    between atoms: C_11  and  C_12
REMARK    9  A    between atoms: C_12  and  N_13
REMARK   10  A    between atoms: C_12  and  C_14
REMARK   11  A    between atoms: C_14  and  O_16
REMARK                            x       y       z     vdW  Elec       q    Type
REMARK                         _______ _______ _______ _____ _____    ______ ____
ROOT
ATOM      1  N   UNK     1       5.666   4.258  19.252  0.00  0.00    +0.000 N 
ATOM      2  C   UNK     1       4.964   3.102  19.232  0.00  0.00    +0.000 C 
ATOM      3  N   UNK     1       4.944   2.276  20.216  0.00  0.00    +0.000 NA
ATOM      4  N   UNK     1       4.290   2.906  18.069  0.00  0.00    +0.000 N 
ATOM      5  H   UNK     1       6.233   4.431  20.071  0.00  0.00    +0.000 HD
ATOM      6  H   UNK     1       5.538   2.631  20.966  0.00  0.00    +0.000 HD
ATOM      7  H   UNK     1       4.916   2.993  17.277  0.00  0.00    +0.000 HD
ENDROOT
BRANCH   1   8
ATOM      8  C   UNK     1       5.139   5.481  18.643  0.00  0.00    +0.000 C 
BRANCH   8   9
ATOM      9  C   UNK     1       5.983   5.925  17.449  0.00  0.00    +0.000 C 
BRANCH   9  11
ATOM     10  C   UNK     1       6.749   4.863  15.486  0.00  0.00    +0.000 C 
ATOM     11  O   UNK     1       5.627   5.146  16.305  0.00  0.00    +0.000 OA
ENDBRANCH   9  11
ENDBRANCH   8   9
ENDBRANCH   1   8
BRANCH   4  12
ATOM     12  C   UNK     1       3.320   1.840  17.943  0.00  0.00    +0.000 C 
BRANCH  12  13
ATOM     13  C   UNK     1       1.915   2.422  17.783  0.00  0.00    +0.000 C 
BRANCH  13  14
ATOM     14  C   UNK     1       1.161   2.325  19.117  0.00  0.00    +0.000 C 
BRANCH  14  15
ATOM     15  C   UNK     1       1.109   3.611  19.947  0.00  0.00    +0.000 C 
BRANCH  15  16
ATOM     16  N   UNK     1       1.682   4.741  19.186  0.00  0.00    +0.000 NA
ATOM     17  H   UNK     1       2.660   4.523  18.973  0.00  0.00    +0.000 HD
ATOM     18  H   UNK     1       1.760   5.541  19.821  0.00  0.00    +0.000 HD
ENDBRANCH  15  16
BRANCH  15  19
ATOM     19  C   UNK     1       1.802   3.479  21.315  0.00  0.00    +0.000 C 
ATOM     20  O   UNK     1       2.670   4.238  21.722  0.00  0.00    +0.000 OA
BRANCH  19  21
ATOM     21  O   UNK     1       1.337   2.460  22.075  0.00  0.00    +0.000 OA
ATOM     22  H   UNK     1       1.979   1.738  22.227  0.00  0.00    +0.000 HD
ENDBRANCH  19  21
ENDBRANCH  15  19
ENDBRANCH  14  15
ENDBRANCH  13  14
ENDBRANCH  12  13
ENDBRANCH   4  12
TORSDOF 10
ENDMDL
MODEL 8
REMARK VINA RESULT:      -5.2      2.288      2.855
REMARK  Name = 
REMARK  11 active torsions:
REMARK  status: ('A' for Active; 'I' for Inactive)
REMARK    1  A    between atoms: C_1  and  O_2
REMARK    2  A    between atoms: O_2  and  C_3
REMARK    3  A    between atoms: C_3  and  C_4
REMARK    4  A    between atoms: C_4  and  N_5
REMARK    5  A    between atoms: N_8  and  C_9
REMARK    6  A    between atoms: C_9  and  C_10
REMARK    7  A    between atoms: C_10  and  C_11
REMARK    8  A    between atoms: C_11  and  C_12
REMARK    9  A    between atoms: C_12  and  N_13
REMARK   10  A    between atoms: C_12  and  C_14
REMARK   11  A    between atoms: C_14  and  O_16
REMARK                            x       y       z     vdW  Elec       q    Type
REMARK                         _______ _______ _______ _____ _____    ______ ____
ROOT
ATOM      1  N   UNK     1       5.095   5.894  18.758  0.00  0.00    +0.000 N 
ATOM      2  C   UNK     1       3.770   5.664  18.901  0.00  0.00    +0.000 C 
ATOM      3  N   UNK     1       3.083   6.107  19.892  0.00  0.00    +0.000 NA
ATOM      4  N   UNK     1       3.246   4.917  17.894  0.00  0.00    +0.000 N 
ATOM      5  H   UNK     1       5.551   6.397  19.508  0.00  0.00    +0.000 HD
ATOM      6  H   UNK     1       3.697   6.622  20.523  0.00  0.00    +0.000 HD
ATOM      7  H   UNK     1       3.777   4.063  17.772  0.00  0.00    +0.000 HD
ENDROOT
BRANCH   1   8
ATOM      8  C   UNK     1       5.689   6.147  17.444  0.00  0.00    +0.000 C 
BRANCH   8   9
ATOM      9  C   UNK     1       6.682   5.053  17.054  0.00  0.00    +0.000 C 
BRANCH   9  11
ATOM     10  C   UNK     1       5.481   4.340  15.152  0.00  0.00    +0.000 C 
ATOM     11  O   UNK     1       5.977   3.978  16.430  0.00  0.00    +0.000 OA
ENDBRANCH   9  11
ENDBRANCH   8   9
ENDBRANCH   1   8
BRANCH   4  12
ATOM     12  C   UNK     1       1.816   4.750  17.760  0.00  0.00    +0.000 C 
BRANCH  12  13
ATOM     13  C   UNK     1       1.373   3.441  18.418  0.00  0.00    +0.000 C 
BRANCH  13  14
ATOM     14  C   UNK     1       2.577   2.496  18.545  0.00  0.00    +0.000 C 
BRANCH  14  15
ATOM     15  C   UNK     1       3.013   2.165  19.976  0.00  0.00    +0.000 C 
BRANCH  15  16
ATOM     16  N   UNK     1       2.370   3.082  20.939  0.00  0.00    +0.000 NA
ATOM     17  H   UNK     1       2.289   4.005  20.501  0.00  0.00    +0.000 HD
ATOM     18  H   UNK     1       3.030   3.251  21.703  0.00  0.00    +0.000 HD
ENDBRANCH  15  16
BRANCH  15  19
ATOM     19  C   UNK     1       4.541   2.177  20.162  0.00  0.00    +0.000 C 
ATOM     20  O   UNK     1       5.122   1.669  21.110  0.00  0.00    +0.000 OA
BRANCH  19  21
ATOM     21  O   UNK     1       5.218   2.769  19.149  0.00  0.00    +0.000 OA
ATOM     22  H   UNK     1       6.059   2.332  18.910  0.00  0.00    +0.000 HD
ENDBRANCH  19  21
ENDBRANCH  15  19
ENDBRANCH  14  15
ENDBRANCH  13  14
ENDBRANCH  12  13
ENDBRANCH   4  12
TORSDOF 10
ENDMDL
MODEL 9
REMARK VINA RESULT:      -5.2      2.049      2.317
REMARK  Name = 
REMARK  11 active torsions:
REMARK  status: ('A' for Active; 'I' for Inactive)
REMARK    1  A    between atoms: C_1  and  O_2
REMARK    2  A    between atoms: O_2  and  C_3
REMARK    3  A    between atoms: C_3  and  C_4
REMARK    4  A    between atoms: C_4  and  N_5
REMARK    5  A    between atoms: N_8  and  C_9
REMARK    6  A    between atoms: C_9  and  C_10
REMARK    7  A    between atoms: C_10  and  C_11
REMARK    8  A    between atoms: C_11  and  C_12
REMARK    9  A    between atoms: C_12  and  N_13
REMARK   10  A    between atoms: C_12  and  C_14
REMARK   11  A    between atoms: C_14  and  O_16
REMARK                            x       y       z     vdW  Elec       q    Type
REMARK                         _______ _______ _______ _____ _____    ______ ____
ROOT
ATOM      1  N   UNK     1       6.480   4.288  17.650  0.00  0.00    +0.000 N 
ATOM      2  C   UNK     1       5.306   3.761  18.067  0.00  0.00    +0.000 C 
ATOM      3  N   UNK     1       5.121   3.316  19.258  0.00  0.00    +0.000 NA
ATOM      4  N   UNK     1       4.352   3.750  17.101  0.00  0.00    +0.000 N 
ATOM      5  H   UNK     1       7.246   4.270  18.312  0.00  0.00    +0.000 HD
ATOM      6  H   UNK     1       5.983   3.415  19.793  0.00  0.00    +0.000 HD
ATOM      7  H   UNK     1       4.702   3.302  16.262  0.00  0.00    +0.000 HD
ENDROOT
BRANCH   1   8
ATOM      8  C   UNK     1       6.522   5.437  16.744  0.00  0.00    +0.000 C 
BRANCH   8   9
ATOM      9  C   UNK     1       6.964   5.031  15.339  0.00  0.00    +0.000 C 
BRANCH   9  11
ATOM     10  C   UNK     1       6.211   3.793  13.476  0.00  0.00    +0.000 C 
ATOM     11  O   UNK     1       5.831   4.559  14.607  0.00  0.00    +0.000 OA
ENDBRANCH   9  11
ENDBRANCH   8   9
ENDBRANCH   1   8
BRANCH   4  12
ATOM     12  C   UNK     1       2.978   3.426  17.416  0.00  0.00    +0.000 C 
BRANCH  12  13
ATOM     13  C   UNK     1       2.227   4.684  17.857  0.00  0.00    +0.000 C 
BRANCH  13  14
ATOM     14  C   UNK     1       1.291   4.344  19.026  0.00  0.00    +0.000 C 
BRANCH  14  15
ATOM     15  C   UNK     1       1.884   4.526  20.426  0.00  0.00    +0.000 C 
BRANCH  15  16
ATOM     16  N   UNK     1       3.027   5.462  20.387  0.00  0.00    +0.000 NA
ATOM     17  H   UNK     1       3.274   5.709  21.350  0.00  0.00    +0.000 HD
ATOM     18  H   UNK     1       2.693   6.351  20.003  0.00  0.00    +0.000 HD
ENDBRANCH  15  16
BRANCH  15  19
ATOM     19  C   UNK     1       2.300   3.199  21.087  0.00  0.00    +0.000 C 
ATOM     20  O   UNK     1       2.702   2.222  20.472  0.00  0.00    +0.000 OA
BRANCH  19  21
ATOM     21  O   UNK     1       2.230   3.208  22.439  0.00  0.00    +0.000 OA
ATOM     22  H   UNK     1       3.094   3.273  22.892  0.00  0.00    +0.000 HD
ENDBRANCH  19  21
ENDBRANCH  15  19
ENDBRANCH  14  15
ENDBRANCH  13  14
ENDBRANCH  12  13
ENDBRANCH   4  12
TORSDOF 10
ENDMDL
