MODEL 1
REMARK VINA RESULT:      -8.1      0.000      0.000
REMARK  Name = 
REMARK  8 active torsions:
REMARK  status: ('A' for Active; 'I' for Inactive)
REMARK    1  A    between atoms: C_1  and  C_2
REMARK    2  A    between atoms: C_2  and  C_3
REMARK    3  A    between atoms: C_3  and  C_4
REMARK    4  A    between atoms: C_4  and  N_5
REMARK    5  A    between atoms: C_8  and  C_9
REMARK    6  A    between atoms: N_11  and  C_12
REMARK    7  A    between atoms: C_22  and  O_23
REMARK    8  A    between atoms: N_28  and  C_29
REMARK                            x       y       z     vdW  Elec       q    Type
REMARK                         _______ _______ _______ _____ _____    ______ ____
ROOT
ATOM      1  N   UNL     1       5.144   5.116  17.526  0.00  0.00    +0.000 N 
ATOM      2  C   UNL     1       4.249   6.146  17.273  0.00  0.00    +0.000 C 
ATOM      3  O   UNL     1       4.508   7.092  16.519  0.00  0.00    +0.000 OA
ATOM      4  C   UNL     1       2.913   6.034  17.936  0.00  0.00    +0.000 C 
ATOM      5  C   UNL     1       2.371   4.797  18.016  0.00  0.00    +0.000 C 
ATOM      6  C   UNL     1       3.258   3.532  17.783  0.00  0.00    +0.000 C 
ATOM      7  C   UNL     1       4.687   3.925  18.194  0.00  0.00    +0.000 C 
ATOM      8  C   UNL     1       4.422   3.863  19.684  0.00  0.00    +0.000 C 
ATOM      9  N   UNL     1       3.523   2.990  20.031  0.00  0.00    +0.000 NA
ATOM     10  N   UNL     1       3.008   2.503  18.839  0.00  0.00    +0.000 N 
ATOM     11  C   UNL     1       3.595   1.192  18.451  0.00  0.00    +0.000 C 
ENDROOT
BRANCH   4  12
ATOM     12  C   UNL     1       2.436   7.265  18.647  0.00  0.00    +0.000 C 
ATOM     13  O   UNL     1       2.366   7.240  19.877  0.00  0.00    +0.000 OA
ATOM     14  N   UNL     1       1.969   8.328  17.910  0.00  0.00    +0.000 N 
ATOM     15  H   UNL     1       2.040   8.259  16.897  0.00  0.00    +0.000 HD
BRANCH  14  16
ATOM     16  C   UNL     1       1.262   9.468  18.524  0.00  0.00    +0.000 C 
ATOM     17  C   UNL     1      -0.142   9.652  17.890  0.00  0.00    +0.000 C 
ATOM     18  C   UNL     1      -0.881  10.843  18.520  0.00  0.00    +0.000 C 
ATOM     19  C   UNL     1      -1.060  10.590  20.024  0.00  0.00    +0.000 C 
ATOM     20  C   UNL     1       0.314  10.428  20.695  0.00  0.00    +0.000 C 
ATOM     21  C   UNL     1       1.137  11.710  20.492  0.00  0.00    +0.000 C 
ATOM     22  C   UNL     1       1.322  11.976  18.992  0.00  0.00    +0.000 C 
ATOM     23  C   UNL     1      -0.054  12.124  18.321  0.00  0.00    +0.000 C 
ATOM     24  C   UNL     1       2.068  10.790  18.361  0.00  0.00    +0.000 C 
ATOM     25  C   UNL     1       1.058   9.237  20.048  0.00  0.00    +0.000 C 
ENDBRANCH  14  16
ENDBRANCH   4  12
BRANCH   5  26
ATOM     26  O   UNL     1       1.154   4.574  18.648  0.00  0.00    +0.000 OA
ATOM     27  H   UNL     1       0.532   5.229  18.251  0.00  0.00    +0.000 HD
ENDBRANCH   5  26
BRANCH   1  28
ATOM     28  C   UNL     1       6.462   5.125  16.881  0.00  0.00    +0.000 C 
BRANCH  28  29
ATOM     29  C   UNL     1       7.665   5.014  17.836  0.00  0.00    +0.000 C 
BRANCH  29  31
ATOM     30  C   UNL     1       7.788   7.537  17.866  0.00  0.00    +0.000 C 
ATOM     31  C   UNL     1       7.878   6.262  18.693  0.00  0.00    +0.000 C 
ENDBRANCH  29  31
ENDBRANCH  28  29
ENDBRANCH   1  28
TORSDOF 6
ENDMDL
MODEL 2
REMARK VINA RESULT:      -8.1      0.075      1.413
REMARK  Name = 
REMARK  8 active torsions:
REMARK  status: ('A' for Active; 'I' for Inactive)
REMARK    1  A    between atoms: C_1  and  C_2
REMARK    2  A    between atoms: C_2  and  C_3
REMARK    3  A    between atoms: C_3  and  C_4
REMARK    4  A    between atoms: C_4  and  N_5
REMARK    5  A    between atoms: C_8  and  C_9
REMARK    6  A    between atoms: N_11  and  C_12
REMARK    7  A    between atoms: C_22  and  O_23
REMARK    8  A    between atoms: N_28  and  C_29
REMARK                            x       y       z     vdW  Elec       q    Type
REMARK                         _______ _______ _______ _____ _____    ______ ____
ROOT
ATOM      1  N   UNL     1       5.128   5.154  17.475  0.00  0.00    +0.000 N 
ATOM      2  C   UNL     1       4.222   6.179  17.243  0.00  0.00    +0.000 C 
ATOM      3  O   UNL     1       4.456   7.124  16.478  0.00  0.00    +0.000 OA
ATOM      4  C   UNL     1       2.905   6.065  17.943  0.00  0.00    +0.000 C 
ATOM      5  C   UNL     1       2.370   4.826  18.043  0.00  0.00    +0.000 C 
ATOM      6  C   UNL     1       3.256   3.564  17.790  0.00  0.00    +0.000 C 
ATOM      7  C   UNL     1       4.694   3.964  18.160  0.00  0.00    +0.000 C 
ATOM      8  C   UNL     1       4.471   3.906  19.656  0.00  0.00    +0.000 C 
ATOM      9  N   UNL     1       3.585   3.032  20.032  0.00  0.00    +0.000 NA
ATOM     10  N   UNL     1       3.039   2.538  18.857  0.00  0.00    +0.000 N 
ATOM     11  C   UNL     1       3.620   1.228  18.457  0.00  0.00    +0.000 C 
ENDROOT
BRANCH   4  12
ATOM     12  C   UNL     1       2.443   7.297  18.663  0.00  0.00    +0.000 C 
ATOM     13  O   UNL     1       2.411   7.278  19.894  0.00  0.00    +0.000 OA
ATOM     14  N   UNL     1       1.947   8.354  17.935  0.00  0.00    +0.000 N 
ATOM     15  H   UNL     1       1.988   8.280  16.920  0.00  0.00    +0.000 HD
BRANCH  14  16
ATOM     16  C   UNL     1       1.253   9.493  18.564  0.00  0.00    +0.000 C 
ATOM     17  C   UNL     1       2.075  10.797  18.401  0.00  0.00    +0.000 C 
ATOM     18  C   UNL     1       1.360  11.987  19.062  0.00  0.00    +0.000 C 
ATOM     19  C   UNL     1      -0.007  12.192  18.395  0.00  0.00    +0.000 C 
ATOM     20  C   UNL     1      -0.864  10.925  18.558  0.00  0.00    +0.000 C 
ATOM     21  C   UNL     1      -1.069  10.635  20.054  0.00  0.00    +0.000 C 
ATOM     22  C   UNL     1       0.291  10.430  20.734  0.00  0.00    +0.000 C 
ATOM     23  C   UNL     1       1.151  11.693  20.558  0.00  0.00    +0.000 C 
ATOM     24  C   UNL     1       1.004   9.237  20.081  0.00  0.00    +0.000 C 
ATOM     25  C   UNL     1      -0.134   9.729  17.903  0.00  0.00    +0.000 C 
ENDBRANCH  14  16
ENDBRANCH   4  12
BRANCH   5  26
ATOM     26  O   UNL     1       1.172   4.601  18.709  0.00  0.00    +0.000 OA
ATOM     27  H   UNL     1       0.708   3.909  18.182  0.00  0.00    +0.000 HD
ENDBRANCH   5  26
BRANCH   1  28
ATOM     28  C   UNL     1       6.427   5.165  16.793  0.00  0.00    +0.000 C 
BRANCH  28  29
ATOM     29  C   UNL     1       7.657   5.112  17.718  0.00  0.00    +0.000 C 
BRANCH  29  31
ATOM     30  C   UNL     1       7.872   7.625  17.865  0.00  0.00    +0.000 C 
ATOM     31  C   UNL     1       7.773   6.320  18.646  0.00  0.00    +0.000 C 
ENDBRANCH  29  31
ENDBRANCH  28  29
ENDBRANCH   1  28
TORSDOF 6
ENDMDL
MODEL 3
REMARK VINA RESULT:      -8.1      0.089      1.413
REMARK  Name = 
REMARK  8 active torsions:
REMARK  status: ('A' for Active; 'I' for Inactive)
REMARK    1  A    between atoms: C_1  and  C_2
REMARK    2  A    between atoms: C_2  and  C_3
REMARK    3  A    between atoms: C_3  and  C_4
REMARK    4  A    between atoms: C_4  and  N_5
REMARK    5  A    between atoms: C_8  and  C_9
REMARK    6  A    between atoms: N_11  and  C_12
REMARK    7  A    between atoms: C_22  and  O_23
REMARK    8  A    between atoms: N_28  and  C_29
REMARK                            x       y       z     vdW  Elec       q    Type
REMARK                         _______ _______ _______ _____ _____    ______ ____
ROOT
ATOM      1  N   UNL     1       5.142   5.130  17.460  0.00  0.00    +0.000 N 
ATOM      2  C   UNL     1       4.226   6.146  17.233  0.00  0.00    +0.000 C 
ATOM      3  O   UNL     1       4.447   7.094  16.468  0.00  0.00    +0.000 OA
ATOM      4  C   UNL     1       2.913   6.019  17.938  0.00  0.00    +0.000 C 
ATOM      5  C   UNL     1       2.390   4.774  18.039  0.00  0.00    +0.000 C 
ATOM      6  C   UNL     1       3.287   3.521  17.781  0.00  0.00    +0.000 C 
ATOM      7  C   UNL     1       4.723   3.934  18.145  0.00  0.00    +0.000 C 
ATOM      8  C   UNL     1       4.507   3.873  19.642  0.00  0.00    +0.000 C 
ATOM      9  N   UNL     1       3.631   2.989  20.021  0.00  0.00    +0.000 NA
ATOM     10  N   UNL     1       3.085   2.492  18.847  0.00  0.00    +0.000 N 
ATOM     11  C   UNL     1       3.678   1.188  18.443  0.00  0.00    +0.000 C 
ENDROOT
BRANCH   4  12
ATOM     12  C   UNL     1       2.442   7.245  18.662  0.00  0.00    +0.000 C 
ATOM     13  O   UNL     1       2.372   7.208  19.891  0.00  0.00    +0.000 OA
ATOM     14  N   UNL     1       1.980   8.318  17.935  0.00  0.00    +0.000 N 
ATOM     15  H   UNL     1       2.051   8.258  16.921  0.00  0.00    +0.000 HD
BRANCH  14  16
ATOM     16  C   UNL     1       1.279   9.455  18.560  0.00  0.00    +0.000 C 
ATOM     17  C   UNL     1       1.136   9.241  20.089  0.00  0.00    +0.000 C 
ATOM     18  C   UNL     1       0.399  10.419  20.745  0.00  0.00    +0.000 C 
ATOM     19  C   UNL     1       1.196  11.710  20.511  0.00  0.00    +0.000 C 
ATOM     20  C   UNL     1       1.338  11.971  19.003  0.00  0.00    +0.000 C 
ATOM     21  C   UNL     1      -0.058  12.118  18.375  0.00  0.00    +0.000 C 
ATOM     22  C   UNL     1      -0.867  10.835  18.604  0.00  0.00    +0.000 C 
ATOM     23  C   UNL     1      -0.996  10.568  20.113  0.00  0.00    +0.000 C 
ATOM     24  C   UNL     1      -0.137   9.656  17.942  0.00  0.00    +0.000 C 
ATOM     25  C   UNL     1       2.068  10.777  18.345  0.00  0.00    +0.000 C 
ENDBRANCH  14  16
ENDBRANCH   4  12
BRANCH   5  26
ATOM     26  O   UNL     1       1.198   4.537  18.711  0.00  0.00    +0.000 OA
ATOM     27  H   UNL     1       1.412   3.846  19.382  0.00  0.00    +0.000 HD
ENDBRANCH   5  26
BRANCH   1  28
ATOM     28  C   UNL     1       6.439   5.155  16.773  0.00  0.00    +0.000 C 
BRANCH  28  29
ATOM     29  C   UNL     1       7.673   5.160  17.693  0.00  0.00    +0.000 C 
BRANCH  29  31
ATOM     30  C   UNL     1       7.853   7.676  17.831  0.00  0.00    +0.000 C 
ATOM     31  C   UNL     1       7.738   6.376  18.616  0.00  0.00    +0.000 C 
ENDBRANCH  29  31
ENDBRANCH  28  29
ENDBRANCH   1  28
TORSDOF 6
ENDMDL
MODEL 4
REMARK VINA RESULT:      -7.9      0.940      1.577
REMARK  Name = 
REMARK  8 active torsions:
REMARK  status: ('A' for Active; 'I' for Inactive)
REMARK    1  A    between atoms: C_1  and  C_2
REMARK    2  A    between atoms: C_2  and  C_3
REMARK    3  A    between atoms: C_3  and  C_4
REMARK    4  A    between atoms: C_4  and  N_5
REMARK    5  A    between atoms: C_8  and  C_9
REMARK    6  A    between atoms: N_11  and  C_12
REMARK    7  A    between atoms: C_22  and  O_23
REMARK    8  A    between atoms: N_28  and  C_29
REMARK                            x       y       z     vdW  Elec       q    Type
REMARK                         _______ _______ _______ _____ _____    ______ ____
ROOT
ATOM      1  N   UNL     1       5.196   5.258  17.403  0.00  0.00    +0.000 N 
ATOM      2  C   UNL     1       4.261   6.260  17.187  0.00  0.00    +0.000 C 
ATOM      3  O   UNL     1       4.461   7.215  16.426  0.00  0.00    +0.000 OA
ATOM      4  C   UNL     1       2.954   6.106  17.899  0.00  0.00    +0.000 C 
ATOM      5  C   UNL     1       2.454   4.852  17.996  0.00  0.00    +0.000 C 
ATOM      6  C   UNL     1       3.371   3.615  17.726  0.00  0.00    +0.000 C 
ATOM      7  C   UNL     1       4.801   4.052  18.084  0.00  0.00    +0.000 C 
ATOM      8  C   UNL     1       4.595   3.979  19.583  0.00  0.00    +0.000 C 
ATOM      9  N   UNL     1       3.737   3.078  19.961  0.00  0.00    +0.000 NA
ATOM     10  N   UNL     1       3.193   2.577  18.788  0.00  0.00    +0.000 N 
ATOM     11  C   UNL     1       3.805   1.286  18.373  0.00  0.00    +0.000 C 
ENDROOT
BRANCH   4  12
ATOM     12  C   UNL     1       2.467   7.320  18.632  0.00  0.00    +0.000 C 
ATOM     13  O   UNL     1       2.370   7.263  19.858  0.00  0.00    +0.000 OA
ATOM     14  N   UNL     1       2.019   8.404  17.912  0.00  0.00    +0.000 N 
ATOM     15  H   UNL     1       2.112   8.360  16.900  0.00  0.00    +0.000 HD
BRANCH  14  16
ATOM     16  C   UNL     1       1.303   9.530  18.540  0.00  0.00    +0.000 C 
ATOM     17  C   UNL     1      -0.113   9.691  17.930  0.00  0.00    +0.000 C 
ATOM     18  C   UNL     1      -0.862  10.868  18.574  0.00  0.00    +0.000 C 
ATOM     19  C   UNL     1      -1.012  10.610  20.080  0.00  0.00    +0.000 C 
ATOM     20  C   UNL     1       0.375  10.470  20.728  0.00  0.00    +0.000 C 
ATOM     21  C   UNL     1       1.174  11.766  20.514  0.00  0.00    +0.000 C 
ATOM     22  C   UNL     1       1.330  12.038  19.012  0.00  0.00    +0.000 C 
ATOM     23  C   UNL     1      -0.060  12.164  18.364  0.00  0.00    +0.000 C 
ATOM     24  C   UNL     1       2.084  10.866  18.366  0.00  0.00    +0.000 C 
ATOM     25  C   UNL     1       1.130   9.293  20.067  0.00  0.00    +0.000 C 
ENDBRANCH  14  16
ENDBRANCH   4  12
BRANCH   5  26
ATOM     26  O   UNL     1       1.270   4.590  18.673  0.00  0.00    +0.000 OA
ATOM     27  H   UNL     1       1.158   5.343  19.300  0.00  0.00    +0.000 HD
ENDBRANCH   5  26
BRANCH   1  28
ATOM     28  C   UNL     1       6.488   5.309  16.709  0.00  0.00    +0.000 C 
BRANCH  28  29
ATOM     29  C   UNL     1       6.687   4.251  15.608  0.00  0.00    +0.000 C 
BRANCH  29  31
ATOM     30  C   UNL     1       6.195   3.754  13.181  0.00  0.00    +0.000 C 
ATOM     31  C   UNL     1       5.663   4.350  14.478  0.00  0.00    +0.000 C 
ENDBRANCH  29  31
ENDBRANCH  28  29
ENDBRANCH   1  28
TORSDOF 6
ENDMDL
MODEL 5
REMARK VINA RESULT:      -7.9      0.714      1.868
REMARK  Name = 
REMARK  8 active torsions:
REMARK  status: ('A' for Active; 'I' for Inactive)
REMARK    1  A    between atoms: C_1  and  C_2
REMARK    2  A    between atoms: C_2  and  C_3
REMARK    3  A    between atoms: C_3  and  C_4
REMARK    4  A    between atoms: C_4  and  N_5
REMARK    5  A    between atoms: C_8  and  C_9
REMARK    6  A    between atoms: N_11  and  C_12
REMARK    7  A    between atoms: C_22  and  O_23
REMARK    8  A    between atoms: N_28  and  C_29
REMARK                            x       y       z     vdW  Elec       q    Type
REMARK                         _______ _______ _______ _____ _____    ______ ____
ROOT
ATOM      1  N   UNL     1       5.406   5.265  18.061  0.00  0.00    +0.000 N 
ATOM      2  C   UNL     1       4.581   6.328  17.722  0.00  0.00    +0.000 C 
ATOM      3  O   UNL     1       4.995   7.349  17.160  0.00  0.00    +0.000 OA
ATOM      4  C   UNL     1       3.128   6.160  18.038  0.00  0.00    +0.000 C 
ATOM      5  C   UNL     1       2.599   4.928  17.851  0.00  0.00    +0.000 C 
ATOM      6  C   UNL     1       3.534   3.686  17.692  0.00  0.00    +0.000 C 
ATOM      7  C   UNL     1       4.822   4.012  18.466  0.00  0.00    +0.000 C 
ATOM      8  C   UNL     1       4.218   3.787  19.836  0.00  0.00    +0.000 C 
ATOM      9  N   UNL     1       3.274   2.893  19.864  0.00  0.00    +0.000 NA
ATOM     10  N   UNL     1       3.058   2.549  18.538  0.00  0.00    +0.000 N 
ATOM     11  C   UNL     1       3.738   1.282  18.153  0.00  0.00    +0.000 C 
ENDROOT
BRANCH   4  12
ATOM     12  C   UNL     1       2.481   7.309  18.752  0.00  0.00    +0.000 C 
ATOM     13  O   UNL     1       2.062   7.126  19.895  0.00  0.00    +0.000 OA
ATOM     14  N   UNL     1       2.257   8.482  18.069  0.00  0.00    +0.000 N 
ATOM     15  H   UNL     1       2.615   8.543  17.119  0.00  0.00    +0.000 HD
BRANCH  14  16
ATOM     16  C   UNL     1       1.417   9.566  18.612  0.00  0.00    +0.000 C 
ATOM     17  C   UNL     1       2.057  10.951  18.336  0.00  0.00    +0.000 C 
ATOM     18  C   UNL     1       1.190  12.084  18.907  0.00  0.00    +0.000 C 
ATOM     19  C   UNL     1      -0.192  12.051  18.240  0.00  0.00    +0.000 C 
ATOM     20  C   UNL     1      -0.872  10.699  18.513  0.00  0.00    +0.000 C 
ATOM     21  C   UNL     1      -1.037  10.506  20.030  0.00  0.00    +0.000 C 
ATOM     22  C   UNL     1       0.337  10.541  20.710  0.00  0.00    +0.000 C 
ATOM     23  C   UNL     1       1.021  11.888  20.423  0.00  0.00    +0.000 C 
ATOM     24  C   UNL     1       1.204   9.404  20.147  0.00  0.00    +0.000 C 
ATOM     25  C   UNL     1       0.011   9.561  17.949  0.00  0.00    +0.000 C 
ENDBRANCH  14  16
ENDBRANCH   4  12
BRANCH   5  26
ATOM     26  O   UNL     1       1.272   4.652  18.153  0.00  0.00    +0.000 OA
ATOM     27  H   UNL     1       1.059   5.219  18.931  0.00  0.00    +0.000 HD
ENDBRANCH   5  26
BRANCH   1  28
ATOM     28  C   UNL     1       6.838   5.329  17.746  0.00  0.00    +0.000 C 
BRANCH  28  29
ATOM     29  C   UNL     1       7.294   4.449  16.568  0.00  0.00    +0.000 C 
BRANCH  29  31
ATOM     30  C   UNL     1       5.758   4.181  14.580  0.00  0.00    +0.000 C 
ATOM     31  C   UNL     1       6.882   4.999  15.202  0.00  0.00    +0.000 C 
ENDBRANCH  29  31
ENDBRANCH  28  29
ENDBRANCH   1  28
TORSDOF 6
ENDMDL
MODEL 6
REMARK VINA RESULT:      -7.9      0.731      1.938
REMARK  Name = 
REMARK  8 active torsions:
REMARK  status: ('A' for Active; 'I' for Inactive)
REMARK    1  A    between atoms: C_1  and  C_2
REMARK    2  A    between atoms: C_2  and  C_3
REMARK    3  A    between atoms: C_3  and  C_4
REMARK    4  A    between atoms: C_4  and  N_5
REMARK    5  A    between atoms: C_8  and  C_9
REMARK    6  A    between atoms: N_11  and  C_12
REMARK    7  A    between atoms: C_22  and  O_23
REMARK    8  A    between atoms: N_28  and  C_29
REMARK                            x       y       z     vdW  Elec       q    Type
REMARK                         _______ _______ _______ _____ _____    ______ ____
ROOT
ATOM      1  N   UNL     1       5.360   5.273  17.837  0.00  0.00    +0.000 N 
ATOM      2  C   UNL     1       4.485   6.307  17.534  0.00  0.00    +0.000 C 
ATOM      3  O   UNL     1       4.826   7.313  16.898  0.00  0.00    +0.000 OA
ATOM      4  C   UNL     1       3.071   6.127  17.987  0.00  0.00    +0.000 C 
ATOM      5  C   UNL     1       2.553   4.880  17.896  0.00  0.00    +0.000 C 
ATOM      6  C   UNL     1       3.496   3.648  17.700  0.00  0.00    +0.000 C 
ATOM      7  C   UNL     1       4.841   4.028  18.341  0.00  0.00    +0.000 C 
ATOM      8  C   UNL     1       4.368   3.847  19.768  0.00  0.00    +0.000 C 
ATOM      9  N   UNL     1       3.450   2.938  19.916  0.00  0.00    +0.000 NA
ATOM     10  N   UNL     1       3.122   2.538  18.629  0.00  0.00    +0.000 N 
ATOM     11  C   UNL     1       3.791   1.269  18.233  0.00  0.00    +0.000 C 
ENDROOT
BRANCH   4  12
ATOM     12  C   UNL     1       2.467   7.292  18.712  0.00  0.00    +0.000 C 
ATOM     13  O   UNL     1       2.135   7.141  19.888  0.00  0.00    +0.000 OA
ATOM     14  N   UNL     1       2.183   8.443  18.013  0.00  0.00    +0.000 N 
ATOM     15  H   UNL     1       2.469   8.478  17.037  0.00  0.00    +0.000 HD
BRANCH  14  16
ATOM     16  C   UNL     1       1.374   9.536  18.584  0.00  0.00    +0.000 C 
ATOM     17  C   UNL     1       1.215   9.361  20.117  0.00  0.00    +0.000 C 
ATOM     18  C   UNL     1       0.367  10.494  20.717  0.00  0.00    +0.000 C 
ATOM     19  C   UNL     1       1.058  11.839  20.455  0.00  0.00    +0.000 C 
ATOM     20  C   UNL     1       1.211  12.062  18.941  0.00  0.00    +0.000 C 
ATOM     21  C   UNL     1      -0.178  12.069  18.282  0.00  0.00    +0.000 C 
ATOM     22  C   UNL     1      -0.881  10.730  18.538  0.00  0.00    +0.000 C 
ATOM     23  C   UNL     1      -1.021  10.503  20.054  0.00  0.00    +0.000 C 
ATOM     24  C   UNL     1      -0.039   9.597  17.933  0.00  0.00    +0.000 C 
ATOM     25  C   UNL     1       2.054  10.913  18.340  0.00  0.00    +0.000 C 
ENDBRANCH  14  16
ENDBRANCH   4  12
BRANCH   5  26
ATOM     26  O   UNL     1       1.265   4.592  18.328  0.00  0.00    +0.000 OA
ATOM     27  H   UNL     1       1.250   3.616  18.467  0.00  0.00    +0.000 HD
ENDBRANCH   5  26
BRANCH   1  28
ATOM     28  C   UNL     1       6.756   5.350  17.391  0.00  0.00    +0.000 C 
BRANCH  28  29
ATOM     29  C   UNL     1       7.156   4.338  16.301  0.00  0.00    +0.000 C 
BRANCH  29  31
ATOM     30  C   UNL     1       5.574   4.315  14.331  0.00  0.00    +0.000 C 
ATOM     31  C   UNL     1       6.895   4.839  14.881  0.00  0.00    +0.000 C 
ENDBRANCH  29  31
ENDBRANCH  28  29
ENDBRANCH   1  28
TORSDOF 6
ENDMDL
MODEL 7
REMARK VINA RESULT:      -7.7      2.475      7.793
REMARK  Name = 
REMARK  8 active torsions:
REMARK  status: ('A' for Active; 'I' for Inactive)
REMARK    1  A    between atoms: C_1  and  C_2
REMARK    2  A    between atoms: C_2  and  C_3
REMARK    3  A    between atoms: C_3  and  C_4
REMARK    4  A    between atoms: C_4  and  N_5
REMARK    5  A    between atoms: C_8  and  C_9
REMARK    6  A    between atoms: N_11  and  C_12
REMARK    7  A    between atoms: C_22  and  O_23
REMARK    8  A    between atoms: N_28  and  C_29
REMARK                            x       y       z     vdW  Elec       q    Type
REMARK                         _______ _______ _______ _____ _____    ______ ____
ROOT
ATOM      1  N   UNL     1      -0.220  10.015  19.013  0.00  0.00    +0.000 N 
ATOM      2  C   UNL     1       1.038   9.547  18.665  0.00  0.00    +0.000 C 
ATOM      3  O   UNL     1       1.553   9.756  17.560  0.00  0.00    +0.000 OA
ATOM      4  C   UNL     1       1.778   8.795  19.727  0.00  0.00    +0.000 C 
ATOM      5  C   UNL     1       1.655   9.248  20.996  0.00  0.00    +0.000 C 
ATOM      6  C   UNL     1       0.510  10.245  21.369  0.00  0.00    +0.000 C 
ATOM      7  C   UNL     1      -0.642   9.965  20.390  0.00  0.00    +0.000 C 
ATOM      8  C   UNL     1      -1.092   8.689  21.070  0.00  0.00    +0.000 C 
ATOM      9  N   UNL     1      -0.889   8.668  22.354  0.00  0.00    +0.000 NA
ATOM     10  N   UNL     1      -0.174   9.824  22.630  0.00  0.00    +0.000 N 
ATOM     11  C   UNL     1      -1.032  10.919  23.158  0.00  0.00    +0.000 C 
ENDROOT
BRANCH   4  12
ATOM     12  C   UNL     1       2.375   7.488  19.301  0.00  0.00    +0.000 C 
ATOM     13  O   UNL     1       2.902   7.420  18.190  0.00  0.00    +0.000 OA
ATOM     14  N   UNL     1       2.202   6.379  20.097  0.00  0.00    +0.000 N 
ATOM     15  H   UNL     1       1.734   6.516  20.990  0.00  0.00    +0.000 HD
BRANCH  14  16
ATOM     16  C   UNL     1       2.540   5.017  19.643  0.00  0.00    +0.000 C 
ATOM     17  C   UNL     1       1.881   4.714  18.272  0.00  0.00    +0.000 C 
ATOM     18  C   UNL     1       2.224   3.293  17.796  0.00  0.00    +0.000 C 
ATOM     19  C   UNL     1       3.745   3.164  17.639  0.00  0.00    +0.000 C 
ATOM     20  C   UNL     1       4.435   3.433  18.987  0.00  0.00    +0.000 C 
ATOM     21  C   UNL     1       3.945   2.411  20.026  0.00  0.00    +0.000 C 
ATOM     22  C   UNL     1       2.424   2.527  20.191  0.00  0.00    +0.000 C 
ATOM     23  C   UNL     1       1.737   2.272  18.839  0.00  0.00    +0.000 C 
ATOM     24  C   UNL     1       2.080   3.945  20.674  0.00  0.00    +0.000 C 
ATOM     25  C   UNL     1       4.077   4.858  19.467  0.00  0.00    +0.000 C 
ENDBRANCH  14  16
ENDBRANCH   4  12
BRANCH   5  26
ATOM     26  O   UNL     1       2.264   8.601  22.063  0.00  0.00    +0.000 OA
ATOM     27  H   UNL     1       1.775   8.904  22.864  0.00  0.00    +0.000 HD
ENDBRANCH   5  26
BRANCH   1  28
ATOM     28  C   UNL     1      -0.995  10.800  18.046  0.00  0.00    +0.000 C 
BRANCH  28  29
ATOM     29  C   UNL     1      -1.902   9.982  17.108  0.00  0.00    +0.000 C 
BRANCH  29  31
ATOM     30  C   UNL     1      -3.275   9.957  14.988  0.00  0.00    +0.000 C 
ATOM     31  C   UNL     1      -2.580  10.825  16.029  0.00  0.00    +0.000 C 
ENDBRANCH  29  31
ENDBRANCH  28  29
ENDBRANCH   1  28
TORSDOF 6
ENDMDL
MODEL 8
REMARK VINA RESULT:      -7.7      2.497      7.826
REMARK  Name = 
REMARK  8 active torsions:
REMARK  status: ('A' for Active; 'I' for Inactive)
REMARK    1  A    between atoms: C_1  and  C_2
REMARK    2  A    between atoms: C_2  and  C_3
REMARK    3  A    between atoms: C_3  and  C_4
REMARK    4  A    between atoms: C_4  and  N_5
REMARK    5  A    between atoms: C_8  and  C_9
REMARK    6  A    between atoms: N_11  and  C_12
REMARK    7  A    between atoms: C_22  and  O_23
REMARK    8  A    between atoms: N_28  and  C_29
REMARK                            x       y       z     vdW  Elec       q    Type
REMARK                         _______ _______ _______ _____ _____    ______ ____
ROOT
ATOM      1  N   UNL     1      -0.268   9.912  18.997  0.00  0.00    +0.000 N 
ATOM      2  C   UNL     1       0.999   9.464  18.653  0.00  0.00    +0.000 C 
ATOM      3  O   UNL     1       1.496   9.643  17.534  0.00  0.00    +0.000 OA
ATOM      4  C   UNL     1       1.771   8.777  19.735  0.00  0.00    +0.000 C 
ATOM      5  C   UNL     1       1.649   9.277  20.986  0.00  0.00    +0.000 C 
ATOM      6  C   UNL     1       0.480  10.256  21.333  0.00  0.00    +0.000 C 
ATOM      7  C   UNL     1      -0.674   9.905  20.379  0.00  0.00    +0.000 C 
ATOM      8  C   UNL     1      -1.080   8.646  21.115  0.00  0.00    +0.000 C 
ATOM      9  N   UNL     1      -0.863   8.682  22.397  0.00  0.00    +0.000 NA
ATOM     10  N   UNL     1      -0.178   9.867  22.617  0.00  0.00    +0.000 N 
ATOM     11  C   UNL     1      -1.060  10.959  23.111  0.00  0.00    +0.000 C 
ENDROOT
BRANCH   4  12
ATOM     12  C   UNL     1       2.400   7.471  19.354  0.00  0.00    +0.000 C 
ATOM     13  O   UNL     1       3.037   7.413  18.302  0.00  0.00    +0.000 OA
ATOM     14  N   UNL     1       2.140   6.353  20.114  0.00  0.00    +0.000 N 
ATOM     15  H   UNL     1       1.584   6.483  20.956  0.00  0.00    +0.000 HD
BRANCH  14  16
ATOM     16  C   UNL     1       2.514   4.995  19.678  0.00  0.00    +0.000 C 
ATOM     17  C   UNL     1       4.049   4.878  19.496  0.00  0.00    +0.000 C 
ATOM     18  C   UNL     1       4.445   3.466  19.035  0.00  0.00    +0.000 C 
ATOM     19  C   UNL     1       4.006   2.445  20.093  0.00  0.00    +0.000 C 
ATOM     20  C   UNL     1       2.481   2.512  20.284  0.00  0.00    +0.000 C 
ATOM     21  C   UNL     1       1.784   2.192  18.952  0.00  0.00    +0.000 C 
ATOM     22  C   UNL     1       2.216   3.205  17.884  0.00  0.00    +0.000 C 
ATOM     23  C   UNL     1       3.743   3.145  17.704  0.00  0.00    +0.000 C 
ATOM     24  C   UNL     1       1.815   4.616  18.339  0.00  0.00    +0.000 C 
ATOM     25  C   UNL     1       2.087   3.938  20.736  0.00  0.00    +0.000 C 
ENDBRANCH  14  16
ENDBRANCH   4  12
BRANCH   5  26
ATOM     26  O   UNL     1       2.288   8.691  22.071  0.00  0.00    +0.000 OA
ATOM     27  H   UNL     1       2.680   9.441  22.578  0.00  0.00    +0.000 HD
ENDBRANCH   5  26
BRANCH   1  28
ATOM     28  C   UNL     1      -1.076  10.635  18.008  0.00  0.00    +0.000 C 
BRANCH  28  29
ATOM     29  C   UNL     1      -2.420   9.977  17.646  0.00  0.00    +0.000 C 
BRANCH  29  31
ATOM     30  C   UNL     1      -2.852  10.203  15.167  0.00  0.00    +0.000 C 
ATOM     31  C   UNL     1      -3.190  10.725  16.558  0.00  0.00    +0.000 C 
ENDBRANCH  29  31
ENDBRANCH  28  29
ENDBRANCH   1  28
TORSDOF 6
ENDMDL
MODEL 9
REMARK VINA RESULT:      -7.6      2.461      7.783
REMARK  Name = 
REMARK  8 active torsions:
REMARK  status: ('A' for Active; 'I' for Inactive)
REMARK    1  A    between atoms: C_1  and  C_2
REMARK    2  A    between atoms: C_2  and  C_3
REMARK    3  A    between atoms: C_3  and  C_4
REMARK    4  A    between atoms: C_4  and  N_5
REMARK    5  A    between atoms: C_8  and  C_9
REMARK    6  A    between atoms: N_11  and  C_12
REMARK    7  A    between atoms: C_22  and  O_23
REMARK    8  A    between atoms: N_28  and  C_29
REMARK                            x       y       z     vdW  Elec       q    Type
REMARK                         _______ _______ _______ _____ _____    ______ ____
ROOT
ATOM      1  N   UNL     1      -0.169  10.025  19.029  0.00  0.00    +0.000 N 
ATOM      2  C   UNL     1       1.103   9.572  18.711  0.00  0.00    +0.000 C 
ATOM      3  O   UNL     1       1.654   9.814  17.629  0.00  0.00    +0.000 OA
ATOM      4  C   UNL     1       1.811   8.795  19.776  0.00  0.00    +0.000 C 
ATOM      5  C   UNL     1       1.642   9.213  21.053  0.00  0.00    +0.000 C 
ATOM      6  C   UNL     1       0.480  10.193  21.413  0.00  0.00    +0.000 C 
ATOM      7  C   UNL     1      -0.637   9.934  20.388  0.00  0.00    +0.000 C 
ATOM      8  C   UNL     1      -1.102   8.638  21.017  0.00  0.00    +0.000 C 
ATOM      9  N   UNL     1      -0.943   8.583  22.307  0.00  0.00    +0.000 NA
ATOM     10  N   UNL     1      -0.245   9.734  22.638  0.00  0.00    +0.000 N 
ATOM     11  C   UNL     1      -1.126  10.811  23.166  0.00  0.00    +0.000 C 
ENDROOT
BRANCH   4  12
ATOM     12  C   UNL     1       2.430   7.503  19.335  0.00  0.00    +0.000 C 
ATOM     13  O   UNL     1       3.036   7.480  18.264  0.00  0.00    +0.000 OA
ATOM     14  N   UNL     1       2.192   6.361  20.065  0.00  0.00    +0.000 N 
ATOM     15  H   UNL     1       1.661   6.462  20.927  0.00  0.00    +0.000 HD
BRANCH  14  16
ATOM     16  C   UNL     1       2.554   5.018  19.575  0.00  0.00    +0.000 C 
ATOM     17  C   UNL     1       1.989   3.919  20.511  0.00  0.00    +0.000 C 
ATOM     18  C   UNL     1       2.369   2.516  20.009  0.00  0.00    +0.000 C 
ATOM     19  C   UNL     1       1.784   2.303  18.606  0.00  0.00    +0.000 C 
ATOM     20  C   UNL     1       2.343   3.361  17.640  0.00  0.00    +0.000 C 
ATOM     21  C   UNL     1       3.874   3.237  17.574  0.00  0.00    +0.000 C 
ATOM     22  C   UNL     1       4.472   3.445  18.972  0.00  0.00    +0.000 C 
ATOM     23  C   UNL     1       3.901   2.395  19.939  0.00  0.00    +0.000 C 
ATOM     24  C   UNL     1       4.099   4.849  19.472  0.00  0.00    +0.000 C 
ATOM     25  C   UNL     1       1.968   4.770  18.156  0.00  0.00    +0.000 C 
ENDBRANCH  14  16
ENDBRANCH   4  12
BRANCH   5  26
ATOM     26  O   UNL     1       2.219   8.539  22.122  0.00  0.00    +0.000 OA
ATOM     27  H   UNL     1       3.191   8.574  21.956  0.00  0.00    +0.000 HD
ENDBRANCH   5  26
BRANCH   1  28
ATOM     28  C   UNL     1      -0.916  10.832  18.057  0.00  0.00    +0.000 C 
BRANCH  28  29
ATOM     29  C   UNL     1      -2.358  10.367  17.783  0.00  0.00    +0.000 C 
BRANCH  29  31
ATOM     30  C   UNL     1      -3.090  10.801  15.405  0.00  0.00    +0.000 C 
ATOM     31  C   UNL     1      -2.551   9.771  16.389  0.00  0.00    +0.000 C 
ENDBRANCH  29  31
ENDBRANCH  28  29
ENDBRANCH   1  28
TORSDOF 6
ENDMDL
