MODEL 1
REMARK VINA RESULT:      -5.9      0.000      0.000
REMARK  Name = 
REMARK  15 active torsions:
REMARK  status: ('A' for Active; 'I' for Inactive)
REMARK    1  A    between atoms: C_1  and  C_2
REMARK    2  A    between atoms: C_2  and  O_3
REMARK    3  A    between atoms: O_3  and  C_4
REMARK    4  A    between atoms: C_4  and  O_5
REMARK    5  A    between atoms: O_5  and  C_6
REMARK    6  A    between atoms: C_6  and  C_7
REMARK    7  A    between atoms: C_8  and  C_9
REMARK    8  A    between atoms: C_16  and  C_17
REMARK    9  A    between atoms: C_16  and  C_19
REMARK   10  A    between atoms: C_21  and  O_22
REMARK   11  A    between atoms: C_21  and  O_25
REMARK   12  A    between atoms: O_22  and  C_23
REMARK   13  A    between atoms: C_23  and  C_24
REMARK   14  A    between atoms: O_25  and  C_26
REMARK   15  A    between atoms: C_26  and  C_27
REMARK                            x       y       z     vdW  Elec       q    Type
REMARK                         _______ _______ _______ _____ _____    ______ ____
ROOT
ATOM      1  C   UNL     1       4.807   4.007  18.148  0.00  0.00    +0.000 C 
ATOM      2  C   UNL     1       6.166   4.382  17.392  0.00  0.00    +0.000 C 
ATOM      3  C   UNL     1       6.176   5.729  18.212  0.00  0.00    +0.000 C 
ATOM      4  C   UNL     1       4.627   5.613  18.459  0.00  0.00    +0.000 C 
ENDROOT
BRANCH   2   5
ATOM      5  C   UNL     1       6.327   4.390  15.782  0.00  0.00    +0.000 A 
ATOM      6  C   UNL     1       5.350   3.803  14.944  0.00  0.00    +0.000 A 
ATOM      7  C   UNL     1       5.533   3.640  13.567  0.00  0.00    +0.000 A 
ATOM      8  C   UNL     1       6.668   4.153  12.964  0.00  0.00    +0.000 A 
ATOM      9 CL   UNL     1       6.936   3.898  11.288  0.00  0.00    +0.000 Cl
ATOM     10  C   UNL     1       7.584   4.873  13.721  0.00  0.00    +0.000 A 
ATOM     11  C   UNL     1       7.406   4.995  15.107  0.00  0.00    +0.000 A 
ENDBRANCH   2   5
BRANCH   3  12
ATOM     12  C   UNL     1       6.547   6.969  17.571  0.00  0.00    +0.000 C 
ATOM     13  N   UNL     1       6.851   7.964  17.052  0.00  0.00    +0.000 NA
ENDBRANCH   3  12
BRANCH   3  14
ATOM     14  C   UNL     1       7.020   5.605  19.393  0.00  0.00    +0.000 C 
ATOM     15  N   UNL     1       7.728   5.503  20.302  0.00  0.00    +0.000 NA
ENDBRANCH   3  14
BRANCH   1  16
ATOM     16  O   UNL     1       3.762   3.412  17.334  0.00  0.00    +0.000 OA
BRANCH  16  18
ATOM     17  C   UNL     1       1.466   3.192  17.982  0.00  0.00    +0.000 C 
ATOM     18  C   UNL     1       2.502   4.089  17.331  0.00  0.00    +0.000 C 
ENDBRANCH  16  18
ENDBRANCH   1  16
BRANCH   1  19
ATOM     19  O   UNL     1       5.042   3.208  19.351  0.00  0.00    +0.000 OA
BRANCH  19  20
ATOM     20  C   UNL     1       4.292   2.002  19.501  0.00  0.00    +0.000 C 
ATOM     21  C   UNL     1       4.629   1.374  20.841  0.00  0.00    +0.000 C 
ENDBRANCH  19  20
ENDBRANCH   1  19
BRANCH   4  22
ATOM     22  O   UNL     1       3.704   6.368  17.596  0.00  0.00    +0.000 OA
BRANCH  22  23
ATOM     23  C   UNL     1       3.485   7.770  17.698  0.00  0.00    +0.000 C 
ATOM     24  C   UNL     1       1.990   8.036  17.679  0.00  0.00    +0.000 C 
ENDBRANCH  22  23
ENDBRANCH   4  22
BRANCH   4  25
ATOM     25  O   UNL     1       4.226   5.893  19.847  0.00  0.00    +0.000 OA
BRANCH  25  26
ATOM     26  C   UNL     1       2.818   5.915  20.107  0.00  0.00    +0.000 C 
ATOM     27  C   UNL     1       2.447   4.784  21.045  0.00  0.00    +0.000 C 
ENDBRANCH  25  26
ENDBRANCH   4  25
TORSDOF 11
ENDMDL
MODEL 2
REMARK VINA RESULT:      -5.7      9.387     12.356
REMARK  Name = 
REMARK  15 active torsions:
REMARK  status: ('A' for Active; 'I' for Inactive)
REMARK    1  A    between atoms: C_1  and  C_2
REMARK    2  A    between atoms: C_2  and  O_3
REMARK    3  A    between atoms: O_3  and  C_4
REMARK    4  A    between atoms: C_4  and  O_5
REMARK    5  A    between atoms: O_5  and  C_6
REMARK    6  A    between atoms: C_6  and  C_7
REMARK    7  A    between atoms: C_8  and  C_9
REMARK    8  A    between atoms: C_16  and  C_17
REMARK    9  A    between atoms: C_16  and  C_19
REMARK   10  A    between atoms: C_21  and  O_22
REMARK   11  A    between atoms: C_21  and  O_25
REMARK   12  A    between atoms: O_22  and  C_23
REMARK   13  A    between atoms: C_23  and  C_24
REMARK   14  A    between atoms: O_25  and  C_26
REMARK   15  A    between atoms: C_26  and  C_27
REMARK                            x       y       z     vdW  Elec       q    Type
REMARK                         _______ _______ _______ _____ _____    ______ ____
ROOT
ATOM      1  C   UNL     1      -3.273  13.354  22.227  0.00  0.00    +0.000 C 
ATOM      2  C   UNL     1      -1.977  12.703  22.902  0.00  0.00    +0.000 C 
ATOM      3  C   UNL     1      -1.319  14.135  22.872  0.00  0.00    +0.000 C 
ATOM      4  C   UNL     1      -2.299  14.582  21.726  0.00  0.00    +0.000 C 
ENDROOT
BRANCH   2   5
ATOM      5  C   UNL     1      -1.198  11.418  22.300  0.00  0.00    +0.000 A 
ATOM      6  C   UNL     1      -0.862  10.314  23.118  0.00  0.00    +0.000 A 
ATOM      7  C   UNL     1      -0.046   9.268  22.678  0.00  0.00    +0.000 A 
ATOM      8  C   UNL     1       0.382   9.243  21.362  0.00  0.00    +0.000 A 
ATOM      9 CL   UNL     1       1.440   8.001  20.829  0.00  0.00    +0.000 Cl
ATOM     10  C   UNL     1      -0.049  10.226  20.479  0.00  0.00    +0.000 A 
ATOM     11  C   UNL     1      -0.836  11.289  20.945  0.00  0.00    +0.000 A 
ENDBRANCH   2   5
BRANCH   3  12
ATOM     12  C   UNL     1       0.071  14.291  22.510  0.00  0.00    +0.000 C 
ATOM     13  N   UNL     1       1.191  14.414  22.225  0.00  0.00    +0.000 NA
ENDBRANCH   3  12
BRANCH   3  14
ATOM     14  C   UNL     1      -1.490  14.806  24.154  0.00  0.00    +0.000 C 
ATOM     15  N   UNL     1      -1.673  15.342  25.162  0.00  0.00    +0.000 NA
ENDBRANCH   3  14
BRANCH   1  16
ATOM     16  O   UNL     1      -3.899  12.586  21.164  0.00  0.00    +0.000 OA
BRANCH  16  18
ATOM     17  C   UNL     1      -6.154  12.002  20.605  0.00  0.00    +0.000 C 
ATOM     18  C   UNL     1      -5.121  13.113  20.642  0.00  0.00    +0.000 C 
ENDBRANCH  16  18
ENDBRANCH   1  16
BRANCH   1  19
ATOM     19  O   UNL     1      -4.266  13.771  23.216  0.00  0.00    +0.000 OA
BRANCH  19  20
ATOM     20  C   UNL     1      -4.628  12.830  24.227  0.00  0.00    +0.000 C 
ATOM     21  C   UNL     1      -6.140  12.686  24.251  0.00  0.00    +0.000 C 
ENDBRANCH  19  20
ENDBRANCH   1  19
BRANCH   4  22
ATOM     22  O   UNL     1      -1.833  14.549  20.330  0.00  0.00    +0.000 OA
BRANCH  22  23
ATOM     23  C   UNL     1      -1.026  15.557  19.735  0.00  0.00    +0.000 C 
ATOM     24  C   UNL     1      -0.044  14.900  18.781  0.00  0.00    +0.000 C 
ENDBRANCH  22  23
ENDBRANCH   4  22
BRANCH   4  25
ATOM     25  O   UNL     1      -2.890  15.914  21.939  0.00  0.00    +0.000 OA
BRANCH  25  26
ATOM     26  C   UNL     1      -3.812  16.364  20.940  0.00  0.00    +0.000 C 
ATOM     27  C   UNL     1      -4.842  17.284  21.563  0.00  0.00    +0.000 C 
ENDBRANCH  25  26
ENDBRANCH   4  25
TORSDOF 11
ENDMDL
MODEL 3
REMARK VINA RESULT:      -5.7      7.125     10.263
REMARK  Name = 
REMARK  15 active torsions:
REMARK  status: ('A' for Active; 'I' for Inactive)
REMARK    1  A    between atoms: C_1  and  C_2
REMARK    2  A    between atoms: C_2  and  O_3
REMARK    3  A    between atoms: O_3  and  C_4
REMARK    4  A    between atoms: C_4  and  O_5
REMARK    5  A    between atoms: O_5  and  C_6
REMARK    6  A    between atoms: C_6  and  C_7
REMARK    7  A    between atoms: C_8  and  C_9
REMARK    8  A    between atoms: C_16  and  C_17
REMARK    9  A    between atoms: C_16  and  C_19
REMARK   10  A    between atoms: C_21  and  O_22
REMARK   11  A    between atoms: C_21  and  O_25
REMARK   12  A    between atoms: O_22  and  C_23
REMARK   13  A    between atoms: C_23  and  C_24
REMARK   14  A    between atoms: O_25  and  C_26
REMARK   15  A    between atoms: C_26  and  C_27
REMARK                            x       y       z     vdW  Elec       q    Type
REMARK                         _______ _______ _______ _____ _____    ______ ____
ROOT
ATOM      1  C   UNL     1       0.135  11.024  20.196  0.00  0.00    +0.000 C 
ATOM      2  C   UNL     1      -0.433  11.606  18.818  0.00  0.00    +0.000 C 
ATOM      3  C   UNL     1       0.436  12.896  19.079  0.00  0.00    +0.000 C 
ATOM      4  C   UNL     1       0.486  12.575  20.618  0.00  0.00    +0.000 C 
ENDROOT
BRANCH   2   5
ATOM      5  C   UNL     1      -2.009  11.723  18.473  0.00  0.00    +0.000 A 
ATOM      6  C   UNL     1      -2.936  12.203  19.428  0.00  0.00    +0.000 A 
ATOM      7  C   UNL     1      -4.319  12.160  19.229  0.00  0.00    +0.000 A 
ATOM      8  C   UNL     1      -4.820  11.723  18.015  0.00  0.00    +0.000 A 
ATOM      9 CL   UNL     1      -6.517  11.600  17.783  0.00  0.00    +0.000 Cl
ATOM     10  C   UNL     1      -3.944  11.386  16.990  0.00  0.00    +0.000 A 
ATOM     11  C   UNL     1      -2.561  11.399  17.218  0.00  0.00    +0.000 A 
ENDBRANCH   2   5
BRANCH   3  12
ATOM     12  C   UNL     1      -0.104  14.206  18.800  0.00  0.00    +0.000 C 
ATOM     13  N   UNL     1      -0.539  15.259  18.569  0.00  0.00    +0.000 NA
ENDBRANCH   3  12
BRANCH   3  14
ATOM     14  C   UNL     1       1.705  12.811  18.370  0.00  0.00    +0.000 C 
ATOM     15  N   UNL     1       2.716  12.698  17.818  0.00  0.00    +0.000 NA
ENDBRANCH   3  14
BRANCH   1  16
ATOM     16  O   UNL     1      -0.825  10.350  21.053  0.00  0.00    +0.000 OA
BRANCH  16  18
ATOM     17  C   UNL     1      -0.100   9.534  23.186  0.00  0.00    +0.000 C 
ATOM     18  C   UNL     1      -0.353   9.183  21.732  0.00  0.00    +0.000 C 
ENDBRANCH  16  18
ENDBRANCH   1  16
BRANCH   1  19
ATOM     19  O   UNL     1       1.325  10.194  20.002  0.00  0.00    +0.000 OA
BRANCH  19  20
ATOM     20  C   UNL     1       1.393   9.406  18.813  0.00  0.00    +0.000 C 
ATOM     21  C   UNL     1       2.080   8.090  19.132  0.00  0.00    +0.000 C 
ENDBRANCH  19  20
ENDBRANCH   1  19
BRANCH   4  22
ATOM     22  O   UNL     1      -0.452  13.257  21.524  0.00  0.00    +0.000 OA
BRANCH  22  23
ATOM     23  C   UNL     1      -0.765  12.806  22.836  0.00  0.00    +0.000 C 
ATOM     24  C   UNL     1      -2.260  12.951  23.062  0.00  0.00    +0.000 C 
ENDBRANCH  22  23
ENDBRANCH   4  22
BRANCH   4  25
ATOM     25  O   UNL     1       1.825  12.725  21.211  0.00  0.00    +0.000 OA
BRANCH  25  26
ATOM     26  C   UNL     1       2.225  14.062  21.536  0.00  0.00    +0.000 C 
ATOM     27  C   UNL     1       3.685  14.265  21.184  0.00  0.00    +0.000 C 
ENDBRANCH  25  26
ENDBRANCH   4  25
TORSDOF 11
ENDMDL
MODEL 4
REMARK VINA RESULT:      -5.5      8.726     11.854
REMARK  Name = 
REMARK  15 active torsions:
REMARK  status: ('A' for Active; 'I' for Inactive)
REMARK    1  A    between atoms: C_1  and  C_2
REMARK    2  A    between atoms: C_2  and  O_3
REMARK    3  A    between atoms: O_3  and  C_4
REMARK    4  A    between atoms: C_4  and  O_5
REMARK    5  A    between atoms: O_5  and  C_6
REMARK    6  A    between atoms: C_6  and  C_7
REMARK    7  A    between atoms: C_8  and  C_9
REMARK    8  A    between atoms: C_16  and  C_17
REMARK    9  A    between atoms: C_16  and  C_19
REMARK   10  A    between atoms: C_21  and  O_22
REMARK   11  A    between atoms: C_21  and  O_25
REMARK   12  A    between atoms: O_22  and  C_23
REMARK   13  A    between atoms: C_23  and  C_24
REMARK   14  A    between atoms: O_25  and  C_26
REMARK   15  A    between atoms: C_26  and  C_27
REMARK                            x       y       z     vdW  Elec       q    Type
REMARK                         _______ _______ _______ _____ _____    ______ ____
ROOT
ATOM      1  C   UNL     1      -2.040  14.213  20.912  0.00  0.00    +0.000 C 
ATOM      2  C   UNL     1      -2.104  12.621  20.770  0.00  0.00    +0.000 C 
ATOM      3  C   UNL     1      -2.006  12.540  22.342  0.00  0.00    +0.000 C 
ATOM      4  C   UNL     1      -1.368  13.977  22.395  0.00  0.00    +0.000 C 
ENDROOT
BRANCH   2   5
ATOM      5  C   UNL     1      -1.106  11.761  19.831  0.00  0.00    +0.000 A 
ATOM      6  C   UNL     1      -1.604  10.855  18.865  0.00  0.00    +0.000 A 
ATOM      7  C   UNL     1      -0.781   9.975  18.157  0.00  0.00    +0.000 A 
ATOM      8  C   UNL     1       0.591  10.043  18.322  0.00  0.00    +0.000 A 
ATOM      9 CL   UNL     1       1.607   8.922  17.510  0.00  0.00    +0.000 Cl
ATOM     10  C   UNL     1       1.139  11.021  19.144  0.00  0.00    +0.000 A 
ATOM     11  C   UNL     1       0.298  11.871  19.877  0.00  0.00    +0.000 A 
ENDBRANCH   2   5
BRANCH   3  12
ATOM     12  C   UNL     1      -1.177  11.538  22.969  0.00  0.00    +0.000 C 
ATOM     13  N   UNL     1      -0.515  10.727  23.474  0.00  0.00    +0.000 NA
ENDBRANCH   3  12
BRANCH   3  14
ATOM     14  C   UNL     1      -3.331  12.411  22.933  0.00  0.00    +0.000 C 
ATOM     15  N   UNL     1      -4.363  12.298  23.444  0.00  0.00    +0.000 NA
ENDBRANCH   3  14
BRANCH   1  16
ATOM     16  O   UNL     1      -1.201  14.911  19.954  0.00  0.00    +0.000 OA
BRANCH  16  18
ATOM     17  C   UNL     1      -0.419  16.886  18.846  0.00  0.00    +0.000 C 
ATOM     18  C   UNL     1      -1.448  16.311  19.800  0.00  0.00    +0.000 C 
ENDBRANCH  16  18
ENDBRANCH   1  16
BRANCH   1  19
ATOM     19  O   UNL     1      -3.370  14.820  20.971  0.00  0.00    +0.000 OA
BRANCH  19  20
ATOM     20  C   UNL     1      -4.419  14.187  20.237  0.00  0.00    +0.000 C 
ATOM     21  C   UNL     1      -5.756  14.617  20.816  0.00  0.00    +0.000 C 
ENDBRANCH  19  20
ENDBRANCH   1  19
BRANCH   4  22
ATOM     22  O   UNL     1       0.095  14.108  22.502  0.00  0.00    +0.000 OA
BRANCH  22  23
ATOM     23  C   UNL     1       0.806  15.316  22.264  0.00  0.00    +0.000 C 
ATOM     24  C   UNL     1       2.032  15.008  21.423  0.00  0.00    +0.000 C 
ENDBRANCH  22  23
ENDBRANCH   4  22
BRANCH   4  25
ATOM     25  O   UNL     1      -1.944  14.842  23.437  0.00  0.00    +0.000 OA
BRANCH  25  26
ATOM     26  C   UNL     1      -1.234  14.891  24.680  0.00  0.00    +0.000 C 
ATOM     27  C   UNL     1      -2.158  15.362  25.785  0.00  0.00    +0.000 C 
ENDBRANCH  25  26
ENDBRANCH   4  25
TORSDOF 11
ENDMDL
MODEL 5
REMARK VINA RESULT:      -5.5      7.827     11.005
REMARK  Name = 
REMARK  15 active torsions:
REMARK  status: ('A' for Active; 'I' for Inactive)
REMARK    1  A    between atoms: C_1  and  C_2
REMARK    2  A    between atoms: C_2  and  O_3
REMARK    3  A    between atoms: O_3  and  C_4
REMARK    4  A    between atoms: C_4  and  O_5
REMARK    5  A    between atoms: O_5  and  C_6
REMARK    6  A    between atoms: C_6  and  C_7
REMARK    7  A    between atoms: C_8  and  C_9
REMARK    8  A    between atoms: C_16  and  C_17
REMARK    9  A    between atoms: C_16  and  C_19
REMARK   10  A    between atoms: C_21  and  O_22
REMARK   11  A    between atoms: C_21  and  O_25
REMARK   12  A    between atoms: O_22  and  C_23
REMARK   13  A    between atoms: C_23  and  C_24
REMARK   14  A    between atoms: O_25  and  C_26
REMARK   15  A    between atoms: C_26  and  C_27
REMARK                            x       y       z     vdW  Elec       q    Type
REMARK                         _______ _______ _______ _____ _____    ______ ____
ROOT
ATOM      1  C   UNL     1      -1.624  11.511  19.641  0.00  0.00    +0.000 C 
ATOM      2  C   UNL     1      -0.602  12.618  19.102  0.00  0.00    +0.000 C 
ATOM      3  C   UNL     1       0.550  11.808  19.811  0.00  0.00    +0.000 C 
ATOM      4  C   UNL     1      -0.493  11.129  20.773  0.00  0.00    +0.000 C 
ENDROOT
BRANCH   2   5
ATOM      5  C   UNL     1      -0.778  14.206  19.358  0.00  0.00    +0.000 A 
ATOM      6  C   UNL     1      -1.540  14.694  20.445  0.00  0.00    +0.000 A 
ATOM      7  C   UNL     1      -1.855  16.047  20.602  0.00  0.00    +0.000 A 
ATOM      8  C   UNL     1      -1.329  16.976  19.721  0.00  0.00    +0.000 A 
ATOM      9 CL   UNL     1      -1.765  18.631  19.861  0.00  0.00    +0.000 Cl
ATOM     10  C   UNL     1      -0.450  16.562  18.727  0.00  0.00    +0.000 A 
ATOM     11  C   UNL     1      -0.174  15.198  18.560  0.00  0.00    +0.000 A 
ENDBRANCH   2   5
BRANCH   3  12
ATOM     12  C   UNL     1       1.597  12.502  20.524  0.00  0.00    +0.000 C 
ATOM     13  N   UNL     1       2.434  13.064  21.103  0.00  0.00    +0.000 NA
ENDBRANCH   3  12
BRANCH   3  14
ATOM     14  C   UNL     1       1.212  10.921  18.864  0.00  0.00    +0.000 C 
ATOM     15  N   UNL     1       1.699  10.219  18.084  0.00  0.00    +0.000 NA
ENDBRANCH   3  14
BRANCH   1  16
ATOM     16  O   UNL     1      -2.886  12.004  20.166  0.00  0.00    +0.000 OA
BRANCH  16  18
ATOM     17  C   UNL     1      -5.079  12.921  19.870  0.00  0.00    +0.000 C 
ATOM     18  C   UNL     1      -3.952  12.140  19.223  0.00  0.00    +0.000 C 
ENDBRANCH  16  18
ENDBRANCH   1  16
BRANCH   1  19
ATOM     19  O   UNL     1      -1.852  10.443  18.668  0.00  0.00    +0.000 OA
BRANCH  19  20
ATOM     20  C   UNL     1      -1.857  10.799  17.285  0.00  0.00    +0.000 C 
ATOM     21  C   UNL     1      -2.769   9.846  16.533  0.00  0.00    +0.000 C 
ENDBRANCH  19  20
ENDBRANCH   1  19
BRANCH   4  22
ATOM     22  O   UNL     1      -0.681  11.675  22.127  0.00  0.00    +0.000 OA
BRANCH  22  23
ATOM     23  C   UNL     1      -1.596  11.147  23.080  0.00  0.00    +0.000 C 
ATOM     24  C   UNL     1      -2.623  12.213  23.417  0.00  0.00    +0.000 C 
ENDBRANCH  22  23
ENDBRANCH   4  22
BRANCH   4  25
ATOM     25  O   UNL     1      -0.297   9.678  20.930  0.00  0.00    +0.000 OA
BRANCH  25  26
ATOM     26  C   UNL     1       0.752   9.275  21.817  0.00  0.00    +0.000 C 
ATOM     27  C   UNL     1       1.479   8.074  21.247  0.00  0.00    +0.000 C 
ENDBRANCH  25  26
ENDBRANCH   4  25
TORSDOF 11
ENDMDL
MODEL 6
REMARK VINA RESULT:      -5.5      9.742     12.729
REMARK  Name = 
REMARK  15 active torsions:
REMARK  status: ('A' for Active; 'I' for Inactive)
REMARK    1  A    between atoms: C_1  and  C_2
REMARK    2  A    between atoms: C_2  and  O_3
REMARK    3  A    between atoms: O_3  and  C_4
REMARK    4  A    between atoms: C_4  and  O_5
REMARK    5  A    between atoms: O_5  and  C_6
REMARK    6  A    between atoms: C_6  and  C_7
REMARK    7  A    between atoms: C_8  and  C_9
REMARK    8  A    between atoms: C_16  and  C_17
REMARK    9  A    between atoms: C_16  and  C_19
REMARK   10  A    between atoms: C_21  and  O_22
REMARK   11  A    between atoms: C_21  and  O_25
REMARK   12  A    between atoms: O_22  and  C_23
REMARK   13  A    between atoms: C_23  and  C_24
REMARK   14  A    between atoms: O_25  and  C_26
REMARK   15  A    between atoms: C_26  and  C_27
REMARK                            x       y       z     vdW  Elec       q    Type
REMARK                         _______ _______ _______ _____ _____    ______ ____
ROOT
ATOM      1  C   UNL     1      -3.543  13.498  22.224  0.00  0.00    +0.000 C 
ATOM      2  C   UNL     1      -2.268  12.987  23.046  0.00  0.00    +0.000 C 
ATOM      3  C   UNL     1      -1.779  14.485  23.095  0.00  0.00    +0.000 C 
ATOM      4  C   UNL     1      -2.665  14.836  21.843  0.00  0.00    +0.000 C 
ENDROOT
BRANCH   2   5
ATOM      5  C   UNL     1      -1.284  11.809  22.536  0.00  0.00    +0.000 A 
ATOM      6  C   UNL     1      -0.554  11.932  21.330  0.00  0.00    +0.000 A 
ATOM      7  C   UNL     1       0.171  10.874  20.773  0.00  0.00    +0.000 A 
ATOM      8  C   UNL     1       0.271   9.678  21.462  0.00  0.00    +0.000 A 
ATOM      9 CL   UNL     1       1.100   8.351  20.756  0.00  0.00    +0.000 Cl
ATOM     10  C   UNL     1      -0.300   9.560  22.723  0.00  0.00    +0.000 A 
ATOM     11  C   UNL     1      -1.056  10.617  23.251  0.00  0.00    +0.000 A 
ENDBRANCH   2   5
BRANCH   3  12
ATOM     12  C   UNL     1      -0.384  14.802  22.898  0.00  0.00    +0.000 C 
ATOM     13  N   UNL     1       0.741  15.056  22.746  0.00  0.00    +0.000 NA
ENDBRANCH   3  12
BRANCH   3  14
ATOM     14  C   UNL     1      -2.172  15.113  24.349  0.00  0.00    +0.000 C 
ATOM     15  N   UNL     1      -2.443  15.597  25.365  0.00  0.00    +0.000 NA
ENDBRANCH   3  14
BRANCH   1  16
ATOM     16  O   UNL     1      -3.950  12.681  21.095  0.00  0.00    +0.000 OA
BRANCH  16  18
ATOM     17  C   UNL     1      -6.118  11.935  20.399  0.00  0.00    +0.000 C 
ATOM     18  C   UNL     1      -5.138  13.093  20.414  0.00  0.00    +0.000 C 
ENDBRANCH  16  18
ENDBRANCH   1  16
BRANCH   1  19
ATOM     19  O   UNL     1      -4.685  13.785  23.092  0.00  0.00    +0.000 OA
BRANCH  19  20
ATOM     20  C   UNL     1      -5.031  12.808  24.074  0.00  0.00    +0.000 C 
ATOM     21  C   UNL     1      -6.541  12.642  24.096  0.00  0.00    +0.000 C 
ENDBRANCH  19  20
ENDBRANCH   1  19
BRANCH   4  22
ATOM     22  O   UNL     1      -2.039  14.877  20.511  0.00  0.00    +0.000 OA
BRANCH  22  23
ATOM     23  C   UNL     1      -1.291  15.980  20.016  0.00  0.00    +0.000 C 
ATOM     24  C   UNL     1      -0.167  15.456  19.138  0.00  0.00    +0.000 C 
ENDBRANCH  22  23
ENDBRANCH   4  22
BRANCH   4  25
ATOM     25  O   UNL     1      -3.424  16.089  21.988  0.00  0.00    +0.000 OA
BRANCH  25  26
ATOM     26  C   UNL     1      -4.248  16.461  20.878  0.00  0.00    +0.000 C 
ATOM     27  C   UNL     1      -5.664  16.721  21.349  0.00  0.00    +0.000 C 
ENDBRANCH  25  26
ENDBRANCH   4  25
TORSDOF 11
ENDMDL
MODEL 7
REMARK VINA RESULT:      -5.5      9.033     11.033
REMARK  Name = 
REMARK  15 active torsions:
REMARK  status: ('A' for Active; 'I' for Inactive)
REMARK    1  A    between atoms: C_1  and  C_2
REMARK    2  A    between atoms: C_2  and  O_3
REMARK    3  A    between atoms: O_3  and  C_4
REMARK    4  A    between atoms: C_4  and  O_5
REMARK    5  A    between atoms: O_5  and  C_6
REMARK    6  A    between atoms: C_6  and  C_7
REMARK    7  A    between atoms: C_8  and  C_9
REMARK    8  A    between atoms: C_16  and  C_17
REMARK    9  A    between atoms: C_16  and  C_19
REMARK   10  A    between atoms: C_21  and  O_22
REMARK   11  A    between atoms: C_21  and  O_25
REMARK   12  A    between atoms: O_22  and  C_23
REMARK   13  A    between atoms: C_23  and  C_24
REMARK   14  A    between atoms: O_25  and  C_26
REMARK   15  A    between atoms: C_26  and  C_27
REMARK                            x       y       z     vdW  Elec       q    Type
REMARK                         _______ _______ _______ _____ _____    ______ ____
ROOT
ATOM      1  C   UNL     1      -1.500  12.272  21.796  0.00  0.00    +0.000 C 
ATOM      2  C   UNL     1      -0.863  11.868  20.385  0.00  0.00    +0.000 C 
ATOM      3  C   UNL     1      -0.144  13.271  20.380  0.00  0.00    +0.000 C 
ATOM      4  C   UNL     1      -1.203  13.839  21.395  0.00  0.00    +0.000 C 
ENDROOT
BRANCH   2   5
ATOM      5  C   UNL     1      -1.734  11.378  19.112  0.00  0.00    +0.000 A 
ATOM      6  C   UNL     1      -1.261  10.366  18.245  0.00  0.00    +0.000 A 
ATOM      7  C   UNL     1      -1.902  10.035  17.047  0.00  0.00    +0.000 A 
ATOM      8  C   UNL     1      -3.102  10.644  16.725  0.00  0.00    +0.000 A 
ATOM      9 CL   UNL     1      -3.862  10.297  15.225  0.00  0.00    +0.000 Cl
ATOM     10  C   UNL     1      -3.685  11.533  17.620  0.00  0.00    +0.000 A 
ATOM     11  C   UNL     1      -3.012  11.883  18.799  0.00  0.00    +0.000 A 
ENDBRANCH   2   5
BRANCH   3  12
ATOM     12  C   UNL     1      -0.066  14.046  19.164  0.00  0.00    +0.000 C 
ATOM     13  N   UNL     1       0.004  14.669  18.185  0.00  0.00    +0.000 NA
ENDBRANCH   3  12
BRANCH   3  14
ATOM     14  C   UNL     1       1.218  13.151  20.882  0.00  0.00    +0.000 C 
ATOM     15  N   UNL     1       2.282  13.053  21.326  0.00  0.00    +0.000 NA
ENDBRANCH   3  14
BRANCH   1  16
ATOM     16  O   UNL     1      -2.900  11.936  21.989  0.00  0.00    +0.000 OA
BRANCH  16  18
ATOM     17  C   UNL     1      -4.882  13.043  22.755  0.00  0.00    +0.000 C 
ATOM     18  C   UNL     1      -3.527  12.488  23.150  0.00  0.00    +0.000 C 
ENDBRANCH  16  18
ENDBRANCH   1  16
BRANCH   1  19
ATOM     19  O   UNL     1      -0.696  11.801  22.924  0.00  0.00    +0.000 OA
BRANCH  19  20
ATOM     20  C   UNL     1      -0.789  10.419  23.272  0.00  0.00    +0.000 C 
ATOM     21  C   UNL     1       0.455   9.701  22.779  0.00  0.00    +0.000 C 
ENDBRANCH  19  20
ENDBRANCH   1  19
BRANCH   4  22
ATOM     22  O   UNL     1      -2.333  14.632  20.884  0.00  0.00    +0.000 OA
BRANCH  22  23
ATOM     23  C   UNL     1      -2.265  16.022  20.594  0.00  0.00    +0.000 C 
ATOM     24  C   UNL     1      -3.658  16.616  20.705  0.00  0.00    +0.000 C 
ENDBRANCH  22  23
ENDBRANCH   4  22
BRANCH   4  25
ATOM     25  O   UNL     1      -0.610  14.617  22.496  0.00  0.00    +0.000 OA
BRANCH  25  26
ATOM     26  C   UNL     1      -1.528  15.332  23.331  0.00  0.00    +0.000 C 
ATOM     27  C   UNL     1      -1.260  15.011  24.787  0.00  0.00    +0.000 C 
ENDBRANCH  25  26
ENDBRANCH   4  25
TORSDOF 11
ENDMDL
MODEL 8
REMARK VINA RESULT:      -5.5      8.820     11.007
REMARK  Name = 
REMARK  15 active torsions:
REMARK  status: ('A' for Active; 'I' for Inactive)
REMARK    1  A    between atoms: C_1  and  C_2
REMARK    2  A    between atoms: C_2  and  O_3
REMARK    3  A    between atoms: O_3  and  C_4
REMARK    4  A    between atoms: C_4  and  O_5
REMARK    5  A    between atoms: O_5  and  C_6
REMARK    6  A    between atoms: C_6  and  C_7
REMARK    7  A    between atoms: C_8  and  C_9
REMARK    8  A    between atoms: C_16  and  C_17
REMARK    9  A    between atoms: C_16  and  C_19
REMARK   10  A    between atoms: C_21  and  O_22
REMARK   11  A    between atoms: C_21  and  O_25
REMARK   12  A    between atoms: O_22  and  C_23
REMARK   13  A    between atoms: C_23  and  C_24
REMARK   14  A    between atoms: O_25  and  C_26
REMARK   15  A    between atoms: C_26  and  C_27
REMARK                            x       y       z     vdW  Elec       q    Type
REMARK                         _______ _______ _______ _____ _____    ______ ____
ROOT
ATOM      1  C   UNL     1      -1.313  13.596  20.700  0.00  0.00    +0.000 C 
ATOM      2  C   UNL     1      -1.814  12.128  20.306  0.00  0.00    +0.000 C 
ATOM      3  C   UNL     1      -0.404  11.592  20.763  0.00  0.00    +0.000 C 
ATOM      4  C   UNL     1       0.224  13.022  20.570  0.00  0.00    +0.000 C 
ENDROOT
BRANCH   2   5
ATOM      5  C   UNL     1      -2.418  11.744  18.854  0.00  0.00    +0.000 A 
ATOM      6  C   UNL     1      -3.793  11.464  18.682  0.00  0.00    +0.000 A 
ATOM      7  C   UNL     1      -4.320  10.966  17.487  0.00  0.00    +0.000 A 
ATOM      8  C   UNL     1      -3.496  10.826  16.384  0.00  0.00    +0.000 A 
ATOM      9 CL   UNL     1      -4.116  10.151  14.932  0.00  0.00    +0.000 Cl
ATOM     10  C   UNL     1      -2.170  11.234  16.459  0.00  0.00    +0.000 A 
ATOM     11  C   UNL     1      -1.647  11.695  17.676  0.00  0.00    +0.000 A 
ENDBRANCH   2   5
BRANCH   3  12
ATOM     12  C   UNL     1       0.274  10.577  19.992  0.00  0.00    +0.000 C 
ATOM     13  N   UNL     1       0.814   9.758  19.368  0.00  0.00    +0.000 NA
ENDBRANCH   3  12
BRANCH   3  14
ATOM     14  C   UNL     1      -0.461  11.102  22.134  0.00  0.00    +0.000 C 
ATOM     15  N   UNL     1      -0.460  10.703  23.220  0.00  0.00    +0.000 NA
ENDBRANCH   3  14
BRANCH   1  16
ATOM     16  O   UNL     1      -1.656  14.663  19.776  0.00  0.00    +0.000 OA
BRANCH  16  18
ATOM     17  C   UNL     1      -0.447  16.563  18.959  0.00  0.00    +0.000 C 
ATOM     18  C   UNL     1      -1.209  15.974  20.131  0.00  0.00    +0.000 C 
ENDBRANCH  16  18
ENDBRANCH   1  16
BRANCH   1  19
ATOM     19  O   UNL     1      -1.680  13.960  22.069  0.00  0.00    +0.000 OA
BRANCH  19  20
ATOM     20  C   UNL     1      -3.053  13.836  22.440  0.00  0.00    +0.000 C 
ATOM     21  C   UNL     1      -3.140  13.115  23.774  0.00  0.00    +0.000 C 
ENDBRANCH  19  20
ENDBRANCH   1  19
BRANCH   4  22
ATOM     22  O   UNL     1       0.954  13.322  19.328  0.00  0.00    +0.000 OA
BRANCH  22  23
ATOM     23  C   UNL     1       2.299  12.932  19.080  0.00  0.00    +0.000 C 
ATOM     24  C   UNL     1       2.982  14.015  18.263  0.00  0.00    +0.000 C 
ENDBRANCH  22  23
ENDBRANCH   4  22
BRANCH   4  25
ATOM     25  O   UNL     1       1.095  13.440  21.681  0.00  0.00    +0.000 OA
BRANCH  25  26
ATOM     26  C   UNL     1       1.549  14.798  21.651  0.00  0.00    +0.000 C 
ATOM     27  C   UNL     1       3.030  14.856  21.965  0.00  0.00    +0.000 C 
ENDBRANCH  25  26
ENDBRANCH   4  25
TORSDOF 11
ENDMDL
MODEL 9
REMARK VINA RESULT:      -5.5      7.138     10.228
REMARK  Name = 
REMARK  15 active torsions:
REMARK  status: ('A' for Active; 'I' for Inactive)
REMARK    1  A    between atoms: C_1  and  C_2
REMARK    2  A    between atoms: C_2  and  O_3
REMARK    3  A    between atoms: O_3  and  C_4
REMARK    4  A    between atoms: C_4  and  O_5
REMARK    5  A    between atoms: O_5  and  C_6
REMARK    6  A    between atoms: C_6  and  C_7
REMARK    7  A    between atoms: C_8  and  C_9
REMARK    8  A    between atoms: C_16  and  C_17
REMARK    9  A    between atoms: C_16  and  C_19
REMARK   10  A    between atoms: C_21  and  O_22
REMARK   11  A    between atoms: C_21  and  O_25
REMARK   12  A    between atoms: O_22  and  C_23
REMARK   13  A    between atoms: C_23  and  C_24
REMARK   14  A    between atoms: O_25  and  C_26
REMARK   15  A    between atoms: C_26  and  C_27
REMARK                            x       y       z     vdW  Elec       q    Type
REMARK                         _______ _______ _______ _____ _____    ______ ____
ROOT
ATOM      1  C   UNL     1      -1.020  13.120  19.479  0.00  0.00    +0.000 C 
ATOM      2  C   UNL     1      -0.164  12.173  20.444  0.00  0.00    +0.000 C 
ATOM      3  C   UNL     1       0.593  13.466  20.937  0.00  0.00    +0.000 C 
ATOM      4  C   UNL     1       0.189  14.228  19.621  0.00  0.00    +0.000 C 
ENDROOT
BRANCH   2   5
ATOM      5  C   UNL     1       0.657  10.876  19.934  0.00  0.00    +0.000 A 
ATOM      6  C   UNL     1       1.333  10.876  18.692  0.00  0.00    +0.000 A 
ATOM      7  C   UNL     1       1.907   9.726  18.142  0.00  0.00    +0.000 A 
ATOM      8  C   UNL     1       1.909   8.550  18.871  0.00  0.00    +0.000 A 
ATOM      9 CL   UNL     1       2.549   7.115  18.178  0.00  0.00    +0.000 Cl
ATOM     10  C   UNL     1       1.394   8.538  20.161  0.00  0.00    +0.000 A 
ATOM     11  C   UNL     1       0.787   9.690  20.684  0.00  0.00    +0.000 A 
ENDBRANCH   2   5
BRANCH   3  12
ATOM     12  C   UNL     1       2.021  13.438  21.150  0.00  0.00    +0.000 C 
ATOM     13  N   UNL     1       3.170  13.408  21.319  0.00  0.00    +0.000 NA
ENDBRANCH   3  12
BRANCH   3  14
ATOM     14  C   UNL     1       0.001  13.969  22.170  0.00  0.00    +0.000 C 
ATOM     15  N   UNL     1      -0.498  14.329  23.150  0.00  0.00    +0.000 NA
ENDBRANCH   3  14
BRANCH   1  16
ATOM     16  O   UNL     1      -1.252  12.625  18.134  0.00  0.00    +0.000 OA
BRANCH  16  18
ATOM     17  C   UNL     1      -1.902  10.527  17.176  0.00  0.00    +0.000 C 
ATOM     18  C   UNL     1      -2.360  11.735  17.973  0.00  0.00    +0.000 C 
ENDBRANCH  16  18
ENDBRANCH   1  16
BRANCH   1  19
ATOM     19  O   UNL     1      -2.275  13.553  20.094  0.00  0.00    +0.000 OA
BRANCH  19  20
ATOM     20  C   UNL     1      -2.922  12.644  20.986  0.00  0.00    +0.000 C 
ATOM     21  C   UNL     1      -4.424  12.839  20.885  0.00  0.00    +0.000 C 
ENDBRANCH  19  20
ENDBRANCH   1  19
BRANCH   4  22
ATOM     22  O   UNL     1       1.159  14.314  18.517  0.00  0.00    +0.000 OA
BRANCH  22  23
ATOM     23  C   UNL     1       2.172  15.307  18.422  0.00  0.00    +0.000 C 
ATOM     24  C   UNL     1       3.455  14.655  17.937  0.00  0.00    +0.000 C 
ENDBRANCH  22  23
ENDBRANCH   4  22
BRANCH   4  25
ATOM     25  O   UNL     1      -0.302  15.595  19.856  0.00  0.00    +0.000 OA
BRANCH  25  26
ATOM     26  C   UNL     1      -0.662  16.346  18.691  0.00  0.00    +0.000 C 
ATOM     27  C   UNL     1      -0.669  17.827  19.012  0.00  0.00    +0.000 C 
ENDBRANCH  25  26
ENDBRANCH   4  25
TORSDOF 11
ENDMDL
