MODEL 1
REMARK VINA RESULT:      -8.4      0.000      0.000
REMARK  Name = 
REMARK  4 active torsions:
REMARK  status: ('A' for Active; 'I' for Inactive)
REMARK    1  A    between atoms: C_4  and  C_5
REMARK    2  A    between atoms: C_5  and  N_6
REMARK    3  A    between atoms: C_8  and  C_9
REMARK    4  A    between atoms: C_15  and  C_16
REMARK                            x       y       z     vdW  Elec       q    Type
REMARK                         _______ _______ _______ _____ _____    ______ ____
ROOT
ATOM      1  C   UNL     1       1.957   6.480  20.233  0.00  0.00    +0.000 A 
ATOM      2  C   UNL     1       1.331   5.337  20.744  0.00  0.00    +0.000 A 
ATOM      3  C   UNL     1       1.944   4.070  20.681  0.00  0.00    +0.000 A 
ATOM      4  C   UNL     1       3.212   4.001  20.085  0.00  0.00    +0.000 A 
ATOM      5  N   UNL     1       4.079   2.967  19.847  0.00  0.00    +0.000 N 
ATOM      6  N   UNL     1       5.201   3.322  19.183  0.00  0.00    +0.000 NA
ATOM      7  C   UNL     1       5.107   4.657  19.102  0.00  0.00    +0.000 A 
ATOM      8  C   UNL     1       3.858   5.117  19.582  0.00  0.00    +0.000 A 
ATOM      9  C   UNL     1       3.205   6.355  19.620  0.00  0.00    +0.000 A 
ATOM     10  H   UNL     1       3.963   1.992  20.101  0.00  0.00    +0.000 HD
ENDROOT
BRANCH   1  13
ATOM     11  N   UNL     1       0.715   9.802  19.862  0.00  0.00    +0.000 N 
ATOM     12  C   UNL     1       1.414   8.756  19.346  0.00  0.00    +0.000 A 
ATOM     13  C   UNL     1       1.373   7.800  20.338  0.00  0.00    +0.000 A 
ATOM     14  N   UNL     1       0.688   8.295  21.414  0.00  0.00    +0.000 NA
ATOM     15  N   UNL     1       0.265   9.522  21.099  0.00  0.00    +0.000 NA
BRANCH  11  16
ATOM     16  C   UNL     1       0.331  11.020  19.169  0.00  0.00    +0.000 C 
BRANCH  16  20
ATOM     17  C   UNL     1      -3.681  10.721  17.598  0.00  0.00    +0.000 A 
ATOM     18  C   UNL     1      -2.672   9.903  17.096  0.00  0.00    +0.000 A 
ATOM     19  C   UNL     1      -1.372  10.009  17.598  0.00  0.00    +0.000 A 
ATOM     20  C   UNL     1      -1.064  10.943  18.605  0.00  0.00    +0.000 A 
ATOM     21  C   UNL     1      -2.094  11.755  19.102  0.00  0.00    +0.000 A 
ATOM     22  C   UNL     1      -3.395  11.646  18.599  0.00  0.00    +0.000 A 
ENDBRANCH  16  20
ENDBRANCH  11  16
ENDBRANCH   1  13
BRANCH   7  23
ATOM     23  C   UNL     1       6.207   5.533  18.581  0.00  0.00    +0.000 A 
ATOM     24  C   UNL     1       7.364   5.827  19.276  0.00  0.00    +0.000 A 
ATOM     25  C   UNL     1       8.198   6.734  18.558  0.00  0.00    +0.000 A 
ATOM     26  C   UNL     1       7.643   7.122  17.360  0.00  0.00    +0.000 A 
ATOM     27  S   UNL     1       6.169   6.319  17.059  0.00  0.00    +0.000 S 
ENDBRANCH   7  23
TORSDOF 4
ENDMDL
MODEL 2
REMARK VINA RESULT:      -8.3      1.384      1.862
REMARK  Name = 
REMARK  4 active torsions:
REMARK  status: ('A' for Active; 'I' for Inactive)
REMARK    1  A    between atoms: C_4  and  C_5
REMARK    2  A    between atoms: C_5  and  N_6
REMARK    3  A    between atoms: C_8  and  C_9
REMARK    4  A    between atoms: C_15  and  C_16
REMARK                            x       y       z     vdW  Elec       q    Type
REMARK                         _______ _______ _______ _____ _____    ______ ____
ROOT
ATOM      1  C   UNL     1       2.149   6.086  20.058  0.00  0.00    +0.000 A 
ATOM      2  C   UNL     1       1.697   5.162  21.006  0.00  0.00    +0.000 A 
ATOM      3  C   UNL     1       2.136   3.823  20.998  0.00  0.00    +0.000 A 
ATOM      4  C   UNL     1       3.051   3.455  20.000  0.00  0.00    +0.000 A 
ATOM      5  N   UNL     1       3.671   2.273  19.688  0.00  0.00    +0.000 N 
ATOM      6  N   UNL     1       4.456   2.329  18.590  0.00  0.00    +0.000 NA
ATOM      7  C   UNL     1       4.436   3.627  18.257  0.00  0.00    +0.000 A 
ATOM      8  C   UNL     1       3.523   4.353  19.058  0.00  0.00    +0.000 A 
ATOM      9  C   UNL     1       3.034   5.665  19.064  0.00  0.00    +0.000 A 
ATOM     10  H   UNL     1       3.593   1.387  20.175  0.00  0.00    +0.000 HD
ENDROOT
BRANCH   1  13
ATOM     11  N   UNL     1       1.263   9.488  19.456  0.00  0.00    +0.000 N 
ATOM     12  C   UNL     1       1.724   8.303  18.975  0.00  0.00    +0.000 A 
ATOM     13  C   UNL     1       1.756   7.480  20.080  0.00  0.00    +0.000 A 
ATOM     14  N   UNL     1       1.349   8.184  21.180  0.00  0.00    +0.000 NA
ATOM     15  N   UNL     1       1.023   9.416  20.778  0.00  0.00    +0.000 NA
BRANCH  11  16
ATOM     16  C   UNL     1       0.904  10.662  18.680  0.00  0.00    +0.000 C 
BRANCH  16  20
ATOM     17  C   UNL     1      -3.348  11.085  18.054  0.00  0.00    +0.000 A 
ATOM     18  C   UNL     1      -2.689  11.917  18.956  0.00  0.00    +0.000 A 
ATOM     19  C   UNL     1      -1.315  11.771  19.165  0.00  0.00    +0.000 A 
ATOM     20  C   UNL     1      -0.584  10.784  18.479  0.00  0.00    +0.000 A 
ATOM     21  C   UNL     1      -1.264   9.957  17.572  0.00  0.00    +0.000 A 
ATOM     22  C   UNL     1      -2.639  10.106  17.363  0.00  0.00    +0.000 A 
ENDBRANCH  16  20
ENDBRANCH  11  16
ENDBRANCH   1  13
BRANCH   7  23
ATOM     23  C   UNL     1       5.299   4.218  17.181  0.00  0.00    +0.000 A 
ATOM     24  C   UNL     1       4.912   4.362  15.863  0.00  0.00    +0.000 A 
ATOM     25  C   UNL     1       5.960   4.896  15.058  0.00  0.00    +0.000 A 
ATOM     26  C   UNL     1       7.113   5.115  15.775  0.00  0.00    +0.000 A 
ATOM     27  S   UNL     1       6.901   4.771  17.431  0.00  0.00    +0.000 S 
ENDBRANCH   7  23
TORSDOF 4
ENDMDL
MODEL 3
REMARK VINA RESULT:      -8.2      1.772      2.360
REMARK  Name = 
REMARK  4 active torsions:
REMARK  status: ('A' for Active; 'I' for Inactive)
REMARK    1  A    between atoms: C_4  and  C_5
REMARK    2  A    between atoms: C_5  and  N_6
REMARK    3  A    between atoms: C_8  and  C_9
REMARK    4  A    between atoms: C_15  and  C_16
REMARK                            x       y       z     vdW  Elec       q    Type
REMARK                         _______ _______ _______ _____ _____    ______ ____
ROOT
ATOM      1  C   UNL     1       2.306   7.034  19.128  0.00  0.00    +0.000 A 
ATOM      2  C   UNL     1       1.844   6.452  20.313  0.00  0.00    +0.000 A 
ATOM      3  C   UNL     1       2.255   5.164  20.712  0.00  0.00    +0.000 A 
ATOM      4  C   UNL     1       3.152   4.490  19.872  0.00  0.00    +0.000 A 
ATOM      5  N   UNL     1       3.745   3.256  19.933  0.00  0.00    +0.000 N 
ATOM      6  N   UNL     1       4.521   2.957  18.869  0.00  0.00    +0.000 NA
ATOM      7  C   UNL     1       4.526   4.093  18.157  0.00  0.00    +0.000 A 
ATOM      8  C   UNL     1       3.635   5.048  18.700  0.00  0.00    +0.000 A 
ATOM      9  C   UNL     1       3.174   6.310  18.308  0.00  0.00    +0.000 A 
ATOM     10  H   UNL     1       3.653   2.562  20.667  0.00  0.00    +0.000 HD
ENDROOT
BRANCH   1  13
ATOM     11  N   UNL     1       1.109  10.369  18.730  0.00  0.00    +0.000 N 
ATOM     12  C   UNL     1       1.142   9.224  19.461  0.00  0.00    +0.000 A 
ATOM     13  C   UNL     1       1.943   8.377  18.727  0.00  0.00    +0.000 A 
ATOM     14  N   UNL     1       2.341   9.010  17.581  0.00  0.00    +0.000 NA
ATOM     15  N   UNL     1       1.840  10.249  17.606  0.00  0.00    +0.000 NA
BRANCH  11  16
ATOM     16  C   UNL     1       0.519  11.638  19.122  0.00  0.00    +0.000 C 
BRANCH  16  20
ATOM     17  C   UNL     1      -3.773  11.741  18.661  0.00  0.00    +0.000 A 
ATOM     18  C   UNL     1      -3.170  12.401  19.728  0.00  0.00    +0.000 A 
ATOM     19  C   UNL     1      -1.782  12.357  19.882  0.00  0.00    +0.000 A 
ATOM     20  C   UNL     1      -0.980  11.644  18.972  0.00  0.00    +0.000 A 
ATOM     21  C   UNL     1      -1.604  10.988  17.901  0.00  0.00    +0.000 A 
ATOM     22  C   UNL     1      -2.994  11.035  17.749  0.00  0.00    +0.000 A 
ENDBRANCH  16  20
ENDBRANCH  11  16
ENDBRANCH   1  13
BRANCH   7  23
ATOM     23  C   UNL     1       5.391   4.309  16.950  0.00  0.00    +0.000 A 
ATOM     24  C   UNL     1       4.966   4.143  15.646  0.00  0.00    +0.000 A 
ATOM     25  C   UNL     1       6.022   4.357  14.713  0.00  0.00    +0.000 A 
ATOM     26  C   UNL     1       7.217   4.650  15.329  0.00  0.00    +0.000 A 
ATOM     27  S   UNL     1       7.041   4.764  17.021  0.00  0.00    +0.000 S 
ENDBRANCH   7  23
TORSDOF 4
ENDMDL
MODEL 4
REMARK VINA RESULT:      -8.2      4.330      8.430
REMARK  Name = 
REMARK  4 active torsions:
REMARK  status: ('A' for Active; 'I' for Inactive)
REMARK    1  A    between atoms: C_4  and  C_5
REMARK    2  A    between atoms: C_5  and  N_6
REMARK    3  A    between atoms: C_8  and  C_9
REMARK    4  A    between atoms: C_15  and  C_16
REMARK                            x       y       z     vdW  Elec       q    Type
REMARK                         _______ _______ _______ _____ _____    ______ ____
ROOT
ATOM      1  C   UNL     1       4.911   4.426  17.989  0.00  0.00    +0.000 A 
ATOM      2  C   UNL     1       4.719   3.254  18.729  0.00  0.00    +0.000 A 
ATOM      3  C   UNL     1       3.765   3.183  19.764  0.00  0.00    +0.000 A 
ATOM      4  C   UNL     1       3.013   4.339  20.021  0.00  0.00    +0.000 A 
ATOM      5  N   UNL     1       2.031   4.633  20.931  0.00  0.00    +0.000 N 
ATOM      6  N   UNL     1       1.593   5.910  20.884  0.00  0.00    +0.000 NA
ATOM      7  C   UNL     1       2.230   6.420  19.821  0.00  0.00    +0.000 A 
ATOM      8  C   UNL     1       3.175   5.507  19.297  0.00  0.00    +0.000 A 
ATOM      9  C   UNL     1       4.160   5.561  18.304  0.00  0.00    +0.000 A 
ATOM     10  H   UNL     1       1.622   4.012  21.621  0.00  0.00    +0.000 HD
ENDROOT
BRANCH   1  13
ATOM     11  N   UNL     1       6.663   4.694  14.894  0.00  0.00    +0.000 N 
ATOM     12  C   UNL     1       5.480   4.608  15.559  0.00  0.00    +0.000 A 
ATOM     13  C   UNL     1       5.844   4.505  16.884  0.00  0.00    +0.000 A 
ATOM     14  N   UNL     1       7.208   4.504  16.980  0.00  0.00    +0.000 NA
ATOM     15  N   UNL     1       7.704   4.647  15.747  0.00  0.00    +0.000 NA
BRANCH  11  16
ATOM     16  C   UNL     1       6.850   4.963  13.479  0.00  0.00    +0.000 C 
BRANCH  16  20
ATOM     17  C   UNL     1       5.719   1.658  10.939  0.00  0.00    +0.000 A 
ATOM     18  C   UNL     1       4.740   2.483  11.489  0.00  0.00    +0.000 A 
ATOM     19  C   UNL     1       5.108   3.545  12.319  0.00  0.00    +0.000 A 
ATOM     20  C   UNL     1       6.462   3.790  12.617  0.00  0.00    +0.000 A 
ATOM     21  C   UNL     1       7.433   2.951  12.052  0.00  0.00    +0.000 A 
ATOM     22  C   UNL     1       7.063   1.890  11.219  0.00  0.00    +0.000 A 
ENDBRANCH  16  20
ENDBRANCH  11  16
ENDBRANCH   1  13
BRANCH   7  23
ATOM     23  C   UNL     1       1.946   7.784  19.263  0.00  0.00    +0.000 A 
ATOM     24  C   UNL     1       2.302   8.197  17.994  0.00  0.00    +0.000 A 
ATOM     25  C   UNL     1       1.958   9.561  17.764  0.00  0.00    +0.000 A 
ATOM     26  C   UNL     1       1.381  10.150  18.865  0.00  0.00    +0.000 A 
ATOM     27  S   UNL     1       1.164   9.034  20.136  0.00  0.00    +0.000 S 
ENDBRANCH   7  23
TORSDOF 4
ENDMDL
MODEL 5
REMARK VINA RESULT:      -7.9      1.536      1.859
REMARK  Name = 
REMARK  4 active torsions:
REMARK  status: ('A' for Active; 'I' for Inactive)
REMARK    1  A    between atoms: C_4  and  C_5
REMARK    2  A    between atoms: C_5  and  N_6
REMARK    3  A    between atoms: C_8  and  C_9
REMARK    4  A    between atoms: C_15  and  C_16
REMARK                            x       y       z     vdW  Elec       q    Type
REMARK                         _______ _______ _______ _____ _____    ______ ____
ROOT
ATOM      1  C   UNL     1       2.216   6.976  19.318  0.00  0.00    +0.000 A 
ATOM      2  C   UNL     1       1.572   6.406  20.423  0.00  0.00    +0.000 A 
ATOM      3  C   UNL     1       1.904   5.118  20.885  0.00  0.00    +0.000 A 
ATOM      4  C   UNL     1       2.912   4.429  20.194  0.00  0.00    +0.000 A 
ATOM      5  N   UNL     1       3.475   3.189  20.351  0.00  0.00    +0.000 N 
ATOM      6  N   UNL     1       4.400   2.876  19.418  0.00  0.00    +0.000 NA
ATOM      7  C   UNL     1       4.526   4.007  18.710  0.00  0.00    +0.000 A 
ATOM      8  C   UNL     1       3.572   4.974  19.107  0.00  0.00    +0.000 A 
ATOM      9  C   UNL     1       3.190   6.239  18.643  0.00  0.00    +0.000 A 
ATOM     10  H   UNL     1       3.265   2.501  21.065  0.00  0.00    +0.000 HD
ENDROOT
BRANCH   1  13
ATOM     11  N   UNL     1       1.233  10.363  18.784  0.00  0.00    +0.000 N 
ATOM     12  C   UNL     1       1.208   9.253  19.570  0.00  0.00    +0.000 A 
ATOM     13  C   UNL     1       1.932   8.320  18.860  0.00  0.00    +0.000 A 
ATOM     14  N   UNL     1       2.342   8.870  17.677  0.00  0.00    +0.000 NA
ATOM     15  N   UNL     1       1.926  10.140  17.652  0.00  0.00    +0.000 NA
BRANCH  11  16
ATOM     16  C   UNL     1       0.738  11.685  19.127  0.00  0.00    +0.000 C 
BRANCH  16  20
ATOM     17  C   UNL     1      -3.569  11.864  18.880  0.00  0.00    +0.000 A 
ATOM     18  C   UNL     1      -2.839  11.229  17.879  0.00  0.00    +0.000 A 
ATOM     19  C   UNL     1      -1.444  11.181  17.955  0.00  0.00    +0.000 A 
ATOM     20  C   UNL     1      -0.762  11.778  19.032  0.00  0.00    +0.000 A 
ATOM     21  C   UNL     1      -1.515  12.410  20.033  0.00  0.00    +0.000 A 
ATOM     22  C   UNL     1      -2.911  12.455  19.955  0.00  0.00    +0.000 A 
ENDBRANCH  16  20
ENDBRANCH  11  16
ENDBRANCH   1  13
BRANCH   7  23
ATOM     23  C   UNL     1       5.566   4.207  17.647  0.00  0.00    +0.000 A 
ATOM     24  C   UNL     1       6.861   4.622  17.892  0.00  0.00    +0.000 A 
ATOM     25  C   UNL     1       7.603   4.783  16.686  0.00  0.00    +0.000 A 
ATOM     26  C   UNL     1       6.850   4.514  15.566  0.00  0.00    +0.000 A 
ATOM     27  S   UNL     1       5.285   3.974  15.974  0.00  0.00    +0.000 S 
ENDBRANCH   7  23
TORSDOF 4
ENDMDL
MODEL 6
REMARK VINA RESULT:      -7.9      2.477      3.688
REMARK  Name = 
REMARK  4 active torsions:
REMARK  status: ('A' for Active; 'I' for Inactive)
REMARK    1  A    between atoms: C_4  and  C_5
REMARK    2  A    between atoms: C_5  and  N_6
REMARK    3  A    between atoms: C_8  and  C_9
REMARK    4  A    between atoms: C_15  and  C_16
REMARK                            x       y       z     vdW  Elec       q    Type
REMARK                         _______ _______ _______ _____ _____    ______ ____
ROOT
ATOM      1  C   UNL     1       2.272   7.051  19.181  0.00  0.00    +0.000 A 
ATOM      2  C   UNL     1       1.764   6.487  20.357  0.00  0.00    +0.000 A 
ATOM      3  C   UNL     1       2.149   5.200  20.783  0.00  0.00    +0.000 A 
ATOM      4  C   UNL     1       3.067   4.507  19.980  0.00  0.00    +0.000 A 
ATOM      5  N   UNL     1       3.644   3.268  20.074  0.00  0.00    +0.000 N 
ATOM      6  N   UNL     1       4.452   2.949  19.040  0.00  0.00    +0.000 NA
ATOM      7  C   UNL     1       4.492   4.077  18.316  0.00  0.00    +0.000 A 
ATOM      8  C   UNL     1       3.593   5.047  18.819  0.00  0.00    +0.000 A 
ATOM      9  C   UNL     1       3.159   6.309  18.398  0.00  0.00    +0.000 A 
ATOM     10  H   UNL     1       3.520   2.583  20.812  0.00  0.00    +0.000 HD
ENDROOT
BRANCH   1  13
ATOM     11  N   UNL     1       1.169  10.412  18.728  0.00  0.00    +0.000 N 
ATOM     12  C   UNL     1       1.196   9.289  19.494  0.00  0.00    +0.000 A 
ATOM     13  C   UNL     1       1.936   8.393  18.753  0.00  0.00    +0.000 A 
ATOM     14  N   UNL     1       2.305   8.977  17.572  0.00  0.00    +0.000 NA
ATOM     15  N   UNL     1       1.847  10.233  17.579  0.00  0.00    +0.000 NA
BRANCH  11  16
ATOM     16  C   UNL     1       0.639  11.711  19.105  0.00  0.00    +0.000 C 
BRANCH  16  20
ATOM     17  C   UNL     1       3.686  14.728  19.624  0.00  0.00    +0.000 A 
ATOM     18  C   UNL     1       3.216  14.422  18.349  0.00  0.00    +0.000 A 
ATOM     19  C   UNL     1       2.238  13.437  18.182  0.00  0.00    +0.000 A 
ATOM     20  C   UNL     1       1.724  12.741  19.291  0.00  0.00    +0.000 A 
ATOM     21  C   UNL     1       2.205  13.065  20.568  0.00  0.00    +0.000 A 
ATOM     22  C   UNL     1       3.183  14.052  20.732  0.00  0.00    +0.000 A 
ENDBRANCH  16  20
ENDBRANCH  11  16
ENDBRANCH   1  13
BRANCH   7  23
ATOM     23  C   UNL     1       5.399   4.270  17.136  0.00  0.00    +0.000 A 
ATOM     24  C   UNL     1       5.026   4.057  15.823  0.00  0.00    +0.000 A 
ATOM     25  C   UNL     1       6.113   4.261  14.924  0.00  0.00    +0.000 A 
ATOM     26  C   UNL     1       7.278   4.594  15.575  0.00  0.00    +0.000 A 
ATOM     27  S   UNL     1       7.037   4.757  17.255  0.00  0.00    +0.000 S 
ENDBRANCH   7  23
TORSDOF 4
ENDMDL
MODEL 7
REMARK VINA RESULT:      -7.9      3.344      8.453
REMARK  Name = 
REMARK  4 active torsions:
REMARK  status: ('A' for Active; 'I' for Inactive)
REMARK    1  A    between atoms: C_4  and  C_5
REMARK    2  A    between atoms: C_5  and  N_6
REMARK    3  A    between atoms: C_8  and  C_9
REMARK    4  A    between atoms: C_15  and  C_16
REMARK                            x       y       z     vdW  Elec       q    Type
REMARK                         _______ _______ _______ _____ _____    ______ ____
ROOT
ATOM      1  C   UNL     1       0.844   9.604  19.665  0.00  0.00    +0.000 A 
ATOM      2  C   UNL     1       0.887  10.146  20.954  0.00  0.00    +0.000 A 
ATOM      3  C   UNL     1      -0.090  11.056  21.404  0.00  0.00    +0.000 A 
ATOM      4  C   UNL     1      -1.111  11.396  20.505  0.00  0.00    +0.000 A 
ATOM      5  N   UNL     1      -2.194  12.232  20.590  0.00  0.00    +0.000 N 
ATOM      6  N   UNL     1      -2.919  12.322  19.454  0.00  0.00    +0.000 NA
ATOM      7  C   UNL     1      -2.351  11.413  18.648  0.00  0.00    +0.000 A 
ATOM      8  C   UNL     1      -1.183  10.865  19.229  0.00  0.00    +0.000 A 
ATOM      9  C   UNL     1      -0.174   9.997  18.795  0.00  0.00    +0.000 A 
ATOM     10  H   UNL     1      -2.489  12.780  21.390  0.00  0.00    +0.000 HD
ENDROOT
BRANCH   1  13
ATOM     11  N   UNL     1       3.070   6.877  19.091  0.00  0.00    +0.000 N 
ATOM     12  C   UNL     1       2.212   7.524  19.924  0.00  0.00    +0.000 A 
ATOM     13  C   UNL     1       1.803   8.623  19.200  0.00  0.00    +0.000 A 
ATOM     14  N   UNL     1       2.434   8.626  17.986  0.00  0.00    +0.000 NA
ATOM     15  N   UNL     1       3.195   7.529  17.920  0.00  0.00    +0.000 NA
BRANCH  11  16
ATOM     16  C   UNL     1       3.680   5.576  19.307  0.00  0.00    +0.000 C 
BRANCH  16  20
ATOM     17  C   UNL     1       0.684   2.494  19.723  0.00  0.00    +0.000 A 
ATOM     18  C   UNL     1       1.275   3.050  20.855  0.00  0.00    +0.000 A 
ATOM     19  C   UNL     1       2.252   4.040  20.717  0.00  0.00    +0.000 A 
ATOM     20  C   UNL     1       2.656   4.479  19.443  0.00  0.00    +0.000 A 
ATOM     21  C   UNL     1       2.048   3.911  18.315  0.00  0.00    +0.000 A 
ATOM     22  C   UNL     1       1.068   2.921  18.455  0.00  0.00    +0.000 A 
ENDBRANCH  16  20
ENDBRANCH  11  16
ENDBRANCH   1  13
BRANCH   7  23
ATOM     23  C   UNL     1      -2.913  11.028  17.311  0.00  0.00    +0.000 A 
ATOM     24  C   UNL     1      -2.245  10.262  16.376  0.00  0.00    +0.000 A 
ATOM     25  C   UNL     1      -3.001  10.111  15.177  0.00  0.00    +0.000 A 
ATOM     26  C   UNL     1      -4.200  10.784  15.224  0.00  0.00    +0.000 A 
ATOM     27  S   UNL     1      -4.456  11.511  16.744  0.00  0.00    +0.000 S 
ENDBRANCH   7  23
TORSDOF 4
ENDMDL
MODEL 8
REMARK VINA RESULT:      -7.8      2.800      8.407
REMARK  Name = 
REMARK  4 active torsions:
REMARK  status: ('A' for Active; 'I' for Inactive)
REMARK    1  A    between atoms: C_4  and  C_5
REMARK    2  A    between atoms: C_5  and  N_6
REMARK    3  A    between atoms: C_8  and  C_9
REMARK    4  A    between atoms: C_15  and  C_16
REMARK                            x       y       z     vdW  Elec       q    Type
REMARK                         _______ _______ _______ _____ _____    ______ ____
ROOT
ATOM      1  C   UNL     1       1.215   8.333  20.640  0.00  0.00    +0.000 A 
ATOM      2  C   UNL     1       1.442   8.790  21.943  0.00  0.00    +0.000 A 
ATOM      3  C   UNL     1       0.765   9.913  22.459  0.00  0.00    +0.000 A 
ATOM      4  C   UNL     1      -0.151  10.553  21.611  0.00  0.00    +0.000 A 
ATOM      5  N   UNL     1      -0.962  11.648  21.765  0.00  0.00    +0.000 N 
ATOM      6  N   UNL     1      -1.668  11.977  20.662  0.00  0.00    +0.000 NA
ATOM      7  C   UNL     1      -1.394  10.982  19.806  0.00  0.00    +0.000 A 
ATOM      8  C   UNL     1      -0.403  10.114  20.323  0.00  0.00    +0.000 A 
ATOM      9  C   UNL     1       0.317   9.023  19.823  0.00  0.00    +0.000 A 
ATOM     10  H   UNL     1      -1.072  12.223  22.593  0.00  0.00    +0.000 HD
ENDROOT
BRANCH   1  13
ATOM     11  N   UNL     1       3.029   5.827  18.865  0.00  0.00    +0.000 N 
ATOM     12  C   UNL     1       2.594   7.113  18.945  0.00  0.00    +0.000 A 
ATOM     13  C   UNL     1       1.856   7.148  20.109  0.00  0.00    +0.000 A 
ATOM     14  N   UNL     1       1.841   5.902  20.673  0.00  0.00    +0.000 NA
ATOM     15  N   UNL     1       2.590   5.100  19.910  0.00  0.00    +0.000 NA
BRANCH  11  16
ATOM     16  C   UNL     1       3.969   5.283  17.901  0.00  0.00    +0.000 C 
BRANCH  16  20
ATOM     17  C   UNL     1       8.008   6.710  18.449  0.00  0.00    +0.000 A 
ATOM     18  C   UNL     1       7.490   5.738  19.301  0.00  0.00    +0.000 A 
ATOM     19  C   UNL     1       6.179   5.286  19.129  0.00  0.00    +0.000 A 
ATOM     20  C   UNL     1       5.367   5.808  18.105  0.00  0.00    +0.000 A 
ATOM     21  C   UNL     1       5.907   6.783  17.254  0.00  0.00    +0.000 A 
ATOM     22  C   UNL     1       7.220   7.233  17.427  0.00  0.00    +0.000 A 
ENDBRANCH  16  20
ENDBRANCH  11  16
ENDBRANCH   1  13
BRANCH   7  23
ATOM     23  C   UNL     1      -2.079  10.818  18.482  0.00  0.00    +0.000 A 
ATOM     24  C   UNL     1      -1.542  10.139  17.405  0.00  0.00    +0.000 A 
ATOM     25  C   UNL     1      -2.392  10.201  16.262  0.00  0.00    +0.000 A 
ATOM     26  C   UNL     1      -3.528  10.943  16.492  0.00  0.00    +0.000 A 
ATOM     27  S   UNL     1      -3.616  11.477  18.109  0.00  0.00    +0.000 S 
ENDBRANCH   7  23
TORSDOF 4
ENDMDL
MODEL 9
REMARK VINA RESULT:      -7.7      2.892      8.507
REMARK  Name = 
REMARK  4 active torsions:
REMARK  status: ('A' for Active; 'I' for Inactive)
REMARK    1  A    between atoms: C_4  and  C_5
REMARK    2  A    between atoms: C_5  and  N_6
REMARK    3  A    between atoms: C_8  and  C_9
REMARK    4  A    between atoms: C_15  and  C_16
REMARK                            x       y       z     vdW  Elec       q    Type
REMARK                         _______ _______ _______ _____ _____    ______ ____
ROOT
ATOM      1  C   UNL     1       1.158   8.640  20.324  0.00  0.00    +0.000 A 
ATOM      2  C   UNL     1       1.369   9.174  21.600  0.00  0.00    +0.000 A 
ATOM      3  C   UNL     1       0.632  10.280  22.068  0.00  0.00    +0.000 A 
ATOM      4  C   UNL     1      -0.327  10.823  21.200  0.00  0.00    +0.000 A 
ATOM      5  N   UNL     1      -1.199  11.875  21.309  0.00  0.00    +0.000 N 
ATOM      6  N   UNL     1      -1.933  12.108  20.199  0.00  0.00    +0.000 NA
ATOM      7  C   UNL     1      -1.608  11.089  19.390  0.00  0.00    +0.000 A 
ATOM      8  C   UNL     1      -0.564  10.307  19.938  0.00  0.00    +0.000 A 
ATOM      9  C   UNL     1       0.215   9.236  19.484  0.00  0.00    +0.000 A 
ATOM     10  H   UNL     1      -1.336  12.484  22.109  0.00  0.00    +0.000 HD
ENDROOT
BRANCH   1  13
ATOM     11  N   UNL     1       3.065   6.147  18.630  0.00  0.00    +0.000 N 
ATOM     12  C   UNL     1       2.530   7.397  18.640  0.00  0.00    +0.000 A 
ATOM     13  C   UNL     1       1.863   7.470  19.843  0.00  0.00    +0.000 A 
ATOM     14  N   UNL     1       1.986   6.277  20.502  0.00  0.00    +0.000 NA
ATOM     15  N   UNL     1       2.752   5.476  19.755  0.00  0.00    +0.000 NA
BRANCH  11  16
ATOM     16  C   UNL     1       3.988   5.601  17.651  0.00  0.00    +0.000 C 
BRANCH  16  20
ATOM     17  C   UNL     1       8.064   6.709  18.550  0.00  0.00    +0.000 A 
ATOM     18  C   UNL     1       7.380   7.345  17.517  0.00  0.00    +0.000 A 
ATOM     19  C   UNL     1       6.065   6.977  17.220  0.00  0.00    +0.000 A 
ATOM     20  C   UNL     1       5.421   5.961  17.950  0.00  0.00    +0.000 A 
ATOM     21  C   UNL     1       6.124   5.335  18.990  0.00  0.00    +0.000 A 
ATOM     22  C   UNL     1       7.440   5.706  19.286  0.00  0.00    +0.000 A 
ENDBRANCH  16  20
ENDBRANCH  11  16
ENDBRANCH   1  13
BRANCH   7  23
ATOM     23  C   UNL     1      -2.294  10.821  18.083  0.00  0.00    +0.000 A 
ATOM     24  C   UNL     1      -1.757  10.058  17.064  0.00  0.00    +0.000 A 
ATOM     25  C   UNL     1      -2.607  10.029  15.920  0.00  0.00    +0.000 A 
ATOM     26  C   UNL     1      -3.742  10.788  16.090  0.00  0.00    +0.000 A 
ATOM     27  S   UNL     1      -3.830  11.449  17.659  0.00  0.00    +0.000 S 
ENDBRANCH   7  23
TORSDOF 4
ENDMDL
