MODEL 1
REMARK VINA RESULT:      -8.3      0.000      0.000
REMARK  Name = 
REMARK  7 active torsions:
REMARK  status: ('A' for Active; 'I' for Inactive)
REMARK    1  A    between atoms: C_2  and  C_3
REMARK    2  A    between atoms: N_14  and  C_15
REMARK    3  A    between atoms: C_18  and  O_19
REMARK    4  A    between atoms: O_19  and  C_20
REMARK    5  A    between atoms: C_20  and  C_21
REMARK    6  A    between atoms: C_21  and  C_22
REMARK    7  A    between atoms: C_22  and  N_23
REMARK                            x       y       z     vdW  Elec       q    Type
REMARK                         _______ _______ _______ _____ _____    ______ ____
ROOT
ATOM      1  O   UNL     1       4.099   2.978  17.798  0.00  0.00    +0.000 OA
ATOM      2  C   UNL     1       4.441   4.132  17.545  0.00  0.00    +0.000 C 
ATOM      3  N   UNL     1       3.958   5.224  18.256  0.00  0.00    +0.000 N 
ATOM      4  C   UNL     1       4.212   6.627  17.979  0.00  0.00    +0.000 C 
ATOM      5  C   UNL     1       2.915   7.404  18.021  0.00  0.00    +0.000 C 
ATOM      6  N   UNL     1       2.258   7.286  19.313  0.00  0.00    +0.000 N 
ATOM      7  C   UNL     1       2.256   6.056  19.996  0.00  0.00    +0.000 C 
ATOM      8  O   UNL     1       1.571   5.805  20.993  0.00  0.00    +0.000 OA
ATOM      9  C   UNL     1       3.213   4.965  19.483  0.00  0.00    +0.000 C 
ENDROOT
BRANCH   2  10
ATOM     10  C   UNL     1       5.357   4.325  16.396  0.00  0.00    +0.000 A 
ATOM     11  C   UNL     1       4.846   4.120  15.106  0.00  0.00    +0.000 A 
ATOM     12  C   UNL     1       5.669   4.327  13.992  0.00  0.00    +0.000 A 
ATOM     13  C   UNL     1       6.979   4.758  14.179  0.00  0.00    +0.000 A 
ATOM     14  F   UNL     1       7.754   4.994  13.112  0.00  0.00    +0.000 F 
ATOM     15  C   UNL     1       7.505   4.934  15.450  0.00  0.00    +0.000 A 
ATOM     16  C   UNL     1       6.702   4.667  16.552  0.00  0.00    +0.000 A 
ATOM     17  F   UNL     1       7.254   4.776  17.767  0.00  0.00    +0.000 F 
ENDBRANCH   2  10
BRANCH   6  18
ATOM     18  C   UNL     1       1.525   8.414  19.787  0.00  0.00    +0.000 A 
ATOM     19  C   UNL     1       1.300   8.577  21.151  0.00  0.00    +0.000 A 
ATOM     20  C   UNL     1       0.608   9.682  21.632  0.00  0.00    +0.000 A 
ATOM     21  C   UNL     1       0.128  10.656  20.759  0.00  0.00    +0.000 A 
ATOM     22  C   UNL     1       0.367  10.525  19.396  0.00  0.00    +0.000 A 
ATOM     23  C   UNL     1       1.063   9.414  18.912  0.00  0.00    +0.000 A 
BRANCH  21  24
ATOM     24  O   UNL     1      -0.587  11.762  21.135  0.00  0.00    +0.000 OA
BRANCH  24  25
ATOM     25  C   UNL     1      -1.131  11.676  22.454  0.00  0.00    +0.000 C 
BRANCH  25  26
ATOM     26  C   UNL     1      -1.100  13.046  23.098  0.00  0.00    +0.000 C 
BRANCH  26  27
ATOM     27  C   UNL     1      -2.273  13.909  22.610  0.00  0.00    +0.000 C 
BRANCH  27  28
ATOM     28  N   UNL     1      -3.621  13.325  22.801  0.00  0.00    +0.000 NA
ATOM     29  C   UNL     1      -4.150  13.536  24.149  0.00  0.00    +0.000 C 
ATOM     30  C   UNL     1      -5.152  12.449  24.558  0.00  0.00    +0.000 C 
ATOM     31  C   UNL     1      -6.569  12.650  24.040  0.00  0.00    +0.000 C 
ATOM     32  C   UNL     1      -6.677  12.691  22.523  0.00  0.00    +0.000 C 
ATOM     33  C   UNL     1      -5.999  13.918  21.931  0.00  0.00    +0.000 C 
ATOM     34  C   UNL     1      -4.492  13.777  21.703  0.00  0.00    +0.000 C 
ENDBRANCH  27  28
ENDBRANCH  26  27
ENDBRANCH  25  26
ENDBRANCH  24  25
ENDBRANCH  21  24
ENDBRANCH   6  18
TORSDOF 7
ENDMDL
MODEL 2
REMARK VINA RESULT:      -8.3      0.947      1.453
REMARK  Name = 
REMARK  7 active torsions:
REMARK  status: ('A' for Active; 'I' for Inactive)
REMARK    1  A    between atoms: C_2  and  C_3
REMARK    2  A    between atoms: N_14  and  C_15
REMARK    3  A    between atoms: C_18  and  O_19
REMARK    4  A    between atoms: O_19  and  C_20
REMARK    5  A    between atoms: C_20  and  C_21
REMARK    6  A    between atoms: C_21  and  C_22
REMARK    7  A    between atoms: C_22  and  N_23
REMARK                            x       y       z     vdW  Elec       q    Type
REMARK                         _______ _______ _______ _____ _____    ______ ____
ROOT
ATOM      1  O   UNL     1       4.242   2.831  17.531  0.00  0.00    +0.000 OA
ATOM      2  C   UNL     1       4.560   3.995  17.296  0.00  0.00    +0.000 C 
ATOM      3  N   UNL     1       4.083   5.064  18.046  0.00  0.00    +0.000 N 
ATOM      4  C   UNL     1       4.310   6.476  17.796  0.00  0.00    +0.000 C 
ATOM      5  C   UNL     1       3.003   7.232  17.895  0.00  0.00    +0.000 C 
ATOM      6  N   UNL     1       2.388   7.075  19.204  0.00  0.00    +0.000 N 
ATOM      7  C   UNL     1       2.424   5.829  19.857  0.00  0.00    +0.000 C 
ATOM      8  O   UNL     1       1.774   5.545  20.867  0.00  0.00    +0.000 OA
ATOM      9  C   UNL     1       3.380   4.765  19.289  0.00  0.00    +0.000 C 
ENDROOT
BRANCH   2  10
ATOM     10  C   UNL     1       5.438   4.228  16.124  0.00  0.00    +0.000 A 
ATOM     11  C   UNL     1       4.946   3.887  14.856  0.00  0.00    +0.000 A 
ATOM     12  C   UNL     1       5.730   4.125  13.720  0.00  0.00    +0.000 A 
ATOM     13  C   UNL     1       6.979   4.721  13.862  0.00  0.00    +0.000 A 
ATOM     14  F   UNL     1       7.712   4.984  12.773  0.00  0.00    +0.000 F 
ATOM     15  C   UNL     1       7.489   5.034  15.113  0.00  0.00    +0.000 A 
ATOM     16  C   UNL     1       6.732   4.738  16.241  0.00  0.00    +0.000 A 
ATOM     17  F   UNL     1       7.276   4.985  17.440  0.00  0.00    +0.000 F 
ENDBRANCH   2  10
BRANCH   6  18
ATOM     18  C   UNL     1       1.655   8.181  19.725  0.00  0.00    +0.000 A 
ATOM     19  C   UNL     1       1.245   9.208  18.879  0.00  0.00    +0.000 A 
ATOM     20  C   UNL     1       0.511  10.283  19.366  0.00  0.00    +0.000 A 
ATOM     21  C   UNL     1       0.163  10.354  20.714  0.00  0.00    +0.000 A 
ATOM     22  C   UNL     1       0.539   9.324  21.569  0.00  0.00    +0.000 A 
ATOM     23  C   UNL     1       1.277   8.243  21.079  0.00  0.00    +0.000 A 
BRANCH  21  24
ATOM     24  O   UNL     1      -0.532  11.384  21.289  0.00  0.00    +0.000 OA
BRANCH  24  25
ATOM     25  C   UNL     1      -0.771  11.208  22.687  0.00  0.00    +0.000 C 
BRANCH  25  26
ATOM     26  C   UNL     1      -1.919  12.100  23.114  0.00  0.00    +0.000 C 
BRANCH  26  27
ATOM     27  C   UNL     1      -2.507  12.853  21.912  0.00  0.00    +0.000 C 
BRANCH  27  28
ATOM     28  N   UNL     1      -3.904  12.508  21.561  0.00  0.00    +0.000 NA
ATOM     29  C   UNL     1      -4.883  13.429  22.138  0.00  0.00    +0.000 C 
ATOM     30  C   UNL     1      -6.250  12.767  22.353  0.00  0.00    +0.000 C 
ATOM     31  C   UNL     1      -7.136  12.702  21.117  0.00  0.00    +0.000 C 
ATOM     32  C   UNL     1      -6.533  11.922  19.959  0.00  0.00    +0.000 C 
ATOM     33  C   UNL     1      -5.309  12.613  19.375  0.00  0.00    +0.000 C 
ATOM     34  C   UNL     1      -3.994  12.323  20.103  0.00  0.00    +0.000 C 
ENDBRANCH  27  28
ENDBRANCH  26  27
ENDBRANCH  25  26
ENDBRANCH  24  25
ENDBRANCH  21  24
ENDBRANCH   6  18
TORSDOF 7
ENDMDL
MODEL 3
REMARK VINA RESULT:      -8.2      4.353     11.403
REMARK  Name = 
REMARK  7 active torsions:
REMARK  status: ('A' for Active; 'I' for Inactive)
REMARK    1  A    between atoms: C_2  and  C_3
REMARK    2  A    between atoms: N_14  and  C_15
REMARK    3  A    between atoms: C_18  and  O_19
REMARK    4  A    between atoms: O_19  and  C_20
REMARK    5  A    between atoms: C_20  and  C_21
REMARK    6  A    between atoms: C_21  and  C_22
REMARK    7  A    between atoms: C_22  and  N_23
REMARK                            x       y       z     vdW  Elec       q    Type
REMARK                         _______ _______ _______ _____ _____    ______ ____
ROOT
ATOM      1  O   UNL     1      -1.792  14.686  20.466  0.00  0.00    +0.000 OA
ATOM      2  C   UNL     1      -1.798  13.625  21.088  0.00  0.00    +0.000 C 
ATOM      3  N   UNL     1      -0.858  12.626  20.864  0.00  0.00    +0.000 N 
ATOM      4  C   UNL     1      -0.831  11.303  21.463  0.00  0.00    +0.000 C 
ATOM      5  C   UNL     1      -0.593  10.259  20.395  0.00  0.00    +0.000 C 
ATOM      6  N   UNL     1       0.659  10.486  19.689  0.00  0.00    +0.000 N 
ATOM      7  C   UNL     1       1.060  11.795  19.366  0.00  0.00    +0.000 C 
ATOM      8  O   UNL     1       1.995  12.077  18.610  0.00  0.00    +0.000 OA
ATOM      9  C   UNL     1       0.302  12.951  20.041  0.00  0.00    +0.000 C 
ENDROOT
BRANCH   2  10
ATOM     10  C   UNL     1      -2.900  13.421  22.058  0.00  0.00    +0.000 A 
ATOM     11  C   UNL     1      -4.185  13.176  21.552  0.00  0.00    +0.000 A 
ATOM     12  C   UNL     1      -5.246  12.941  22.435  0.00  0.00    +0.000 A 
ATOM     13  C   UNL     1      -5.007  12.932  23.806  0.00  0.00    +0.000 A 
ATOM     14  F   UNL     1      -6.013  12.670  24.649  0.00  0.00    +0.000 F 
ATOM     15  C   UNL     1      -3.747  13.205  24.319  0.00  0.00    +0.000 A 
ATOM     16  C   UNL     1      -2.712  13.497  23.439  0.00  0.00    +0.000 A 
ATOM     17  F   UNL     1      -1.524  13.827  23.962  0.00  0.00    +0.000 F 
ENDBRANCH   2  10
BRANCH   6  18
ATOM     18  C   UNL     1       1.381   9.341  19.242  0.00  0.00    +0.000 A 
ATOM     19  C   UNL     1       1.584   8.265  20.101  0.00  0.00    +0.000 A 
ATOM     20  C   UNL     1       2.267   7.131  19.675  0.00  0.00    +0.000 A 
ATOM     21  C   UNL     1       2.759   7.045  18.375  0.00  0.00    +0.000 A 
ATOM     22  C   UNL     1       2.542   8.098  17.494  0.00  0.00    +0.000 A 
ATOM     23  C   UNL     1       1.855   9.237  17.922  0.00  0.00    +0.000 A 
BRANCH  21  24
ATOM     24  O   UNL     1       3.465   5.984  17.874  0.00  0.00    +0.000 OA
BRANCH  24  25
ATOM     25  C   UNL     1       4.870   6.224  17.769  0.00  0.00    +0.000 C 
BRANCH  25  26
ATOM     26  C   UNL     1       5.598   5.389  18.801  0.00  0.00    +0.000 C 
BRANCH  26  27
ATOM     27  C   UNL     1       5.123   3.930  18.764  0.00  0.00    +0.000 C 
BRANCH  27  28
ATOM     28  N   UNL     1       3.697   3.712  19.096  0.00  0.00    +0.000 NA
ATOM     29  C   UNL     1       3.097   2.609  18.345  0.00  0.00    +0.000 C 
ATOM     30  C   UNL     1       1.583   2.781  18.167  0.00  0.00    +0.000 C 
ATOM     31  C   UNL     1       0.740   2.344  19.356  0.00  0.00    +0.000 C 
ATOM     32  C   UNL     1       1.041   3.098  20.643  0.00  0.00    +0.000 C 
ATOM     33  C   UNL     1       2.433   2.792  21.176  0.00  0.00    +0.000 C 
ATOM     34  C   UNL     1       3.559   3.628  20.560  0.00  0.00    +0.000 C 
ENDBRANCH  27  28
ENDBRANCH  26  27
ENDBRANCH  25  26
ENDBRANCH  24  25
ENDBRANCH  21  24
ENDBRANCH   6  18
TORSDOF 7
ENDMDL
MODEL 4
REMARK VINA RESULT:      -8.1      2.192      3.533
REMARK  Name = 
REMARK  7 active torsions:
REMARK  status: ('A' for Active; 'I' for Inactive)
REMARK    1  A    between atoms: C_2  and  C_3
REMARK    2  A    between atoms: N_14  and  C_15
REMARK    3  A    between atoms: C_18  and  O_19
REMARK    4  A    between atoms: O_19  and  C_20
REMARK    5  A    between atoms: C_20  and  C_21
REMARK    6  A    between atoms: C_21  and  C_22
REMARK    7  A    between atoms: C_22  and  N_23
REMARK                            x       y       z     vdW  Elec       q    Type
REMARK                         _______ _______ _______ _____ _____    ______ ____
ROOT
ATOM      1  O   UNL     1       1.620   5.145  20.653  0.00  0.00    +0.000 OA
ATOM      2  C   UNL     1       2.209   5.827  19.816  0.00  0.00    +0.000 C 
ATOM      3  N   UNL     1       2.089   7.211  19.766  0.00  0.00    +0.000 N 
ATOM      4  C   UNL     1       2.654   8.099  18.766  0.00  0.00    +0.000 C 
ATOM      5  C   UNL     1       1.601   9.080  18.297  0.00  0.00    +0.000 C 
ATOM      6  N   UNL     1       1.076   9.874  19.397  0.00  0.00    +0.000 N 
ATOM      7  C   UNL     1       0.842   9.279  20.650  0.00  0.00    +0.000 C 
ATOM      8  O   UNL     1       0.226   9.813  21.578  0.00  0.00    +0.000 OA
ATOM      9  C   UNL     1       1.438   7.881  20.887  0.00  0.00    +0.000 C 
ENDROOT
BRANCH   2  10
ATOM     10  C   UNL     1       3.016   5.102  18.807  0.00  0.00    +0.000 A 
ATOM     11  C   UNL     1       2.336   4.373  17.820  0.00  0.00    +0.000 A 
ATOM     12  C   UNL     1       3.063   3.705  16.826  0.00  0.00    +0.000 A 
ATOM     13  C   UNL     1       4.451   3.792  16.817  0.00  0.00    +0.000 A 
ATOM     14  F   UNL     1       5.144   3.185  15.845  0.00  0.00    +0.000 F 
ATOM     15  C   UNL     1       5.136   4.483  17.805  0.00  0.00    +0.000 A 
ATOM     16  C   UNL     1       4.412   5.092  18.823  0.00  0.00    +0.000 A 
ATOM     17  F   UNL     1       5.100   5.693  19.804  0.00  0.00    +0.000 F 
ENDBRANCH   2  10
BRANCH   6  18
ATOM     18  C   UNL     1       0.702  11.222  19.117  0.00  0.00    +0.000 A 
ATOM     19  C   UNL     1      -0.560  11.502  18.600  0.00  0.00    +0.000 A 
ATOM     20  C   UNL     1      -0.950  12.811  18.342  0.00  0.00    +0.000 A 
ATOM     21  C   UNL     1      -0.088  13.873  18.602  0.00  0.00    +0.000 A 
ATOM     22  C   UNL     1       1.165  13.616  19.145  0.00  0.00    +0.000 A 
ATOM     23  C   UNL     1       1.558  12.300  19.404  0.00  0.00    +0.000 A 
BRANCH  21  24
ATOM     24  O   UNL     1      -0.373  15.190  18.356  0.00  0.00    +0.000 OA
BRANCH  24  25
ATOM     25  C   UNL     1      -0.222  16.036  19.498  0.00  0.00    +0.000 C 
BRANCH  25  26
ATOM     26  C   UNL     1      -1.415  15.857  20.413  0.00  0.00    +0.000 C 
BRANCH  26  27
ATOM     27  C   UNL     1      -0.973  15.750  21.880  0.00  0.00    +0.000 C 
BRANCH  27  28
ATOM     28  N   UNL     1      -1.667  14.720  22.685  0.00  0.00    +0.000 NA
ATOM     29  C   UNL     1      -3.031  15.103  23.051  0.00  0.00    +0.000 C 
ATOM     30  C   UNL     1      -3.497  14.429  24.348  0.00  0.00    +0.000 C 
ATOM     31  C   UNL     1      -4.010  13.005  24.187  0.00  0.00    +0.000 C 
ATOM     32  C   UNL     1      -2.983  12.034  23.622  0.00  0.00    +0.000 C 
ATOM     33  C   UNL     1      -2.622  12.354  22.179  0.00  0.00    +0.000 C 
ATOM     34  C   UNL     1      -1.537  13.420  22.005  0.00  0.00    +0.000 C 
ENDBRANCH  27  28
ENDBRANCH  26  27
ENDBRANCH  25  26
ENDBRANCH  24  25
ENDBRANCH  21  24
ENDBRANCH   6  18
TORSDOF 7
ENDMDL
MODEL 5
REMARK VINA RESULT:      -8.0      4.417     11.614
REMARK  Name = 
REMARK  7 active torsions:
REMARK  status: ('A' for Active; 'I' for Inactive)
REMARK    1  A    between atoms: C_2  and  C_3
REMARK    2  A    between atoms: N_14  and  C_15
REMARK    3  A    between atoms: C_18  and  O_19
REMARK    4  A    between atoms: O_19  and  C_20
REMARK    5  A    between atoms: C_20  and  C_21
REMARK    6  A    between atoms: C_21  and  C_22
REMARK    7  A    between atoms: C_22  and  N_23
REMARK                            x       y       z     vdW  Elec       q    Type
REMARK                         _______ _______ _______ _____ _____    ______ ____
ROOT
ATOM      1  O   UNL     1      -1.830  15.031  21.551  0.00  0.00    +0.000 OA
ATOM      2  C   UNL     1      -2.058  13.853  21.816  0.00  0.00    +0.000 C 
ATOM      3  N   UNL     1      -1.173  12.832  21.491  0.00  0.00    +0.000 N 
ATOM      4  C   UNL     1      -1.386  11.405  21.663  0.00  0.00    +0.000 C 
ATOM      5  C   UNL     1      -0.996  10.671  20.399  0.00  0.00    +0.000 C 
ATOM      6  N   UNL     1       0.396  10.905  20.047  0.00  0.00    +0.000 N 
ATOM      7  C   UNL     1       0.961  12.183  20.211  0.00  0.00    +0.000 C 
ATOM      8  O   UNL     1       2.061  12.528  19.768  0.00  0.00    +0.000 OA
ATOM      9  C   UNL     1       0.164  13.204  21.041  0.00  0.00    +0.000 C 
ENDROOT
BRANCH   2  10
ATOM     10  C   UNL     1      -3.362  13.547  22.451  0.00  0.00    +0.000 A 
ATOM     11  C   UNL     1      -3.387  13.342  23.838  0.00  0.00    +0.000 A 
ATOM     12  C   UNL     1      -4.604  13.088  24.481  0.00  0.00    +0.000 A 
ATOM     13  C   UNL     1      -5.780  13.064  23.737  0.00  0.00    +0.000 A 
ATOM     14  F   UNL     1      -6.949  12.859  24.357  0.00  0.00    +0.000 F 
ATOM     15  C   UNL     1      -5.765  13.234  22.361  0.00  0.00    +0.000 A 
ATOM     16  C   UNL     1      -4.546  13.425  21.721  0.00  0.00    +0.000 A 
ATOM     17  F   UNL     1      -4.551  13.515  20.385  0.00  0.00    +0.000 F 
ENDBRANCH   2  10
BRANCH   6  18
ATOM     18  C   UNL     1       1.109   9.837  19.427  0.00  0.00    +0.000 A 
ATOM     19  C   UNL     1       1.645  10.003  18.153  0.00  0.00    +0.000 A 
ATOM     20  C   UNL     1       2.361   8.981  17.542  0.00  0.00    +0.000 A 
ATOM     21  C   UNL     1       2.563   7.766  18.195  0.00  0.00    +0.000 A 
ATOM     22  C   UNL     1       2.060   7.591  19.478  0.00  0.00    +0.000 A 
ATOM     23  C   UNL     1       1.340   8.619  20.093  0.00  0.00    +0.000 A 
BRANCH  21  24
ATOM     24  O   UNL     1       3.230   6.694  17.664  0.00  0.00    +0.000 OA
BRANCH  24  25
ATOM     25  C   UNL     1       4.650   6.769  17.806  0.00  0.00    +0.000 C 
BRANCH  25  26
ATOM     26  C   UNL     1       5.229   5.370  17.782  0.00  0.00    +0.000 C 
BRANCH  26  27
ATOM     27  C   UNL     1       5.221   4.747  19.185  0.00  0.00    +0.000 C 
BRANCH  27  28
ATOM     28  N   UNL     1       4.052   3.895  19.501  0.00  0.00    +0.000 NA
ATOM     29  C   UNL     1       3.072   4.564  20.356  0.00  0.00    +0.000 C 
ATOM     30  C   UNL     1       2.257   3.572  21.196  0.00  0.00    +0.000 C 
ATOM     31  C   UNL     1       1.087   2.922  20.471  0.00  0.00    +0.000 C 
ATOM     32  C   UNL     1       1.484   2.117  19.243  0.00  0.00    +0.000 C 
ATOM     33  C   UNL     1       2.031   2.999  18.130  0.00  0.00    +0.000 C 
ATOM     34  C   UNL     1       3.520   3.337  18.246  0.00  0.00    +0.000 C 
ENDBRANCH  27  28
ENDBRANCH  26  27
ENDBRANCH  25  26
ENDBRANCH  24  25
ENDBRANCH  21  24
ENDBRANCH   6  18
TORSDOF 7
ENDMDL
MODEL 6
REMARK VINA RESULT:      -8.0      3.065      4.274
REMARK  Name = 
REMARK  7 active torsions:
REMARK  status: ('A' for Active; 'I' for Inactive)
REMARK    1  A    between atoms: C_2  and  C_3
REMARK    2  A    between atoms: N_14  and  C_15
REMARK    3  A    between atoms: C_18  and  O_19
REMARK    4  A    between atoms: O_19  and  C_20
REMARK    5  A    between atoms: C_20  and  C_21
REMARK    6  A    between atoms: C_21  and  C_22
REMARK    7  A    between atoms: C_22  and  N_23
REMARK                            x       y       z     vdW  Elec       q    Type
REMARK                         _______ _______ _______ _____ _____    ______ ____
ROOT
ATOM      1  O   UNL     1       4.089   2.992  17.650  0.00  0.00    +0.000 OA
ATOM      2  C   UNL     1       4.454   4.138  17.394  0.00  0.00    +0.000 C 
ATOM      3  N   UNL     1       3.994   5.241  18.104  0.00  0.00    +0.000 N 
ATOM      4  C   UNL     1       4.276   6.638  17.824  0.00  0.00    +0.000 C 
ATOM      5  C   UNL     1       2.995   7.441  17.867  0.00  0.00    +0.000 C 
ATOM      6  N   UNL     1       2.339   7.339  19.162  0.00  0.00    +0.000 N 
ATOM      7  C   UNL     1       2.315   6.110  19.847  0.00  0.00    +0.000 C 
ATOM      8  O   UNL     1       1.628   5.875  20.846  0.00  0.00    +0.000 OA
ATOM      9  C   UNL     1       3.248   4.999  19.334  0.00  0.00    +0.000 C 
ENDROOT
BRANCH   2  10
ATOM     10  C   UNL     1       5.370   4.310  16.242  0.00  0.00    +0.000 A 
ATOM     11  C   UNL     1       4.858   4.084  14.956  0.00  0.00    +0.000 A 
ATOM     12  C   UNL     1       5.682   4.271  13.839  0.00  0.00    +0.000 A 
ATOM     13  C   UNL     1       6.992   4.702  14.018  0.00  0.00    +0.000 A 
ATOM     14  F   UNL     1       7.768   4.919  12.948  0.00  0.00    +0.000 F 
ATOM     15  C   UNL     1       7.518   4.899  15.286  0.00  0.00    +0.000 A 
ATOM     16  C   UNL     1       6.715   4.651  16.392  0.00  0.00    +0.000 A 
ATOM     17  F   UNL     1       7.268   4.780  17.606  0.00  0.00    +0.000 F 
ENDBRANCH   2  10
BRANCH   6  18
ATOM     18  C   UNL     1       1.631   8.483  19.635  0.00  0.00    +0.000 A 
ATOM     19  C   UNL     1       1.452   9.585  18.804  0.00  0.00    +0.000 A 
ATOM     20  C   UNL     1       0.746  10.700  19.241  0.00  0.00    +0.000 A 
ATOM     21  C   UNL     1       0.196  10.736  20.520  0.00  0.00    +0.000 A 
ATOM     22  C   UNL     1       0.341   9.634  21.355  0.00  0.00    +0.000 A 
ATOM     23  C   UNL     1       1.051   8.513  20.916  0.00  0.00    +0.000 A 
BRANCH  21  24
ATOM     24  O   UNL     1      -0.490  11.798  21.047  0.00  0.00    +0.000 OA
BRANCH  24  25
ATOM     25  C   UNL     1       0.215  13.038  20.966  0.00  0.00    +0.000 C 
BRANCH  25  26
ATOM     26  C   UNL     1      -0.509  13.963  20.010  0.00  0.00    +0.000 C 
BRANCH  26  27
ATOM     27  C   UNL     1      -0.427  15.421  20.487  0.00  0.00    +0.000 C 
BRANCH  27  28
ATOM     28  N   UNL     1       0.236  16.363  19.556  0.00  0.00    +0.000 NA
ATOM     29  C   UNL     1       1.229  15.716  18.699  0.00  0.00    +0.000 C 
ATOM     30  C   UNL     1       2.329  16.685  18.247  0.00  0.00    +0.000 C 
ATOM     31  C   UNL     1       1.967  17.562  17.057  0.00  0.00    +0.000 C 
ATOM     32  C   UNL     1       0.763  18.463  17.290  0.00  0.00    +0.000 C 
ATOM     33  C   UNL     1      -0.527  17.670  17.441  0.00  0.00    +0.000 C 
ATOM     34  C   UNL     1      -0.798  17.138  18.851  0.00  0.00    +0.000 C 
ENDBRANCH  27  28
ENDBRANCH  26  27
ENDBRANCH  25  26
ENDBRANCH  24  25
ENDBRANCH  21  24
ENDBRANCH   6  18
TORSDOF 7
ENDMDL
MODEL 7
REMARK VINA RESULT:      -8.0      0.916      1.354
REMARK  Name = 
REMARK  7 active torsions:
REMARK  status: ('A' for Active; 'I' for Inactive)
REMARK    1  A    between atoms: C_2  and  C_3
REMARK    2  A    between atoms: N_14  and  C_15
REMARK    3  A    between atoms: C_18  and  O_19
REMARK    4  A    between atoms: O_19  and  C_20
REMARK    5  A    between atoms: C_20  and  C_21
REMARK    6  A    between atoms: C_21  and  C_22
REMARK    7  A    between atoms: C_22  and  N_23
REMARK                            x       y       z     vdW  Elec       q    Type
REMARK                         _______ _______ _______ _____ _____    ______ ____
ROOT
ATOM      1  O   UNL     1       4.319   2.893  17.427  0.00  0.00    +0.000 OA
ATOM      2  C   UNL     1       4.642   4.058  17.201  0.00  0.00    +0.000 C 
ATOM      3  N   UNL     1       4.172   5.122  17.962  0.00  0.00    +0.000 N 
ATOM      4  C   UNL     1       4.404   6.535  17.724  0.00  0.00    +0.000 C 
ATOM      5  C   UNL     1       3.101   7.296  17.832  0.00  0.00    +0.000 C 
ATOM      6  N   UNL     1       2.487   7.130  19.140  0.00  0.00    +0.000 N 
ATOM      7  C   UNL     1       2.519   5.878  19.782  0.00  0.00    +0.000 C 
ATOM      8  O   UNL     1       1.870   5.588  20.791  0.00  0.00    +0.000 OA
ATOM      9  C   UNL     1       3.469   4.815  19.203  0.00  0.00    +0.000 C 
ENDROOT
BRANCH   2  10
ATOM     10  C   UNL     1       5.519   4.298  16.030  0.00  0.00    +0.000 A 
ATOM     11  C   UNL     1       4.966   4.135  14.751  0.00  0.00    +0.000 A 
ATOM     12  C   UNL     1       5.751   4.387  13.619  0.00  0.00    +0.000 A 
ATOM     13  C   UNL     1       7.064   4.819  13.777  0.00  0.00    +0.000 A 
ATOM     14  F   UNL     1       7.802   5.098  12.696  0.00  0.00    +0.000 F 
ATOM     15  C   UNL     1       7.630   4.954  15.036  0.00  0.00    +0.000 A 
ATOM     16  C   UNL     1       6.866   4.642  16.154  0.00  0.00    +0.000 A 
ATOM     17  F   UNL     1       7.458   4.712  17.354  0.00  0.00    +0.000 F 
ENDBRANCH   2  10
BRANCH   6  18
ATOM     18  C   UNL     1       1.761   8.235  19.674  0.00  0.00    +0.000 A 
ATOM     19  C   UNL     1       1.398   9.295  18.847  0.00  0.00    +0.000 A 
ATOM     20  C   UNL     1       0.671  10.370  19.345  0.00  0.00    +0.000 A 
ATOM     21  C   UNL     1       0.282  10.407  20.682  0.00  0.00    +0.000 A 
ATOM     22  C   UNL     1       0.610   9.345  21.516  0.00  0.00    +0.000 A 
ATOM     23  C   UNL     1       1.342   8.264  21.016  0.00  0.00    +0.000 A 
BRANCH  21  24
ATOM     24  O   UNL     1      -0.410  11.433  21.268  0.00  0.00    +0.000 OA
BRANCH  24  25
ATOM     25  C   UNL     1      -0.028  12.728  20.801  0.00  0.00    +0.000 C 
BRANCH  25  26
ATOM     26  C   UNL     1      -1.218  13.392  20.139  0.00  0.00    +0.000 C 
BRANCH  26  27
ATOM     27  C   UNL     1      -1.922  14.353  21.107  0.00  0.00    +0.000 C 
BRANCH  27  28
ATOM     28  N   UNL     1      -2.986  13.754  21.945  0.00  0.00    +0.000 NA
ATOM     29  C   UNL     1      -2.505  13.320  23.257  0.00  0.00    +0.000 C 
ATOM     30  C   UNL     1      -3.342  12.171  23.834  0.00  0.00    +0.000 C 
ATOM     31  C   UNL     1      -4.633  12.596  24.519  0.00  0.00    +0.000 C 
ATOM     32  C   UNL     1      -5.606  13.334  23.612  0.00  0.00    +0.000 C 
ATOM     33  C   UNL     1      -5.073  14.692  23.181  0.00  0.00    +0.000 C 
ATOM     34  C   UNL     1      -4.141  14.665  21.966  0.00  0.00    +0.000 C 
ENDBRANCH  27  28
ENDBRANCH  26  27
ENDBRANCH  25  26
ENDBRANCH  24  25
ENDBRANCH  21  24
ENDBRANCH   6  18
TORSDOF 7
ENDMDL
MODEL 8
REMARK VINA RESULT:      -8.0      4.374      6.630
REMARK  Name = 
REMARK  7 active torsions:
REMARK  status: ('A' for Active; 'I' for Inactive)
REMARK    1  A    between atoms: C_2  and  C_3
REMARK    2  A    between atoms: N_14  and  C_15
REMARK    3  A    between atoms: C_18  and  O_19
REMARK    4  A    between atoms: O_19  and  C_20
REMARK    5  A    between atoms: C_20  and  C_21
REMARK    6  A    between atoms: C_21  and  C_22
REMARK    7  A    between atoms: C_22  and  N_23
REMARK                            x       y       z     vdW  Elec       q    Type
REMARK                         _______ _______ _______ _____ _____    ______ ____
ROOT
ATOM      1  O   UNL     1       1.568   5.048  20.693  0.00  0.00    +0.000 OA
ATOM      2  C   UNL     1       2.160   5.738  19.864  0.00  0.00    +0.000 C 
ATOM      3  N   UNL     1       2.043   7.123  19.829  0.00  0.00    +0.000 N 
ATOM      4  C   UNL     1       2.610   8.021  18.839  0.00  0.00    +0.000 C 
ATOM      5  C   UNL     1       1.560   9.008  18.379  0.00  0.00    +0.000 C 
ATOM      6  N   UNL     1       1.035   9.792  19.486  0.00  0.00    +0.000 N 
ATOM      7  C   UNL     1       0.798   9.184  20.733  0.00  0.00    +0.000 C 
ATOM      8  O   UNL     1       0.182   9.709  21.666  0.00  0.00    +0.000 OA
ATOM      9  C   UNL     1       1.391   7.782  20.956  0.00  0.00    +0.000 C 
ENDROOT
BRANCH   2  10
ATOM     10  C   UNL     1       2.967   5.023  18.848  0.00  0.00    +0.000 A 
ATOM     11  C   UNL     1       4.362   5.018  19.001  0.00  0.00    +0.000 A 
ATOM     12  C   UNL     1       5.158   4.322  18.082  0.00  0.00    +0.000 A 
ATOM     13  C   UNL     1       4.553   3.626  17.041  0.00  0.00    +0.000 A 
ATOM     14  F   UNL     1       5.312   2.929  16.185  0.00  0.00    +0.000 F 
ATOM     15  C   UNL     1       3.178   3.650  16.862  0.00  0.00    +0.000 A 
ATOM     16  C   UNL     1       2.399   4.392  17.740  0.00  0.00    +0.000 A 
ATOM     17  F   UNL     1       1.082   4.457  17.504  0.00  0.00    +0.000 F 
ENDBRANCH   2  10
BRANCH   6  18
ATOM     18  C   UNL     1       0.663  11.143  19.221  0.00  0.00    +0.000 A 
ATOM     19  C   UNL     1      -0.539  11.421  18.576  0.00  0.00    +0.000 A 
ATOM     20  C   UNL     1      -0.927  12.733  18.328  0.00  0.00    +0.000 A 
ATOM     21  C   UNL     1      -0.124  13.799  18.727  0.00  0.00    +0.000 A 
ATOM     22  C   UNL     1       1.066  13.542  19.397  0.00  0.00    +0.000 A 
ATOM     23  C   UNL     1       1.457  12.224  19.646  0.00  0.00    +0.000 A 
BRANCH  21  24
ATOM     24  O   UNL     1      -0.410  15.120  18.503  0.00  0.00    +0.000 OA
BRANCH  24  25
ATOM     25  C   UNL     1       0.308  16.017  19.352  0.00  0.00    +0.000 C 
BRANCH  25  26
ATOM     26  C   UNL     1       1.363  16.738  18.539  0.00  0.00    +0.000 C 
BRANCH  26  27
ATOM     27  C   UNL     1       2.558  17.137  19.418  0.00  0.00    +0.000 C 
BRANCH  27  28
ATOM     28  N   UNL     1       3.791  16.340  19.223  0.00  0.00    +0.000 NA
ATOM     29  C   UNL     1       3.907  15.787  17.874  0.00  0.00    +0.000 C 
ATOM     30  C   UNL     1       4.745  14.503  17.841  0.00  0.00    +0.000 C 
ATOM     31  C   UNL     1       6.252  14.716  17.814  0.00  0.00    +0.000 C 
ATOM     32  C   UNL     1       6.795  15.472  19.017  0.00  0.00    +0.000 C 
ATOM     33  C   UNL     1       6.321  16.918  19.050  0.00  0.00    +0.000 C 
ATOM     34  C   UNL     1       4.943  17.132  19.683  0.00  0.00    +0.000 C 
ENDBRANCH  27  28
ENDBRANCH  26  27
ENDBRANCH  25  26
ENDBRANCH  24  25
ENDBRANCH  21  24
ENDBRANCH   6  18
TORSDOF 7
ENDMDL
MODEL 9
REMARK VINA RESULT:      -7.9      2.937      4.584
REMARK  Name = 
REMARK  7 active torsions:
REMARK  status: ('A' for Active; 'I' for Inactive)
REMARK    1  A    between atoms: C_2  and  C_3
REMARK    2  A    between atoms: N_14  and  C_15
REMARK    3  A    between atoms: C_18  and  O_19
REMARK    4  A    between atoms: O_19  and  C_20
REMARK    5  A    between atoms: C_20  and  C_21
REMARK    6  A    between atoms: C_21  and  C_22
REMARK    7  A    between atoms: C_22  and  N_23
REMARK                            x       y       z     vdW  Elec       q    Type
REMARK                         _______ _______ _______ _____ _____    ______ ____
ROOT
ATOM      1  O   UNL     1       4.338   3.354  18.266  0.00  0.00    +0.000 OA
ATOM      2  C   UNL     1       4.558   4.480  17.823  0.00  0.00    +0.000 C 
ATOM      3  N   UNL     1       3.979   5.620  18.368  0.00  0.00    +0.000 N 
ATOM      4  C   UNL     1       4.087   6.978  17.865  0.00  0.00    +0.000 C 
ATOM      5  C   UNL     1       2.719   7.623  17.827  0.00  0.00    +0.000 C 
ATOM      6  N   UNL     1       2.100   7.652  19.144  0.00  0.00    +0.000 N 
ATOM      7  C   UNL     1       2.234   6.553  20.012  0.00  0.00    +0.000 C 
ATOM      8  O   UNL     1       1.596   6.400  21.058  0.00  0.00    +0.000 OA
ATOM      9  C   UNL     1       3.286   5.491  19.645  0.00  0.00    +0.000 C 
ENDROOT
BRANCH   2  10
ATOM     10  C   UNL     1       5.429   4.573  16.628  0.00  0.00    +0.000 A 
ATOM     11  C   UNL     1       4.852   4.327  15.373  0.00  0.00    +0.000 A 
ATOM     12  C   UNL     1       5.633   4.441  14.216  0.00  0.00    +0.000 A 
ATOM     13  C   UNL     1       6.967   4.820  14.324  0.00  0.00    +0.000 A 
ATOM     14  F   UNL     1       7.703   4.967  13.215  0.00  0.00    +0.000 F 
ATOM     15  C   UNL     1       7.556   5.035  15.561  0.00  0.00    +0.000 A 
ATOM     16  C   UNL     1       6.792   4.860  16.708  0.00  0.00    +0.000 A 
ATOM     17  F   UNL     1       7.403   5.005  17.892  0.00  0.00    +0.000 F 
ENDBRANCH   2  10
BRANCH   6  18
ATOM     18  C   UNL     1       1.267   8.765  19.457  0.00  0.00    +0.000 A 
ATOM     19  C   UNL     1       1.091   9.154  20.783  0.00  0.00    +0.000 A 
ATOM     20  C   UNL     1       0.300  10.250  21.106  0.00  0.00    +0.000 A 
ATOM     21  C   UNL     1      -0.330  10.990  20.107  0.00  0.00    +0.000 A 
ATOM     22  C   UNL     1      -0.144  10.635  18.777  0.00  0.00    +0.000 A 
ATOM     23  C   UNL     1       0.651   9.532  18.452  0.00  0.00    +0.000 A 
BRANCH  21  24
ATOM     24  O   UNL     1      -1.148  12.066  20.329  0.00  0.00    +0.000 OA
BRANCH  24  25
ATOM     25  C   UNL     1      -1.125  13.035  19.279  0.00  0.00    +0.000 C 
BRANCH  25  26
ATOM     26  C   UNL     1      -0.732  14.381  19.850  0.00  0.00    +0.000 C 
BRANCH  26  27
ATOM     27  C   UNL     1       0.644  14.312  20.527  0.00  0.00    +0.000 C 
BRANCH  27  28
ATOM     28  N   UNL     1       1.767  14.896  19.759  0.00  0.00    +0.000 NA
ATOM     29  C   UNL     1       2.273  14.003  18.717  0.00  0.00    +0.000 C 
ATOM     30  C   UNL     1       3.748  14.267  18.388  0.00  0.00    +0.000 C 
ATOM     31  C   UNL     1       3.998  15.422  17.429  0.00  0.00    +0.000 C 
ATOM     32  C   UNL     1       3.491  16.767  17.929  0.00  0.00    +0.000 C 
ATOM     33  C   UNL     1       1.973  16.814  18.014  0.00  0.00    +0.000 C 
ATOM     34  C   UNL     1       1.379  16.241  19.304  0.00  0.00    +0.000 C 
ENDBRANCH  27  28
ENDBRANCH  26  27
ENDBRANCH  25  26
ENDBRANCH  24  25
ENDBRANCH  21  24
ENDBRANCH   6  18
TORSDOF 7
ENDMDL
