MODEL 1
REMARK VINA RESULT:      -9.0      0.000      0.000
REMARK  Name = 
REMARK  10 active torsions:
REMARK  status: ('A' for Active; 'I' for Inactive)
REMARK    1  A    between atoms: C_1  and  C_2
REMARK    2  A    between atoms: C_7  and  C_8
REMARK    3  A    between atoms: C_10  and  N_11
REMARK    4  A    between atoms: N_11  and  C_12
REMARK    5  A    between atoms: C_12  and  N_14
REMARK    6  A    between atoms: C_15  and  C_17
REMARK    7  A    between atoms: C_20  and  C_21
REMARK    8  A    between atoms: C_21  and  C_22
REMARK    9  A    between atoms: C_21  and  C_23
REMARK   10  A    between atoms: C_21  and  C_24
REMARK                            x       y       z     vdW  Elec       q    Type
REMARK                         _______ _______ _______ _____ _____    ______ ____
ROOT
ATOM      1  N   UNL     1       6.458   4.257  18.381  0.00  0.00    +0.000 N 
ATOM      2  H   UNL     1       7.117   3.595  18.797  0.00  0.00    +0.000 HD
ENDROOT
BRANCH   1   5
ATOM      3  C   UNL     1       3.093   5.366  19.596  0.00  0.00    +0.000 A 
ATOM      4  C   UNL     1       4.429   5.413  19.160  0.00  0.00    +0.000 A 
ATOM      5  C   UNL     1       5.177   4.258  18.960  0.00  0.00    +0.000 A 
ATOM      6  C   UNL     1       4.634   3.032  19.346  0.00  0.00    +0.000 A 
ATOM      7  C   UNL     1       3.325   2.964  19.830  0.00  0.00    +0.000 A 
ATOM      8  C   UNL     1       2.545   4.122  19.934  0.00  0.00    +0.000 A 
ATOM      9 CL   UNL     1       0.935   3.919  20.533  0.00  0.00    +0.000 Cl
BRANCH   3  16
ATOM     10  C   UNL     1      -0.228  11.817  20.650  0.00  0.00    +0.000 C 
ATOM     11  C   UNL     1       0.492  10.666  20.009  0.00  0.00    +0.000 A 
ATOM     12  C   UNL     1       0.841  10.705  18.645  0.00  0.00    +0.000 A 
ATOM     13  C   UNL     1       1.503   9.637  18.022  0.00  0.00    +0.000 A 
ATOM     14  C   UNL     1       1.773   8.546  18.833  0.00  0.00    +0.000 A 
ATOM     15  O   UNL     1       2.392   7.387  18.476  0.00  0.00    +0.000 OA
ATOM     16  C   UNL     1       2.383   6.639  19.624  0.00  0.00    +0.000 A 
ATOM     17  N   UNL     1       1.846   7.247  20.670  0.00  0.00    +0.000 NA
ATOM     18  C   UNL     1       1.449   8.459  20.174  0.00  0.00    +0.000 A 
ATOM     19  C   UNL     1       0.808   9.538  20.791  0.00  0.00    +0.000 A 
ENDBRANCH   3  16
ENDBRANCH   1   5
BRANCH   1  20
ATOM     20  C   UNL     1       6.939   4.872  17.241  0.00  0.00    +0.000 C 
ATOM     21  S   UNL     1       6.952   4.332  15.658  0.00  0.00    +0.000 S 
BRANCH  20  22
ATOM     22  N   UNL     1       7.574   6.080  17.461  0.00  0.00    +0.000 N 
ATOM     23  C   UNL     1       7.044   7.350  17.332  0.00  0.00    +0.000 C 
ATOM     24  O   UNL     1       5.950   7.586  16.815  0.00  0.00    +0.000 OA
ATOM     25  H   UNL     1       8.524   5.980  17.798  0.00  0.00    +0.000 HD
BRANCH  23  26
ATOM     26  C   UNL     1       7.860   8.468  17.847  0.00  0.00    +0.000 A 
ATOM     27  C   UNL     1       7.696   9.718  17.256  0.00  0.00    +0.000 A 
ATOM     28  C   UNL     1       8.398  10.818  17.744  0.00  0.00    +0.000 A 
ATOM     29  C   UNL     1       9.280  10.703  18.833  0.00  0.00    +0.000 A 
ATOM     30  C   UNL     1       9.403   9.435  19.437  0.00  0.00    +0.000 A 
ATOM     31  C   UNL     1       8.707   8.324  18.949  0.00  0.00    +0.000 A 
BRANCH  29  32
ATOM     32  C   UNL     1      10.097  11.901  19.352  0.00  0.00    +0.000 C 
ATOM     33  C   UNL     1       9.766  12.253  20.820  0.00  0.00    +0.000 C 
ATOM     34  C   UNL     1      11.608  11.604  19.264  0.00  0.00    +0.000 C 
ATOM     35  C   UNL     1       9.790  13.153  18.503  0.00  0.00    +0.000 C 
ENDBRANCH  29  32
ENDBRANCH  23  26
ENDBRANCH  20  22
ENDBRANCH   1  20
TORSDOF 6
ENDMDL
MODEL 2
REMARK VINA RESULT:      -8.7      0.734      1.620
REMARK  Name = 
REMARK  10 active torsions:
REMARK  status: ('A' for Active; 'I' for Inactive)
REMARK    1  A    between atoms: C_1  and  C_2
REMARK    2  A    between atoms: C_7  and  C_8
REMARK    3  A    between atoms: C_10  and  N_11
REMARK    4  A    between atoms: N_11  and  C_12
REMARK    5  A    between atoms: C_12  and  N_14
REMARK    6  A    between atoms: C_15  and  C_17
REMARK    7  A    between atoms: C_20  and  C_21
REMARK    8  A    between atoms: C_21  and  C_22
REMARK    9  A    between atoms: C_21  and  C_23
REMARK   10  A    between atoms: C_21  and  C_24
REMARK                            x       y       z     vdW  Elec       q    Type
REMARK                         _______ _______ _______ _____ _____    ______ ____
ROOT
ATOM      1  N   UNL     1       6.490   4.339  18.511  0.00  0.00    +0.000 N 
ATOM      2  H   UNL     1       7.132   3.681  18.959  0.00  0.00    +0.000 HD
ENDROOT
BRANCH   1   5
ATOM      3  C   UNL     1       3.125   5.502  19.675  0.00  0.00    +0.000 A 
ATOM      4  C   UNL     1       4.476   5.524  19.284  0.00  0.00    +0.000 A 
ATOM      5  C   UNL     1       5.191   4.356  19.048  0.00  0.00    +0.000 A 
ATOM      6  C   UNL     1       4.595   3.131  19.352  0.00  0.00    +0.000 A 
ATOM      7  C   UNL     1       3.269   3.085  19.790  0.00  0.00    +0.000 A 
ATOM      8  C   UNL     1       2.525   4.262  19.930  0.00  0.00    +0.000 A 
ATOM      9 CL   UNL     1       0.890   4.086  20.466  0.00  0.00    +0.000 Cl
BRANCH   3  16
ATOM     10  C   UNL     1      -0.342  11.936  19.098  0.00  0.00    +0.000 C 
ATOM     11  C   UNL     1       0.172  10.631  19.632  0.00  0.00    +0.000 A 
ATOM     12  C   UNL     1      -0.154  10.207  20.935  0.00  0.00    +0.000 A 
ATOM     13  C   UNL     1       0.323   8.997  21.459  0.00  0.00    +0.000 A 
ATOM     14  C   UNL     1       1.145   8.264  20.617  0.00  0.00    +0.000 A 
ATOM     15  O   UNL     1       1.743   7.070  20.884  0.00  0.00    +0.000 OA
ATOM     16  C   UNL     1       2.458   6.796  19.747  0.00  0.00    +0.000 A 
ATOM     17  N   UNL     1       2.325   7.696  18.786  0.00  0.00    +0.000 NA
ATOM     18  C   UNL     1       1.497   8.638  19.333  0.00  0.00    +0.000 A 
ATOM     19  C   UNL     1       0.997   9.835  18.812  0.00  0.00    +0.000 A 
ENDBRANCH   3  16
ENDBRANCH   1   5
BRANCH   1  20
ATOM     20  C   UNL     1       7.010   4.933  17.376  0.00  0.00    +0.000 C 
ATOM     21  S   UNL     1       7.121   4.343  15.815  0.00  0.00    +0.000 S 
BRANCH  20  22
ATOM     22  N   UNL     1       7.596   6.168  17.587  0.00  0.00    +0.000 N 
ATOM     23  C   UNL     1       7.068   7.413  17.305  0.00  0.00    +0.000 C 
ATOM     24  O   UNL     1       6.044   7.587  16.640  0.00  0.00    +0.000 OA
ATOM     25  H   UNL     1       8.498   6.112  18.046  0.00  0.00    +0.000 HD
BRANCH  23  26
ATOM     26  C   UNL     1       7.797   8.582  17.836  0.00  0.00    +0.000 A 
ATOM     27  C   UNL     1       8.659   8.378  18.910  0.00  0.00    +0.000 A 
ATOM     28  C   UNL     1       9.415   9.436  19.410  0.00  0.00    +0.000 A 
ATOM     29  C   UNL     1       9.333  10.724  18.852  0.00  0.00    +0.000 A 
ATOM     30  C   UNL     1       8.480  10.899  17.744  0.00  0.00    +0.000 A 
ATOM     31  C   UNL     1       7.713   9.843  17.240  0.00  0.00    +0.000 A 
BRANCH  29  32
ATOM     32  C   UNL     1      10.127  11.913  19.425  0.00  0.00    +0.000 C 
ATOM     33  C   UNL     1      11.628  11.856  19.058  0.00  0.00    +0.000 C 
ATOM     34  C   UNL     1       9.561  13.247  18.897  0.00  0.00    +0.000 C 
ATOM     35  C   UNL     1      10.035  11.913  20.965  0.00  0.00    +0.000 C 
ENDBRANCH  29  32
ENDBRANCH  23  26
ENDBRANCH  20  22
ENDBRANCH   1  20
TORSDOF 6
ENDMDL
MODEL 3
REMARK VINA RESULT:      -8.6      1.706      2.238
REMARK  Name = 
REMARK  10 active torsions:
REMARK  status: ('A' for Active; 'I' for Inactive)
REMARK    1  A    between atoms: C_1  and  C_2
REMARK    2  A    between atoms: C_7  and  C_8
REMARK    3  A    between atoms: C_10  and  N_11
REMARK    4  A    between atoms: N_11  and  C_12
REMARK    5  A    between atoms: C_12  and  N_14
REMARK    6  A    between atoms: C_15  and  C_17
REMARK    7  A    between atoms: C_20  and  C_21
REMARK    8  A    between atoms: C_21  and  C_22
REMARK    9  A    between atoms: C_21  and  C_23
REMARK   10  A    between atoms: C_21  and  C_24
REMARK                            x       y       z     vdW  Elec       q    Type
REMARK                         _______ _______ _______ _____ _____    ______ ____
ROOT
ATOM      1  N   UNL     1       7.006   6.052  17.856  0.00  0.00    +0.000 N 
ATOM      2  H   UNL     1       7.361   6.281  16.925  0.00  0.00    +0.000 HD
ENDROOT
BRANCH   1   5
ATOM      3  C   UNL     1       3.324   6.094  18.541  0.00  0.00    +0.000 A 
ATOM      4  C   UNL     1       4.697   6.383  18.640  0.00  0.00    +0.000 A 
ATOM      5  C   UNL     1       5.649   5.692  17.899  0.00  0.00    +0.000 A 
ATOM      6  C   UNL     1       5.243   4.585  17.152  0.00  0.00    +0.000 A 
ATOM      7  C   UNL     1       3.890   4.246  17.076  0.00  0.00    +0.000 A 
ATOM      8  C   UNL     1       2.927   5.009  17.748  0.00  0.00    +0.000 A 
ATOM      9 CL   UNL     1       1.281   4.507  17.574  0.00  0.00    +0.000 Cl
BRANCH   3  16
ATOM     10  C   UNL     1      -0.821  10.227  22.955  0.00  0.00    +0.000 C 
ATOM     11  C   UNL     1      -0.022   9.747  21.777  0.00  0.00    +0.000 A 
ATOM     12  C   UNL     1       0.113  10.546  20.625  0.00  0.00    +0.000 A 
ATOM     13  C   UNL     1       0.844  10.114  19.509  0.00  0.00    +0.000 A 
ATOM     14  C   UNL     1       1.404   8.850  19.614  0.00  0.00    +0.000 A 
ATOM     15  O   UNL     1       2.146   8.197  18.678  0.00  0.00    +0.000 OA
ATOM     16  C   UNL     1       2.427   6.989  19.261  0.00  0.00    +0.000 A 
ATOM     17  N   UNL     1       1.955   6.850  20.490  0.00  0.00    +0.000 NA
ATOM     18  C   UNL     1       1.297   8.027  20.721  0.00  0.00    +0.000 A 
ATOM     19  C   UNL     1       0.585   8.477  21.837  0.00  0.00    +0.000 A 
ENDBRANCH   3  16
ENDBRANCH   1   5
BRANCH   1  20
ATOM     20  C   UNL     1       7.908   6.316  18.871  0.00  0.00    +0.000 C 
ATOM     21  S   UNL     1       8.384   5.357  20.155  0.00  0.00    +0.000 S 
BRANCH  20  22
ATOM     22  N   UNL     1       8.432   7.595  18.859  0.00  0.00    +0.000 N 
ATOM     23  C   UNL     1       8.110   8.633  18.005  0.00  0.00    +0.000 C 
ATOM     24  O   UNL     1       7.419   8.497  16.993  0.00  0.00    +0.000 OA
ATOM     25  H   UNL     1       9.093   7.766  19.608  0.00  0.00    +0.000 HD
BRANCH  23  26
ATOM     26  C   UNL     1       8.644   9.966  18.346  0.00  0.00    +0.000 A 
ATOM     27  C   UNL     1       9.534  10.057  19.413  0.00  0.00    +0.000 A 
ATOM     28  C   UNL     1      10.113  11.283  19.737  0.00  0.00    +0.000 A 
ATOM     29  C   UNL     1       9.821  12.448  19.007  0.00  0.00    +0.000 A 
ATOM     30  C   UNL     1       8.945  12.325  17.910  0.00  0.00    +0.000 A 
ATOM     31  C   UNL     1       8.355  11.099  17.582  0.00  0.00    +0.000 A 
BRANCH  29  32
ATOM     32  C   UNL     1      10.417  13.818  19.383  0.00  0.00    +0.000 C 
ATOM     33  C   UNL     1      10.031  14.260  20.813  0.00  0.00    +0.000 C 
ATOM     34  C   UNL     1      11.957  13.780  19.299  0.00  0.00    +0.000 C 
ATOM     35  C   UNL     1       9.897  14.901  18.415  0.00  0.00    +0.000 C 
ENDBRANCH  29  32
ENDBRANCH  23  26
ENDBRANCH  20  22
ENDBRANCH   1  20
TORSDOF 6
ENDMDL
MODEL 4
REMARK VINA RESULT:      -8.5      4.303      9.238
REMARK  Name = 
REMARK  10 active torsions:
REMARK  status: ('A' for Active; 'I' for Inactive)
REMARK    1  A    between atoms: C_1  and  C_2
REMARK    2  A    between atoms: C_7  and  C_8
REMARK    3  A    between atoms: C_10  and  N_11
REMARK    4  A    between atoms: N_11  and  C_12
REMARK    5  A    between atoms: C_12  and  N_14
REMARK    6  A    between atoms: C_15  and  C_17
REMARK    7  A    between atoms: C_20  and  C_21
REMARK    8  A    between atoms: C_21  and  C_22
REMARK    9  A    between atoms: C_21  and  C_23
REMARK   10  A    between atoms: C_21  and  C_24
REMARK                            x       y       z     vdW  Elec       q    Type
REMARK                         _______ _______ _______ _____ _____    ______ ____
ROOT
ATOM      1  N   UNL     1       1.893   7.772  20.376  0.00  0.00    +0.000 N 
ATOM      2  H   UNL     1       2.178   8.082  21.308  0.00  0.00    +0.000 HD
ENDROOT
BRANCH   1   5
ATOM      3  C   UNL     1       3.416   4.790  18.696  0.00  0.00    +0.000 A 
ATOM      4  C   UNL     1       2.944   6.098  18.908  0.00  0.00    +0.000 A 
ATOM      5  C   UNL     1       2.246   6.449  20.059  0.00  0.00    +0.000 A 
ATOM      6  C   UNL     1       1.877   5.443  20.953  0.00  0.00    +0.000 A 
ATOM      7  C   UNL     1       2.292   4.126  20.739  0.00  0.00    +0.000 A 
ATOM      8  C   UNL     1       3.079   3.800  19.628  0.00  0.00    +0.000 A 
ATOM      9 CL   UNL     1       3.547   2.143  19.470  0.00  0.00    +0.000 Cl
BRANCH   3  16
ATOM     10  C   UNL     1       6.827   3.753  12.290  0.00  0.00    +0.000 C 
ATOM     11  C   UNL     1       6.517   4.196  13.691  0.00  0.00    +0.000 A 
ATOM     12  C   UNL     1       7.446   4.954  14.429  0.00  0.00    +0.000 A 
ATOM     13  C   UNL     1       7.183   5.369  15.742  0.00  0.00    +0.000 A 
ATOM     14  C   UNL     1       5.961   4.970  16.262  0.00  0.00    +0.000 A 
ATOM     15  O   UNL     1       5.470   5.230  17.505  0.00  0.00    +0.000 OA
ATOM     16  C   UNL     1       4.255   4.595  17.520  0.00  0.00    +0.000 A 
ATOM     17  N   UNL     1       3.935   3.997  16.384  0.00  0.00    +0.000 NA
ATOM     18  C   UNL     1       5.018   4.224  15.579  0.00  0.00    +0.000 A 
ATOM     19  C   UNL     1       5.281   3.835  14.262  0.00  0.00    +0.000 A 
ENDBRANCH   3  16
ENDBRANCH   1   5
BRANCH   1  20
ATOM     20  C   UNL     1       1.377   8.786  19.591  0.00  0.00    +0.000 C 
ATOM     21  S   UNL     1       1.861   9.326  18.084  0.00  0.00    +0.000 S 
BRANCH  20  22
ATOM     22  N   UNL     1       0.357   9.510  20.181  0.00  0.00    +0.000 N 
ATOM     23  C   UNL     1       0.371  10.144  21.408  0.00  0.00    +0.000 C 
ATOM     24  O   UNL     1       1.263   9.994  22.246  0.00  0.00    +0.000 OA
ATOM     25  H   UNL     1      -0.464   9.600  19.594  0.00  0.00    +0.000 HD
BRANCH  23  26
ATOM     26  C   UNL     1      -0.763  11.041  21.708  0.00  0.00    +0.000 A 
ATOM     27  C   UNL     1      -1.245  11.066  23.014  0.00  0.00    +0.000 A 
ATOM     28  C   UNL     1      -2.274  11.939  23.362  0.00  0.00    +0.000 A 
ATOM     29  C   UNL     1      -2.849  12.809  22.419  0.00  0.00    +0.000 A 
ATOM     30  C   UNL     1      -2.323  12.790  21.112  0.00  0.00    +0.000 A 
ATOM     31  C   UNL     1      -1.294  11.912  20.753  0.00  0.00    +0.000 A 
BRANCH  29  32
ATOM     32  C   UNL     1      -4.019  13.744  22.779  0.00  0.00    +0.000 C 
ATOM     33  C   UNL     1      -4.086  14.989  21.866  0.00  0.00    +0.000 C 
ATOM     34  C   UNL     1      -5.364  12.999  22.663  0.00  0.00    +0.000 C 
ATOM     35  C   UNL     1      -3.859  14.250  24.229  0.00  0.00    +0.000 C 
ENDBRANCH  29  32
ENDBRANCH  23  26
ENDBRANCH  20  22
ENDBRANCH   1  20
TORSDOF 6
ENDMDL
MODEL 5
REMARK VINA RESULT:      -8.4      4.323      8.972
REMARK  Name = 
REMARK  10 active torsions:
REMARK  status: ('A' for Active; 'I' for Inactive)
REMARK    1  A    between atoms: C_1  and  C_2
REMARK    2  A    between atoms: C_7  and  C_8
REMARK    3  A    between atoms: C_10  and  N_11
REMARK    4  A    between atoms: N_11  and  C_12
REMARK    5  A    between atoms: C_12  and  N_14
REMARK    6  A    between atoms: C_15  and  C_17
REMARK    7  A    between atoms: C_20  and  C_21
REMARK    8  A    between atoms: C_21  and  C_22
REMARK    9  A    between atoms: C_21  and  C_23
REMARK   10  A    between atoms: C_21  and  C_24
REMARK                            x       y       z     vdW  Elec       q    Type
REMARK                         _______ _______ _______ _____ _____    ______ ____
ROOT
ATOM      1  N   UNL     1       1.915   7.631  20.424  0.00  0.00    +0.000 N 
ATOM      2  H   UNL     1       2.183   7.892  21.376  0.00  0.00    +0.000 HD
ENDROOT
BRANCH   1   5
ATOM      3  C   UNL     1       3.393   4.683  18.647  0.00  0.00    +0.000 A 
ATOM      4  C   UNL     1       2.947   5.992  18.905  0.00  0.00    +0.000 A 
ATOM      5  C   UNL     1       2.241   6.313  20.059  0.00  0.00    +0.000 A 
ATOM      6  C   UNL     1       1.836   5.282  20.907  0.00  0.00    +0.000 A 
ATOM      7  C   UNL     1       2.224   3.965  20.646  0.00  0.00    +0.000 A 
ATOM      8  C   UNL     1       3.019   3.665  19.533  0.00  0.00    +0.000 A 
ATOM      9 CL   UNL     1       3.451   2.005  19.315  0.00  0.00    +0.000 Cl
BRANCH   3  16
ATOM     10  C   UNL     1       6.871   3.797  12.254  0.00  0.00    +0.000 C 
ATOM     11  C   UNL     1       6.546   4.207  13.662  0.00  0.00    +0.000 A 
ATOM     12  C   UNL     1       7.469   4.945  14.428  0.00  0.00    +0.000 A 
ATOM     13  C   UNL     1       7.192   5.329  15.748  0.00  0.00    +0.000 A 
ATOM     14  C   UNL     1       5.964   4.918  16.245  0.00  0.00    +0.000 A 
ATOM     15  O   UNL     1       5.460   5.149  17.488  0.00  0.00    +0.000 OA
ATOM     16  C   UNL     1       4.244   4.516  17.476  0.00  0.00    +0.000 A 
ATOM     17  N   UNL     1       3.935   3.945  16.322  0.00  0.00    +0.000 NA
ATOM     18  C   UNL     1       5.027   4.191  15.535  0.00  0.00    +0.000 A 
ATOM     19  C   UNL     1       5.304   3.833  14.211  0.00  0.00    +0.000 A 
ENDBRANCH   3  16
ENDBRANCH   1   5
BRANCH   1  20
ATOM     20  C   UNL     1       1.446   8.691  19.671  0.00  0.00    +0.000 C 
ATOM     21  S   UNL     1       1.857   9.169  18.123  0.00  0.00    +0.000 S 
BRANCH  20  22
ATOM     22  N   UNL     1       0.562   9.523  20.334  0.00  0.00    +0.000 N 
ATOM     23  C   UNL     1       0.670  10.020  21.619  0.00  0.00    +0.000 C 
ATOM     24  O   UNL     1       1.509   9.630  22.435  0.00  0.00    +0.000 OA
ATOM     25  H   UNL     1      -0.221   9.816  19.762  0.00  0.00    +0.000 HD
BRANCH  23  26
ATOM     26  C   UNL     1      -0.291  11.070  22.010  0.00  0.00    +0.000 A 
ATOM     27  C   UNL     1      -1.200  10.774  23.023  0.00  0.00    +0.000 A 
ATOM     28  C   UNL     1      -2.088  11.751  23.471  0.00  0.00    +0.000 A 
ATOM     29  C   UNL     1      -2.093  13.046  22.923  0.00  0.00    +0.000 A 
ATOM     30  C   UNL     1      -1.141  13.331  21.923  0.00  0.00    +0.000 A 
ATOM     31  C   UNL     1      -0.250  12.355  21.464  0.00  0.00    +0.000 A 
BRANCH  29  32
ATOM     32  C   UNL     1      -3.100  14.119  23.375  0.00  0.00    +0.000 C 
ATOM     33  C   UNL     1      -4.240  13.536  24.241  0.00  0.00    +0.000 C 
ATOM     34  C   UNL     1      -2.391  15.213  24.200  0.00  0.00    +0.000 C 
ATOM     35  C   UNL     1      -3.755  14.778  22.142  0.00  0.00    +0.000 C 
ENDBRANCH  29  32
ENDBRANCH  23  26
ENDBRANCH  20  22
ENDBRANCH   1  20
TORSDOF 6
ENDMDL
MODEL 6
REMARK VINA RESULT:      -8.4      1.760      2.431
REMARK  Name = 
REMARK  10 active torsions:
REMARK  status: ('A' for Active; 'I' for Inactive)
REMARK    1  A    between atoms: C_1  and  C_2
REMARK    2  A    between atoms: C_7  and  C_8
REMARK    3  A    between atoms: C_10  and  N_11
REMARK    4  A    between atoms: N_11  and  C_12
REMARK    5  A    between atoms: C_12  and  N_14
REMARK    6  A    between atoms: C_15  and  C_17
REMARK    7  A    between atoms: C_20  and  C_21
REMARK    8  A    between atoms: C_21  and  C_22
REMARK    9  A    between atoms: C_21  and  C_23
REMARK   10  A    between atoms: C_21  and  C_24
REMARK                            x       y       z     vdW  Elec       q    Type
REMARK                         _______ _______ _______ _____ _____    ______ ____
ROOT
ATOM      1  N   UNL     1       7.087   5.829  17.918  0.00  0.00    +0.000 N 
ATOM      2  H   UNL     1       7.497   5.926  16.987  0.00  0.00    +0.000 HD
ENDROOT
BRANCH   1   5
ATOM      3  C   UNL     1       3.387   6.281  18.286  0.00  0.00    +0.000 A 
ATOM      4  C   UNL     1       4.771   6.489  18.427  0.00  0.00    +0.000 A 
ATOM      5  C   UNL     1       5.703   5.583  17.932  0.00  0.00    +0.000 A 
ATOM      6  C   UNL     1       5.251   4.368  17.417  0.00  0.00    +0.000 A 
ATOM      7  C   UNL     1       3.880   4.117  17.312  0.00  0.00    +0.000 A 
ATOM      8  C   UNL     1       2.947   5.077  17.722  0.00  0.00    +0.000 A 
ATOM      9 CL   UNL     1       1.278   4.665  17.533  0.00  0.00    +0.000 Cl
BRANCH   3  16
ATOM     10  C   UNL     1      -1.307  11.760  19.593  0.00  0.00    +0.000 C 
ATOM     11  C   UNL     1      -0.405  10.573  19.777  0.00  0.00    +0.000 A 
ATOM     12  C   UNL     1      -0.232   9.991  21.047  0.00  0.00    +0.000 A 
ATOM     13  C   UNL     1       0.614   8.889  21.245  0.00  0.00    +0.000 A 
ATOM     14  C   UNL     1       1.273   8.431  20.115  0.00  0.00    +0.000 A 
ATOM     15  O   UNL     1       2.149   7.392  20.037  0.00  0.00    +0.000 OA
ATOM     16  C   UNL     1       2.527   7.376  18.720  0.00  0.00    +0.000 A 
ATOM     17  N   UNL     1       1.934   8.289  17.967  0.00  0.00    +0.000 NA
ATOM     18  C   UNL     1       1.138   8.970  18.849  0.00  0.00    +0.000 A 
ATOM     19  C   UNL     1       0.275  10.054  18.658  0.00  0.00    +0.000 A 
ENDBRANCH   3  16
ENDBRANCH   1   5
BRANCH   1  20
ATOM     20  C   UNL     1       7.966   6.129  18.942  0.00  0.00    +0.000 C 
ATOM     21  S   UNL     1       8.445   5.201  20.248  0.00  0.00    +0.000 S 
BRANCH  20  22
ATOM     22  N   UNL     1       8.459   7.421  18.919  0.00  0.00    +0.000 N 
ATOM     23  C   UNL     1       8.133   8.435  18.039  0.00  0.00    +0.000 C 
ATOM     24  O   UNL     1       7.469   8.264  17.014  0.00  0.00    +0.000 OA
ATOM     25  H   UNL     1       9.098   7.621  19.680  0.00  0.00    +0.000 HD
BRANCH  23  26
ATOM     26  C   UNL     1       8.626   9.787  18.368  0.00  0.00    +0.000 A 
ATOM     27  C   UNL     1       9.436   9.929  19.491  0.00  0.00    +0.000 A 
ATOM     28  C   UNL     1       9.977  11.173  19.810  0.00  0.00    +0.000 A 
ATOM     29  C   UNL     1       9.725  12.307  19.019  0.00  0.00    +0.000 A 
ATOM     30  C   UNL     1       8.930  12.133  17.867  0.00  0.00    +0.000 A 
ATOM     31  C   UNL     1       8.379  10.888  17.544  0.00  0.00    +0.000 A 
BRANCH  29  32
ATOM     32  C   UNL     1      10.277  13.697  19.386  0.00  0.00    +0.000 C 
ATOM     33  C   UNL     1       9.782  14.805  18.428  0.00  0.00    +0.000 C 
ATOM     34  C   UNL     1       9.856  14.086  20.818  0.00  0.00    +0.000 C 
ATOM     35  C   UNL     1      11.819  13.686  19.312  0.00  0.00    +0.000 C 
ENDBRANCH  29  32
ENDBRANCH  23  26
ENDBRANCH  20  22
ENDBRANCH   1  20
TORSDOF 6
ENDMDL
MODEL 7
REMARK VINA RESULT:      -8.4      1.173      1.798
REMARK  Name = 
REMARK  10 active torsions:
REMARK  status: ('A' for Active; 'I' for Inactive)
REMARK    1  A    between atoms: C_1  and  C_2
REMARK    2  A    between atoms: C_7  and  C_8
REMARK    3  A    between atoms: C_10  and  N_11
REMARK    4  A    between atoms: N_11  and  C_12
REMARK    5  A    between atoms: C_12  and  N_14
REMARK    6  A    between atoms: C_15  and  C_17
REMARK    7  A    between atoms: C_20  and  C_21
REMARK    8  A    between atoms: C_21  and  C_22
REMARK    9  A    between atoms: C_21  and  C_23
REMARK   10  A    between atoms: C_21  and  C_24
REMARK                            x       y       z     vdW  Elec       q    Type
REMARK                         _______ _______ _______ _____ _____    ______ ____
ROOT
ATOM      1  N   UNL     1       6.184   4.627  17.717  0.00  0.00    +0.000 N 
ATOM      2  H   UNL     1       6.819   3.851  17.919  0.00  0.00    +0.000 HD
ENDROOT
BRANCH   1   5
ATOM      3  C   UNL     1       2.992   5.646  19.390  0.00  0.00    +0.000 A 
ATOM      4  C   UNL     1       4.289   5.714  18.850  0.00  0.00    +0.000 A 
ATOM      5  C   UNL     1       4.957   4.580  18.400  0.00  0.00    +0.000 A 
ATOM      6  C   UNL     1       4.386   3.329  18.630  0.00  0.00    +0.000 A 
ATOM      7  C   UNL     1       3.119   3.231  19.212  0.00  0.00    +0.000 A 
ATOM      8  C   UNL     1       2.411   4.384  19.571  0.00  0.00    +0.000 A 
ATOM      9 CL   UNL     1       0.847   4.146  20.270  0.00  0.00    +0.000 Cl
BRANCH   3  16
ATOM     10  C   UNL     1      -0.406  12.117  19.951  0.00  0.00    +0.000 C 
ATOM     11  C   UNL     1       0.128  10.750  20.265  0.00  0.00    +0.000 A 
ATOM     12  C   UNL     1      -0.099  10.160  21.524  0.00  0.00    +0.000 A 
ATOM     13  C   UNL     1       0.401   8.889  21.843  0.00  0.00    +0.000 A 
ATOM     14  C   UNL     1       1.140   8.268  20.847  0.00  0.00    +0.000 A 
ATOM     15  O   UNL     1       1.738   7.047  20.905  0.00  0.00    +0.000 OA
ATOM     16  C   UNL     1       2.353   6.922  19.687  0.00  0.00    +0.000 A 
ATOM     17  N   UNL     1       2.158   7.942  18.866  0.00  0.00    +0.000 NA
ATOM     18  C   UNL     1       1.392   8.807  19.599  0.00  0.00    +0.000 A 
ATOM     19  C   UNL     1       0.871  10.066  19.283  0.00  0.00    +0.000 A 
ENDBRANCH   3  16
ENDBRANCH   1   5
BRANCH   1  20
ATOM     20  C   UNL     1       6.623   5.446  16.692  0.00  0.00    +0.000 C 
ATOM     21  S   UNL     1       6.904   5.088  15.083  0.00  0.00    +0.000 S 
BRANCH  20  22
ATOM     22  N   UNL     1       6.949   6.732  17.081  0.00  0.00    +0.000 N 
ATOM     23  C   UNL     1       7.730   7.118  18.153  0.00  0.00    +0.000 C 
ATOM     24  O   UNL     1       8.105   6.348  19.040  0.00  0.00    +0.000 OA
ATOM     25  H   UNL     1       6.593   7.444  16.454  0.00  0.00    +0.000 HD
BRANCH  23  26
ATOM     26  C   UNL     1       8.115   8.542  18.218  0.00  0.00    +0.000 A 
ATOM     27  C   UNL     1       9.081   8.912  19.150  0.00  0.00    +0.000 A 
ATOM     28  C   UNL     1       9.524  10.232  19.210  0.00  0.00    +0.000 A 
ATOM     29  C   UNL     1       9.016  11.217  18.344  0.00  0.00    +0.000 A 
ATOM     30  C   UNL     1       8.064  10.812  17.387  0.00  0.00    +0.000 A 
ATOM     31  C   UNL     1       7.611   9.490  17.324  0.00  0.00    +0.000 A 
BRANCH  29  32
ATOM     32  C   UNL     1       9.461  12.689  18.432  0.00  0.00    +0.000 C 
ATOM     33  C   UNL     1       8.323  13.675  18.086  0.00  0.00    +0.000 C 
ATOM     34  C   UNL     1       9.958  13.020  19.854  0.00  0.00    +0.000 C 
ATOM     35  C   UNL     1      10.610  12.950  17.435  0.00  0.00    +0.000 C 
ENDBRANCH  29  32
ENDBRANCH  23  26
ENDBRANCH  20  22
ENDBRANCH   1  20
TORSDOF 6
ENDMDL
MODEL 8
REMARK VINA RESULT:      -8.3      1.750      2.210
REMARK  Name = 
REMARK  10 active torsions:
REMARK  status: ('A' for Active; 'I' for Inactive)
REMARK    1  A    between atoms: C_1  and  C_2
REMARK    2  A    between atoms: C_7  and  C_8
REMARK    3  A    between atoms: C_10  and  N_11
REMARK    4  A    between atoms: N_11  and  C_12
REMARK    5  A    between atoms: C_12  and  N_14
REMARK    6  A    between atoms: C_15  and  C_17
REMARK    7  A    between atoms: C_20  and  C_21
REMARK    8  A    between atoms: C_21  and  C_22
REMARK    9  A    between atoms: C_21  and  C_23
REMARK   10  A    between atoms: C_21  and  C_24
REMARK                            x       y       z     vdW  Elec       q    Type
REMARK                         _______ _______ _______ _____ _____    ______ ____
ROOT
ATOM      1  N   UNL     1       7.103   5.776  17.934  0.00  0.00    +0.000 N 
ATOM      2  H   UNL     1       7.519   5.848  17.003  0.00  0.00    +0.000 HD
ENDROOT
BRANCH   1   5
ATOM      3  C   UNL     1       3.406   6.259  18.291  0.00  0.00    +0.000 A 
ATOM      4  C   UNL     1       4.791   6.456  18.435  0.00  0.00    +0.000 A 
ATOM      5  C   UNL     1       5.717   5.542  17.945  0.00  0.00    +0.000 A 
ATOM      6  C   UNL     1       5.256   4.329  17.431  0.00  0.00    +0.000 A 
ATOM      7  C   UNL     1       3.884   4.088  17.322  0.00  0.00    +0.000 A 
ATOM      8  C   UNL     1       2.958   5.057  17.728  0.00  0.00    +0.000 A 
ATOM      9 CL   UNL     1       1.286   4.658  17.535  0.00  0.00    +0.000 Cl
BRANCH   3  16
ATOM     10  C   UNL     1      -1.218  11.805  19.562  0.00  0.00    +0.000 C 
ATOM     11  C   UNL     1      -0.348  10.595  19.749  0.00  0.00    +0.000 A 
ATOM     12  C   UNL     1      -0.234   9.979  21.010  0.00  0.00    +0.000 A 
ATOM     13  C   UNL     1       0.581   8.855  21.211  0.00  0.00    +0.000 A 
ATOM     14  C   UNL     1       1.271   8.409  20.094  0.00  0.00    +0.000 A 
ATOM     15  O   UNL     1       2.128   7.354  20.023  0.00  0.00    +0.000 OA
ATOM     16  C   UNL     1       2.554   7.361  18.720  0.00  0.00    +0.000 A 
ATOM     17  N   UNL     1       2.007   8.305  17.969  0.00  0.00    +0.000 NA
ATOM     18  C   UNL     1       1.194   8.981  18.838  0.00  0.00    +0.000 A 
ATOM     19  C   UNL     1       0.361  10.088  18.643  0.00  0.00    +0.000 A 
ENDBRANCH   3  16
ENDBRANCH   1   5
BRANCH   1  20
ATOM     20  C   UNL     1       7.977   6.094  18.957  0.00  0.00    +0.000 C 
ATOM     21  S   UNL     1       8.449   5.190  20.282  0.00  0.00    +0.000 S 
BRANCH  20  22
ATOM     22  N   UNL     1       8.473   7.384  18.912  0.00  0.00    +0.000 N 
ATOM     23  C   UNL     1       8.129   8.392  18.031  0.00  0.00    +0.000 C 
ATOM     24  O   UNL     1       7.442   8.215  17.023  0.00  0.00    +0.000 OA
ATOM     25  H   UNL     1       9.130   7.589  19.656  0.00  0.00    +0.000 HD
BRANCH  23  26
ATOM     26  C   UNL     1       8.633   9.745  18.337  0.00  0.00    +0.000 A 
ATOM     27  C   UNL     1       8.261  10.785  17.489  0.00  0.00    +0.000 A 
ATOM     28  C   UNL     1       8.661  12.091  17.768  0.00  0.00    +0.000 A 
ATOM     29  C   UNL     1       9.440  12.395  18.897  0.00  0.00    +0.000 A 
ATOM     30  C   UNL     1       9.776  11.331  19.760  0.00  0.00    +0.000 A 
ATOM     31  C   UNL     1       9.384  10.017  19.484  0.00  0.00    +0.000 A 
BRANCH  29  32
ATOM     32  C   UNL     1       9.929  13.826  19.191  0.00  0.00    +0.000 C 
ATOM     33  C   UNL     1      10.855  13.895  20.427  0.00  0.00    +0.000 C 
ATOM     34  C   UNL     1      10.705  14.391  17.984  0.00  0.00    +0.000 C 
ATOM     35  C   UNL     1       8.721  14.744  19.474  0.00  0.00    +0.000 C 
ENDBRANCH  29  32
ENDBRANCH  23  26
ENDBRANCH  20  22
ENDBRANCH   1  20
TORSDOF 6
ENDMDL
MODEL 9
REMARK VINA RESULT:      -8.3      1.109      1.549
REMARK  Name = 
REMARK  10 active torsions:
REMARK  status: ('A' for Active; 'I' for Inactive)
REMARK    1  A    between atoms: C_1  and  C_2
REMARK    2  A    between atoms: C_7  and  C_8
REMARK    3  A    between atoms: C_10  and  N_11
REMARK    4  A    between atoms: N_11  and  C_12
REMARK    5  A    between atoms: C_12  and  N_14
REMARK    6  A    between atoms: C_15  and  C_17
REMARK    7  A    between atoms: C_20  and  C_21
REMARK    8  A    between atoms: C_21  and  C_22
REMARK    9  A    between atoms: C_21  and  C_23
REMARK   10  A    between atoms: C_21  and  C_24
REMARK                            x       y       z     vdW  Elec       q    Type
REMARK                         _______ _______ _______ _____ _____    ______ ____
ROOT
ATOM      1  N   UNL     1       6.331   4.842  17.514  0.00  0.00    +0.000 N 
ATOM      2  H   UNL     1       7.060   4.164  17.750  0.00  0.00    +0.000 HD
ENDROOT
BRANCH   1   5
ATOM      3  C   UNL     1       3.021   5.393  19.177  0.00  0.00    +0.000 A 
ATOM      4  C   UNL     1       4.324   5.626  18.703  0.00  0.00    +0.000 A 
ATOM      5  C   UNL     1       5.091   4.615  18.135  0.00  0.00    +0.000 A 
ATOM      6  C   UNL     1       4.611   3.306  18.175  0.00  0.00    +0.000 A 
ATOM      7  C   UNL     1       3.338   3.040  18.686  0.00  0.00    +0.000 A 
ATOM      8  C   UNL     1       2.533   4.080  19.166  0.00  0.00    +0.000 A 
ATOM      9 CL   UNL     1       0.971   3.638  19.764  0.00  0.00    +0.000 Cl
BRANCH   3  16
ATOM     10  C   UNL     1      -0.446  11.075  22.250  0.00  0.00    +0.000 C 
ATOM     11  C   UNL     1       0.288  10.207  21.269  0.00  0.00    +0.000 A 
ATOM     12  C   UNL     1       0.599  10.682  19.980  0.00  0.00    +0.000 A 
ATOM     13  C   UNL     1       1.275   9.885  19.044  0.00  0.00    +0.000 A 
ATOM     14  C   UNL     1       1.595   8.605  19.469  0.00  0.00    +0.000 A 
ATOM     15  O   UNL     1       2.236   7.637  18.757  0.00  0.00    +0.000 OA
ATOM     16  C   UNL     1       2.277   6.568  19.613  0.00  0.00    +0.000 A 
ATOM     17  N   UNL     1       1.752   6.801  20.806  0.00  0.00    +0.000 NA
ATOM     18  C   UNL     1       1.309   8.092  20.720  0.00  0.00    +0.000 A 
ATOM     19  C   UNL     1       0.656   8.903  21.654  0.00  0.00    +0.000 A 
ENDBRANCH   3  16
ENDBRANCH   1   5
BRANCH   1  20
ATOM     20  C   UNL     1       6.697   5.720  16.511  0.00  0.00    +0.000 C 
ATOM     21  S   UNL     1       6.907   5.447  14.874  0.00  0.00    +0.000 S 
BRANCH  20  22
ATOM     22  N   UNL     1       7.012   6.994  16.945  0.00  0.00    +0.000 N 
ATOM     23  C   UNL     1       7.766   7.350  18.047  0.00  0.00    +0.000 C 
ATOM     24  O   UNL     1       8.122   6.553  18.919  0.00  0.00    +0.000 OA
ATOM     25  H   UNL     1       6.668   7.724  16.333  0.00  0.00    +0.000 HD
BRANCH  23  26
ATOM     26  C   UNL     1       8.146   8.771  18.164  0.00  0.00    +0.000 A 
ATOM     27  C   UNL     1       9.101   9.113  19.118  0.00  0.00    +0.000 A 
ATOM     28  C   UNL     1       9.538  10.431  19.227  0.00  0.00    +0.000 A 
ATOM     29  C   UNL     1       9.037  11.443  18.390  0.00  0.00    +0.000 A 
ATOM     30  C   UNL     1       8.097  11.068  17.409  0.00  0.00    +0.000 A 
ATOM     31  C   UNL     1       7.648   9.747  17.297  0.00  0.00    +0.000 A 
BRANCH  29  32
ATOM     32  C   UNL     1       9.477  12.912  18.532  0.00  0.00    +0.000 C 
ATOM     33  C   UNL     1       8.356  13.907  18.151  0.00  0.00    +0.000 C 
ATOM     34  C   UNL     1       9.902  13.212  19.984  0.00  0.00    +0.000 C 
ATOM     35  C   UNL     1      10.674  13.194  17.599  0.00  0.00    +0.000 C 
ENDBRANCH  29  32
ENDBRANCH  23  26
ENDBRANCH  20  22
ENDBRANCH   1  20
TORSDOF 6
ENDMDL
