MODEL 1
REMARK VINA RESULT:      -8.3      0.000      0.000
REMARK  Name = 
REMARK  10 active torsions:
REMARK  status: ('A' for Active; 'I' for Inactive)
REMARK    1  A    between atoms: C_1  and  C_2
REMARK    2  A    between atoms: C_5  and  C_6
REMARK    3  A    between atoms: C_6  and  N_7
REMARK    4  A    between atoms: C_6  and  C_29
REMARK    5  A    between atoms: N_13  and  C_14
REMARK    6  A    between atoms: C_18  and  C_19
REMARK    7  A    between atoms: C_27  and  O_28
REMARK    8  A    between atoms: C_29  and  C_30
REMARK    9  A    between atoms: C_29  and  C_31
REMARK   10  A    between atoms: C_29  and  C_32
REMARK                            x       y       z     vdW  Elec       q    Type
REMARK                         _______ _______ _______ _____ _____    ______ ____
ROOT
ATOM      1  N   UNL     1       4.812   5.721  17.590  0.00  0.00    +0.000 N 
ATOM      2  C   UNL     1       3.602   5.224  17.966  0.00  0.00    +0.000 A 
ATOM      3  N   UNL     1       3.374   3.911  18.104  0.00  0.00    +0.000 NA
ATOM      4  S   UNL     1       1.789   3.761  18.567  0.00  0.00    +0.000 S 
ATOM      5  N   UNL     1       1.345   5.352  18.624  0.00  0.00    +0.000 NA
ATOM      6  C   UNL     1       2.430   6.073  18.321  0.00  0.00    +0.000 A 
ATOM      7  N   UNL     1       2.474   7.447  18.360  0.00  0.00    +0.000 N 
ATOM      8  H   UNL     1       4.863   6.605  17.087  0.00  0.00    +0.000 HD
ATOM      9  H   UNL     1       3.268   7.931  17.952  0.00  0.00    +0.000 HD
ENDROOT
BRANCH   7  10
ATOM     10  C   UNL     1       1.771   8.338  19.229  0.00  0.00    +0.000 A 
ATOM     11  C   UNL     1       1.429   7.990  20.543  0.00  0.00    +0.000 A 
ATOM     12  C   UNL     1       0.859   8.915  21.416  0.00  0.00    +0.000 A 
ATOM     13  C   UNL     1       0.553  10.197  20.973  0.00  0.00    +0.000 A 
ATOM     14  C   UNL     1       0.706  10.534  19.625  0.00  0.00    +0.000 A 
ATOM     15  C   UNL     1       1.383   9.622  18.776  0.00  0.00    +0.000 A 
BRANCH  14  16
ATOM     16  C   UNL     1       0.242  11.866  19.124  0.00  0.00    +0.000 C 
ATOM     17  O   UNL     1      -0.737  11.856  18.373  0.00  0.00    +0.000 OA
ATOM     18  N   UNL     1       0.895  13.052  19.482  0.00  0.00    +0.000 N 
ATOM     19  C   UNL     1       0.467  14.324  18.885  0.00  0.00    +0.000 C 
ATOM     20  C   UNL     1       1.660  15.273  18.648  0.00  0.00    +0.000 C 
ATOM     21  O   UNL     1       2.510  15.399  19.802  0.00  0.00    +0.000 OA
ATOM     22  C   UNL     1       2.957  14.113  20.253  0.00  0.00    +0.000 C 
ATOM     23  C   UNL     1       1.748  13.265  20.662  0.00  0.00    +0.000 C 
ENDBRANCH  14  16
BRANCH  15  24
ATOM     24  O   UNL     1       1.740   9.962  17.488  0.00  0.00    +0.000 OA
ATOM     25  H   UNL     1       1.393   9.256  16.895  0.00  0.00    +0.000 HD
ENDBRANCH  15  24
ENDBRANCH   7  10
BRANCH   1  26
ATOM     26  C   UNL     1       5.949   4.834  17.281  0.00  0.00    +0.000 C 
BRANCH  26  31
ATOM     27  C   UNL     1       8.229   5.638  13.060  0.00  0.00    +0.000 C 
ATOM     28  C   UNL     1       7.211   4.978  13.901  0.00  0.00    +0.000 A 
ATOM     29  C   UNL     1       6.281   3.992  13.658  0.00  0.00    +0.000 A 
ATOM     30  C   UNL     1       5.610   3.772  14.882  0.00  0.00    +0.000 A 
ATOM     31  C   UNL     1       6.179   4.629  15.805  0.00  0.00    +0.000 A 
ATOM     32  O   UNL     1       7.147   5.381  15.202  0.00  0.00    +0.000 OA
ENDBRANCH  26  31
BRANCH  26  33
ATOM     33  C   UNL     1       7.245   5.343  18.024  0.00  0.00    +0.000 C 
ATOM     34  C   UNL     1       7.635   6.733  17.473  0.00  0.00    +0.000 C 
ATOM     35  C   UNL     1       6.993   5.509  19.541  0.00  0.00    +0.000 C 
ATOM     36  C   UNL     1       8.443   4.391  17.838  0.00  0.00    +0.000 C 
ENDBRANCH  26  33
ENDBRANCH   1  26
TORSDOF 6
ENDMDL
MODEL 2
REMARK VINA RESULT:      -8.1      1.749      2.893
REMARK  Name = 
REMARK  10 active torsions:
REMARK  status: ('A' for Active; 'I' for Inactive)
REMARK    1  A    between atoms: C_1  and  C_2
REMARK    2  A    between atoms: C_5  and  C_6
REMARK    3  A    between atoms: C_6  and  N_7
REMARK    4  A    between atoms: C_6  and  C_29
REMARK    5  A    between atoms: N_13  and  C_14
REMARK    6  A    between atoms: C_18  and  C_19
REMARK    7  A    between atoms: C_27  and  O_28
REMARK    8  A    between atoms: C_29  and  C_30
REMARK    9  A    between atoms: C_29  and  C_31
REMARK   10  A    between atoms: C_29  and  C_32
REMARK                            x       y       z     vdW  Elec       q    Type
REMARK                         _______ _______ _______ _____ _____    ______ ____
ROOT
ATOM      1  N   UNL     1       4.854   5.692  17.640  0.00  0.00    +0.000 N 
ATOM      2  C   UNL     1       3.614   5.168  17.848  0.00  0.00    +0.000 A 
ATOM      3  N   UNL     1       3.369   3.852  17.795  0.00  0.00    +0.000 NA
ATOM      4  S   UNL     1       1.751   3.667  18.102  0.00  0.00    +0.000 S 
ATOM      5  N   UNL     1       1.311   5.244  18.330  0.00  0.00    +0.000 NA
ATOM      6  C   UNL     1       2.421   5.982  18.212  0.00  0.00    +0.000 A 
ATOM      7  N   UNL     1       2.467   7.338  18.433  0.00  0.00    +0.000 N 
ATOM      8  H   UNL     1       4.949   6.632  17.262  0.00  0.00    +0.000 HD
ATOM      9  H   UNL     1       3.294   7.859  18.159  0.00  0.00    +0.000 HD
ENDROOT
BRANCH   7  10
ATOM     10  C   UNL     1       1.698   8.120  19.350  0.00  0.00    +0.000 A 
ATOM     11  C   UNL     1       1.616   7.810  20.715  0.00  0.00    +0.000 A 
ATOM     12  C   UNL     1       0.967   8.655  21.615  0.00  0.00    +0.000 A 
ATOM     13  C   UNL     1       0.324   9.800  21.160  0.00  0.00    +0.000 A 
ATOM     14  C   UNL     1       0.222  10.055  19.790  0.00  0.00    +0.000 A 
ATOM     15  C   UNL     1       0.973   9.249  18.897  0.00  0.00    +0.000 A 
BRANCH  14  16
ATOM     16  C   UNL     1      -0.592  11.210  19.297  0.00  0.00    +0.000 C 
ATOM     17  O   UNL     1      -0.192  12.334  19.613  0.00  0.00    +0.000 OA
ATOM     18  N   UNL     1      -1.748  11.018  18.531  0.00  0.00    +0.000 N 
ATOM     19  C   UNL     1      -2.570  12.177  18.156  0.00  0.00    +0.000 C 
ATOM     20  C   UNL     1      -4.072  11.828  18.136  0.00  0.00    +0.000 C 
ATOM     21  O   UNL     1      -4.356  10.621  17.406  0.00  0.00    +0.000 OA
ATOM     22  C   UNL     1      -3.579   9.524  17.907  0.00  0.00    +0.000 C 
ATOM     23  C   UNL     1      -2.088   9.830  17.732  0.00  0.00    +0.000 C 
ENDBRANCH  14  16
BRANCH  15  24
ATOM     24  O   UNL     1       1.075   9.556  17.556  0.00  0.00    +0.000 OA
ATOM     25  H   UNL     1       2.005   9.374  17.286  0.00  0.00    +0.000 HD
ENDBRANCH  15  24
ENDBRANCH   7  10
BRANCH   1  26
ATOM     26  C   UNL     1       6.009   4.834  17.313  0.00  0.00    +0.000 C 
BRANCH  26  31
ATOM     27  C   UNL     1       8.272   5.643  13.084  0.00  0.00    +0.000 C 
ATOM     28  C   UNL     1       7.248   4.993  13.926  0.00  0.00    +0.000 A 
ATOM     29  C   UNL     1       6.300   4.025  13.679  0.00  0.00    +0.000 A 
ATOM     30  C   UNL     1       5.634   3.804  14.906  0.00  0.00    +0.000 A 
ATOM     31  C   UNL     1       6.224   4.641  15.833  0.00  0.00    +0.000 A 
ATOM     32  O   UNL     1       7.201   5.383  15.231  0.00  0.00    +0.000 OA
ENDBRANCH  26  31
BRANCH  26  33
ATOM     33  C   UNL     1       7.300   5.373  18.042  0.00  0.00    +0.000 C 
ATOM     34  C   UNL     1       7.035   5.441  19.564  0.00  0.00    +0.000 C 
ATOM     35  C   UNL     1       8.501   4.422  17.832  0.00  0.00    +0.000 C 
ATOM     36  C   UNL     1       7.709   6.777  17.556  0.00  0.00    +0.000 C 
ENDBRANCH  26  33
ENDBRANCH   1  26
TORSDOF 6
ENDMDL
MODEL 3
REMARK VINA RESULT:      -8.1      0.563      1.218
REMARK  Name = 
REMARK  10 active torsions:
REMARK  status: ('A' for Active; 'I' for Inactive)
REMARK    1  A    between atoms: C_1  and  C_2
REMARK    2  A    between atoms: C_5  and  C_6
REMARK    3  A    between atoms: C_6  and  N_7
REMARK    4  A    between atoms: C_6  and  C_29
REMARK    5  A    between atoms: N_13  and  C_14
REMARK    6  A    between atoms: C_18  and  C_19
REMARK    7  A    between atoms: C_27  and  O_28
REMARK    8  A    between atoms: C_29  and  C_30
REMARK    9  A    between atoms: C_29  and  C_31
REMARK   10  A    between atoms: C_29  and  C_32
REMARK                            x       y       z     vdW  Elec       q    Type
REMARK                         _______ _______ _______ _____ _____    ______ ____
ROOT
ATOM      1  N   UNL     1       4.863   5.759  17.594  0.00  0.00    +0.000 N 
ATOM      2  C   UNL     1       3.621   5.257  17.837  0.00  0.00    +0.000 A 
ATOM      3  N   UNL     1       3.367   3.941  17.857  0.00  0.00    +0.000 NA
ATOM      4  S   UNL     1       1.750   3.784  18.184  0.00  0.00    +0.000 S 
ATOM      5  N   UNL     1       1.322   5.375  18.329  0.00  0.00    +0.000 NA
ATOM      6  C   UNL     1       2.436   6.097  18.165  0.00  0.00    +0.000 A 
ATOM      7  N   UNL     1       2.493   7.463  18.313  0.00  0.00    +0.000 N 
ATOM      8  H   UNL     1       4.963   6.678  17.165  0.00  0.00    +0.000 HD
ATOM      9  H   UNL     1       3.322   7.962  18.005  0.00  0.00    +0.000 HD
ENDROOT
BRANCH   7  10
ATOM     10  C   UNL     1       1.736   8.299  19.192  0.00  0.00    +0.000 A 
ATOM     11  C   UNL     1       1.394   7.904  20.493  0.00  0.00    +0.000 A 
ATOM     12  C   UNL     1       0.767   8.780  21.378  0.00  0.00    +0.000 A 
ATOM     13  C   UNL     1       0.404  10.055  20.960  0.00  0.00    +0.000 A 
ATOM     14  C   UNL     1       0.559  10.430  19.622  0.00  0.00    +0.000 A 
ATOM     15  C   UNL     1       1.291   9.572  18.762  0.00  0.00    +0.000 A 
BRANCH  14  16
ATOM     16  C   UNL     1       0.037  11.749  19.144  0.00  0.00    +0.000 C 
ATOM     17  O   UNL     1      -0.935  11.708  18.385  0.00  0.00    +0.000 OA
ATOM     18  N   UNL     1       0.630  12.956  19.533  0.00  0.00    +0.000 N 
ATOM     19  C   UNL     1       0.147  14.219  18.958  0.00  0.00    +0.000 C 
ATOM     20  C   UNL     1       1.296  15.228  18.752  0.00  0.00    +0.000 C 
ATOM     21  O   UNL     1       2.130  15.370  19.915  0.00  0.00    +0.000 OA
ATOM     22  C   UNL     1       2.633  14.097  20.344  0.00  0.00    +0.000 C 
ATOM     23  C   UNL     1       1.463  13.185  20.724  0.00  0.00    +0.000 C 
ENDBRANCH  14  16
BRANCH  15  24
ATOM     24  O   UNL     1       1.647   9.959  17.487  0.00  0.00    +0.000 OA
ATOM     25  H   UNL     1       1.535   9.173  16.904  0.00  0.00    +0.000 HD
ENDBRANCH  15  24
ENDBRANCH   7  10
BRANCH   1  26
ATOM     26  C   UNL     1       6.010   4.877  17.305  0.00  0.00    +0.000 C 
BRANCH  26  31
ATOM     27  C   UNL     1       5.082   3.429  12.755  0.00  0.00    +0.000 C 
ATOM     28  C   UNL     1       5.903   4.104  13.780  0.00  0.00    +0.000 A 
ATOM     29  C   UNL     1       7.067   4.837  13.724  0.00  0.00    +0.000 A 
ATOM     30  C   UNL     1       7.342   5.242  15.050  0.00  0.00    +0.000 A 
ATOM     31  C   UNL     1       6.322   4.744  15.836  0.00  0.00    +0.000 A 
ATOM     32  O   UNL     1       5.448   4.032  15.063  0.00  0.00    +0.000 OA
ENDBRANCH  26  31
BRANCH  26  33
ATOM     33  C   UNL     1       7.264   5.336  18.146  0.00  0.00    +0.000 C 
ATOM     34  C   UNL     1       6.887   5.370  19.645  0.00  0.00    +0.000 C 
ATOM     35  C   UNL     1       8.437   4.339  17.994  0.00  0.00    +0.000 C 
ATOM     36  C   UNL     1       7.767   6.735  17.739  0.00  0.00    +0.000 C 
ENDBRANCH  26  33
ENDBRANCH   1  26
TORSDOF 6
ENDMDL
MODEL 4
REMARK VINA RESULT:      -8.0      2.775      9.547
REMARK  Name = 
REMARK  10 active torsions:
REMARK  status: ('A' for Active; 'I' for Inactive)
REMARK    1  A    between atoms: C_1  and  C_2
REMARK    2  A    between atoms: C_5  and  C_6
REMARK    3  A    between atoms: C_6  and  N_7
REMARK    4  A    between atoms: C_6  and  C_29
REMARK    5  A    between atoms: N_13  and  C_14
REMARK    6  A    between atoms: C_18  and  C_19
REMARK    7  A    between atoms: C_27  and  O_28
REMARK    8  A    between atoms: C_29  and  C_30
REMARK    9  A    between atoms: C_29  and  C_31
REMARK   10  A    between atoms: C_29  and  C_32
REMARK                            x       y       z     vdW  Elec       q    Type
REMARK                         _______ _______ _______ _____ _____    ______ ____
ROOT
ATOM      1  N   UNL     1      -0.371   9.856  19.178  0.00  0.00    +0.000 N 
ATOM      2  C   UNL     1       0.114   9.575  20.419  0.00  0.00    +0.000 A 
ATOM      3  N   UNL     1      -0.420  10.089  21.535  0.00  0.00    +0.000 NA
ATOM      4  S   UNL     1       0.473   9.491  22.797  0.00  0.00    +0.000 S 
ATOM      5  N   UNL     1       1.553   8.548  21.974  0.00  0.00    +0.000 NA
ATOM      6  C   UNL     1       1.237   8.630  20.676  0.00  0.00    +0.000 A 
ATOM      7  N   UNL     1       1.856   7.902  19.688  0.00  0.00    +0.000 N 
ATOM      8  H   UNL     1       0.253   9.835  18.373  0.00  0.00    +0.000 HD
ATOM      9  H   UNL     1       1.689   8.141  18.715  0.00  0.00    +0.000 HD
ENDROOT
BRANCH   7  10
ATOM     10  C   UNL     1       2.416   6.589  19.763  0.00  0.00    +0.000 A 
ATOM     11  C   UNL     1       1.767   5.534  20.420  0.00  0.00    +0.000 A 
ATOM     12  C   UNL     1       2.264   4.232  20.375  0.00  0.00    +0.000 A 
ATOM     13  C   UNL     1       3.464   3.965  19.726  0.00  0.00    +0.000 A 
ATOM     14  C   UNL     1       4.238   5.011  19.215  0.00  0.00    +0.000 A 
ATOM     15  C   UNL     1       3.673   6.311  19.174  0.00  0.00    +0.000 A 
BRANCH  14  16
ATOM     16  C   UNL     1       5.595   4.735  18.645  0.00  0.00    +0.000 C 
ATOM     17  O   UNL     1       6.532   4.723  19.448  0.00  0.00    +0.000 OA
ATOM     18  N   UNL     1       5.784   4.517  17.275  0.00  0.00    +0.000 N 
ATOM     19  C   UNL     1       7.146   4.351  16.748  0.00  0.00    +0.000 C 
ATOM     20  C   UNL     1       7.292   4.968  15.342  0.00  0.00    +0.000 C 
ATOM     21  O   UNL     1       6.241   4.568  14.445  0.00  0.00    +0.000 OA
ATOM     22  C   UNL     1       4.951   4.858  15.003  0.00  0.00    +0.000 C 
ATOM     23  C   UNL     1       4.769   4.074  16.306  0.00  0.00    +0.000 C 
ENDBRANCH  14  16
BRANCH  15  24
ATOM     24  O   UNL     1       4.295   7.350  18.515  0.00  0.00    +0.000 OA
ATOM     25  H   UNL     1       4.199   7.181  17.550  0.00  0.00    +0.000 HD
ENDBRANCH  15  24
ENDBRANCH   7  10
BRANCH   1  26
ATOM     26  C   UNL     1      -1.508  10.776  18.984  0.00  0.00    +0.000 C 
BRANCH  26  31
ATOM     27  C   UNL     1      -1.758  15.345  20.633  0.00  0.00    +0.000 C 
ATOM     28  C   UNL     1      -1.221  14.293  19.747  0.00  0.00    +0.000 A 
ATOM     29  C   UNL     1      -0.228  14.278  18.794  0.00  0.00    +0.000 A 
ATOM     30  C   UNL     1      -0.169  12.954  18.305  0.00  0.00    +0.000 A 
ATOM     31  C   UNL     1      -1.122  12.233  18.999  0.00  0.00    +0.000 A 
ATOM     32  O   UNL     1      -1.780  13.055  19.871  0.00  0.00    +0.000 OA
ENDBRANCH  26  31
BRANCH  26  33
ATOM     33  C   UNL     1      -2.302  10.379  17.679  0.00  0.00    +0.000 C 
ATOM     34  C   UNL     1      -3.510   9.495  18.067  0.00  0.00    +0.000 C 
ATOM     35  C   UNL     1      -2.865  11.629  16.962  0.00  0.00    +0.000 C 
ATOM     36  C   UNL     1      -1.432   9.600  16.674  0.00  0.00    +0.000 C 
ENDBRANCH  26  33
ENDBRANCH   1  26
TORSDOF 6
ENDMDL
MODEL 5
REMARK VINA RESULT:      -8.0      2.744      9.532
REMARK  Name = 
REMARK  10 active torsions:
REMARK  status: ('A' for Active; 'I' for Inactive)
REMARK    1  A    between atoms: C_1  and  C_2
REMARK    2  A    between atoms: C_5  and  C_6
REMARK    3  A    between atoms: C_6  and  N_7
REMARK    4  A    between atoms: C_6  and  C_29
REMARK    5  A    between atoms: N_13  and  C_14
REMARK    6  A    between atoms: C_18  and  C_19
REMARK    7  A    between atoms: C_27  and  O_28
REMARK    8  A    between atoms: C_29  and  C_30
REMARK    9  A    between atoms: C_29  and  C_31
REMARK   10  A    between atoms: C_29  and  C_32
REMARK                            x       y       z     vdW  Elec       q    Type
REMARK                         _______ _______ _______ _____ _____    ______ ____
ROOT
ATOM      1  N   UNL     1      -0.634  10.479  19.505  0.00  0.00    +0.000 N 
ATOM      2  C   UNL     1      -0.209  10.032  20.719  0.00  0.00    +0.000 A 
ATOM      3  N   UNL     1      -0.764  10.434  21.870  0.00  0.00    +0.000 NA
ATOM      4  S   UNL     1       0.054   9.651  23.080  0.00  0.00    +0.000 S 
ATOM      5  N   UNL     1       1.125   8.763  22.187  0.00  0.00    +0.000 NA
ATOM      6  C   UNL     1       0.863   9.013  20.899  0.00  0.00    +0.000 A 
ATOM      7  N   UNL     1       1.489   8.379  19.851  0.00  0.00    +0.000 N 
ATOM      8  H   UNL     1       0.020  10.525  18.725  0.00  0.00    +0.000 HD
ATOM      9  H   UNL     1       1.369   8.738  18.909  0.00  0.00    +0.000 HD
ENDROOT
BRANCH   7  10
ATOM     10  C   UNL     1       1.990   7.041  19.788  0.00  0.00    +0.000 A 
ATOM     11  C   UNL     1       1.955   6.174  20.889  0.00  0.00    +0.000 A 
ATOM     12  C   UNL     1       2.330   4.836  20.775  0.00  0.00    +0.000 A 
ATOM     13  C   UNL     1       2.815   4.348  19.567  0.00  0.00    +0.000 A 
ATOM     14  C   UNL     1       3.040   5.215  18.494  0.00  0.00    +0.000 A 
ATOM     15  C   UNL     1       2.558   6.545  18.590  0.00  0.00    +0.000 A 
BRANCH  14  16
ATOM     16  C   UNL     1       3.696   4.714  17.245  0.00  0.00    +0.000 C 
ATOM     17  O   UNL     1       3.107   3.811  16.645  0.00  0.00    +0.000 OA
ATOM     18  N   UNL     1       4.915   5.236  16.797  0.00  0.00    +0.000 N 
ATOM     19  C   UNL     1       5.570   4.643  15.622  0.00  0.00    +0.000 C 
ATOM     20  C   UNL     1       7.106   4.658  15.759  0.00  0.00    +0.000 C 
ATOM     21  O   UNL     1       7.619   5.942  16.156  0.00  0.00    +0.000 OA
ATOM     22  C   UNL     1       6.991   6.393  17.364  0.00  0.00    +0.000 C 
ATOM     23  C   UNL     1       5.486   6.551  17.130  0.00  0.00    +0.000 C 
ENDBRANCH  14  16
BRANCH  15  24
ATOM     24  O   UNL     1       2.572   7.399  17.507  0.00  0.00    +0.000 OA
ATOM     25  H   UNL     1       2.573   8.318  17.863  0.00  0.00    +0.000 HD
ENDBRANCH  15  24
ENDBRANCH   7  10
BRANCH   1  26
ATOM     26  C   UNL     1      -1.723  11.466  19.384  0.00  0.00    +0.000 C 
BRANCH  26  31
ATOM     27  C   UNL     1      -1.645  16.106  20.843  0.00  0.00    +0.000 C 
ATOM     28  C   UNL     1      -1.198  14.987  19.991  0.00  0.00    +0.000 A 
ATOM     29  C   UNL     1      -0.232  14.870  19.017  0.00  0.00    +0.000 A 
ATOM     30  C   UNL     1      -0.268  13.525  18.584  0.00  0.00    +0.000 A 
ATOM     31  C   UNL     1      -1.246  12.896  19.329  0.00  0.00    +0.000 A 
ATOM     32  O   UNL     1      -1.829  13.793  20.179  0.00  0.00    +0.000 OA
ENDBRANCH  26  31
BRANCH  26  33
ATOM     33  C   UNL     1      -2.650  11.096  18.162  0.00  0.00    +0.000 C 
ATOM     34  C   UNL     1      -1.967  11.546  16.850  0.00  0.00    +0.000 C 
ATOM     35  C   UNL     1      -2.863   9.567  18.063  0.00  0.00    +0.000 C 
ATOM     36  C   UNL     1      -4.034  11.770  18.247  0.00  0.00    +0.000 C 
ENDBRANCH  26  33
ENDBRANCH   1  26
TORSDOF 6
ENDMDL
MODEL 6
REMARK VINA RESULT:      -7.8      1.235      1.896
REMARK  Name = 
REMARK  10 active torsions:
REMARK  status: ('A' for Active; 'I' for Inactive)
REMARK    1  A    between atoms: C_1  and  C_2
REMARK    2  A    between atoms: C_5  and  C_6
REMARK    3  A    between atoms: C_6  and  N_7
REMARK    4  A    between atoms: C_6  and  C_29
REMARK    5  A    between atoms: N_13  and  C_14
REMARK    6  A    between atoms: C_18  and  C_19
REMARK    7  A    between atoms: C_27  and  O_28
REMARK    8  A    between atoms: C_29  and  C_30
REMARK    9  A    between atoms: C_29  and  C_31
REMARK   10  A    between atoms: C_29  and  C_32
REMARK                            x       y       z     vdW  Elec       q    Type
REMARK                         _______ _______ _______ _____ _____    ______ ____
ROOT
ATOM      1  N   UNL     1       4.805   5.773  17.600  0.00  0.00    +0.000 N 
ATOM      2  C   UNL     1       3.592   5.291  17.988  0.00  0.00    +0.000 A 
ATOM      3  N   UNL     1       3.351   3.981  18.136  0.00  0.00    +0.000 NA
ATOM      4  S   UNL     1       1.769   3.851  18.611  0.00  0.00    +0.000 S 
ATOM      5  N   UNL     1       1.342   5.447  18.662  0.00  0.00    +0.000 NA
ATOM      6  C   UNL     1       2.432   6.155  18.346  0.00  0.00    +0.000 A 
ATOM      7  N   UNL     1       2.491   7.528  18.376  0.00  0.00    +0.000 N 
ATOM      8  H   UNL     1       4.861   6.654  17.090  0.00  0.00    +0.000 HD
ATOM      9  H   UNL     1       3.287   8.001  17.959  0.00  0.00    +0.000 HD
ENDROOT
BRANCH   7  10
ATOM     10  C   UNL     1       1.804   8.433  19.244  0.00  0.00    +0.000 A 
ATOM     11  C   UNL     1       1.356   8.055  20.518  0.00  0.00    +0.000 A 
ATOM     12  C   UNL     1       0.802   8.982  21.399  0.00  0.00    +0.000 A 
ATOM     13  C   UNL     1       0.621  10.302  21.002  0.00  0.00    +0.000 A 
ATOM     14  C   UNL     1       0.883  10.684  19.684  0.00  0.00    +0.000 A 
ATOM     15  C   UNL     1       1.541   9.761  18.832  0.00  0.00    +0.000 A 
BRANCH  14  16
ATOM     16  C   UNL     1       0.552  12.069  19.221  0.00  0.00    +0.000 C 
ATOM     17  O   UNL     1       1.379  12.609  18.481  0.00  0.00    +0.000 OA
ATOM     18  N   UNL     1      -0.625  12.714  19.620  0.00  0.00    +0.000 N 
ATOM     19  C   UNL     1      -0.858  14.109  19.223  0.00  0.00    +0.000 C 
ATOM     20  C   UNL     1      -1.599  14.898  20.322  0.00  0.00    +0.000 C 
ATOM     21  O   UNL     1      -2.758  14.207  20.820  0.00  0.00    +0.000 OA
ATOM     22  C   UNL     1      -2.415  12.890  21.274  0.00  0.00    +0.000 C 
ATOM     23  C   UNL     1      -1.859  12.074  20.104  0.00  0.00    +0.000 C 
ENDBRANCH  14  16
BRANCH  15  24
ATOM     24  O   UNL     1       2.002  10.129  17.585  0.00  0.00    +0.000 OA
ATOM     25  H   UNL     1       1.225  10.447  17.071  0.00  0.00    +0.000 HD
ENDBRANCH  15  24
ENDBRANCH   7  10
BRANCH   1  26
ATOM     26  C   UNL     1       5.930   4.872  17.288  0.00  0.00    +0.000 C 
BRANCH  26  31
ATOM     27  C   UNL     1       8.182   5.609  13.040  0.00  0.00    +0.000 C 
ATOM     28  C   UNL     1       7.163   4.971  13.896  0.00  0.00    +0.000 A 
ATOM     29  C   UNL     1       6.218   3.995  13.670  0.00  0.00    +0.000 A 
ATOM     30  C   UNL     1       5.555   3.795  14.901  0.00  0.00    +0.000 A 
ATOM     31  C   UNL     1       6.143   4.651  15.811  0.00  0.00    +0.000 A 
ATOM     32  O   UNL     1       7.117   5.386  15.194  0.00  0.00    +0.000 OA
ENDBRANCH  26  31
BRANCH  26  33
ATOM     33  C   UNL     1       7.238   5.375  18.014  0.00  0.00    +0.000 C 
ATOM     34  C   UNL     1       6.970   5.471  19.534  0.00  0.00    +0.000 C 
ATOM     35  C   UNL     1       8.406   4.380  17.820  0.00  0.00    +0.000 C 
ATOM     36  C   UNL     1       7.696   6.758  17.512  0.00  0.00    +0.000 C 
ENDBRANCH  26  33
ENDBRANCH   1  26
TORSDOF 6
ENDMDL
MODEL 7
REMARK VINA RESULT:      -7.8      3.850     10.629
REMARK  Name = 
REMARK  10 active torsions:
REMARK  status: ('A' for Active; 'I' for Inactive)
REMARK    1  A    between atoms: C_1  and  C_2
REMARK    2  A    between atoms: C_5  and  C_6
REMARK    3  A    between atoms: C_6  and  N_7
REMARK    4  A    between atoms: C_6  and  C_29
REMARK    5  A    between atoms: N_13  and  C_14
REMARK    6  A    between atoms: C_18  and  C_19
REMARK    7  A    between atoms: C_27  and  O_28
REMARK    8  A    between atoms: C_29  and  C_30
REMARK    9  A    between atoms: C_29  and  C_31
REMARK   10  A    between atoms: C_29  and  C_32
REMARK                            x       y       z     vdW  Elec       q    Type
REMARK                         _______ _______ _______ _____ _____    ______ ____
ROOT
ATOM      1  N   UNL     1       0.074  12.990  20.439  0.00  0.00    +0.000 N 
ATOM      2  C   UNL     1      -0.693  12.187  19.651  0.00  0.00    +0.000 A 
ATOM      3  N   UNL     1      -1.758  12.643  18.978  0.00  0.00    +0.000 NA
ATOM      4  S   UNL     1      -2.385  11.343  18.163  0.00  0.00    +0.000 S 
ATOM      5  N   UNL     1      -1.318  10.165  18.619  0.00  0.00    +0.000 NA
ATOM      6  C   UNL     1      -0.401  10.748  19.400  0.00  0.00    +0.000 A 
ATOM      7  N   UNL     1       0.707  10.102  19.896  0.00  0.00    +0.000 N 
ATOM      8  H   UNL     1       0.566  12.594  21.238  0.00  0.00    +0.000 HD
ATOM      9  H   UNL     1       1.263  10.550  20.618  0.00  0.00    +0.000 HD
ENDROOT
BRANCH   7  10
ATOM     10  C   UNL     1       1.467   9.047  19.301  0.00  0.00    +0.000 A 
ATOM     11  C   UNL     1       2.141   9.204  18.081  0.00  0.00    +0.000 A 
ATOM     12  C   UNL     1       2.979   8.209  17.580  0.00  0.00    +0.000 A 
ATOM     13  C   UNL     1       3.111   7.001  18.254  0.00  0.00    +0.000 A 
ATOM     14  C   UNL     1       2.321   6.728  19.374  0.00  0.00    +0.000 A 
ATOM     15  C   UNL     1       1.555   7.783  19.932  0.00  0.00    +0.000 A 
BRANCH  14  16
ATOM     16  C   UNL     1       2.361   5.375  20.013  0.00  0.00    +0.000 C 
ATOM     17  O   UNL     1       2.452   5.355  21.244  0.00  0.00    +0.000 OA
ATOM     18  N   UNL     1       2.310   4.202  19.250  0.00  0.00    +0.000 N 
ATOM     19  C   UNL     1       2.455   2.899  19.913  0.00  0.00    +0.000 C 
ATOM     20  C   UNL     1       3.217   1.891  19.027  0.00  0.00    +0.000 C 
ATOM     21  O   UNL     1       2.710   1.835  17.682  0.00  0.00    +0.000 OA
ATOM     22  C   UNL     1       2.697   3.139  17.084  0.00  0.00    +0.000 C 
ATOM     23  C   UNL     1       1.775   4.061  17.886  0.00  0.00    +0.000 C 
ENDBRANCH  14  16
BRANCH  15  24
ATOM     24  O   UNL     1       0.903   7.644  21.140  0.00  0.00    +0.000 OA
ATOM     25  H   UNL     1       1.580   7.749  21.848  0.00  0.00    +0.000 HD
ENDBRANCH  15  24
ENDBRANCH   7  10
BRANCH   1  26
ATOM     26  C   UNL     1      -0.243  14.418  20.626  0.00  0.00    +0.000 C 
BRANCH  26  31
ATOM     27  C   UNL     1      -4.125  16.137  22.999  0.00  0.00    +0.000 C 
ATOM     28  C   UNL     1      -2.811  15.468  22.937  0.00  0.00    +0.000 A 
ATOM     29  C   UNL     1      -2.013  14.867  23.883  0.00  0.00    +0.000 A 
ATOM     30  C   UNL     1      -0.878  14.383  23.193  0.00  0.00    +0.000 A 
ATOM     31  C   UNL     1      -1.058  14.705  21.862  0.00  0.00    +0.000 A 
ATOM     32  O   UNL     1      -2.233  15.386  21.705  0.00  0.00    +0.000 OA
ENDBRANCH  26  31
BRANCH  26  33
ATOM     33  C   UNL     1       1.081  15.274  20.568  0.00  0.00    +0.000 C 
ATOM     34  C   UNL     1       1.586  15.333  19.108  0.00  0.00    +0.000 C 
ATOM     35  C   UNL     1       0.829  16.731  21.021  0.00  0.00    +0.000 C 
ATOM     36  C   UNL     1       2.202  14.685  21.447  0.00  0.00    +0.000 C 
ENDBRANCH  26  33
ENDBRANCH   1  26
TORSDOF 6
ENDMDL
MODEL 8
REMARK VINA RESULT:      -7.8      2.737      9.404
REMARK  Name = 
REMARK  10 active torsions:
REMARK  status: ('A' for Active; 'I' for Inactive)
REMARK    1  A    between atoms: C_1  and  C_2
REMARK    2  A    between atoms: C_5  and  C_6
REMARK    3  A    between atoms: C_6  and  N_7
REMARK    4  A    between atoms: C_6  and  C_29
REMARK    5  A    between atoms: N_13  and  C_14
REMARK    6  A    between atoms: C_18  and  C_19
REMARK    7  A    between atoms: C_27  and  O_28
REMARK    8  A    between atoms: C_29  and  C_30
REMARK    9  A    between atoms: C_29  and  C_31
REMARK   10  A    between atoms: C_29  and  C_32
REMARK                            x       y       z     vdW  Elec       q    Type
REMARK                         _______ _______ _______ _____ _____    ______ ____
ROOT
ATOM      1  N   UNL     1      -0.430   9.768  19.252  0.00  0.00    +0.000 N 
ATOM      2  C   UNL     1       0.098   9.513  20.481  0.00  0.00    +0.000 A 
ATOM      3  N   UNL     1      -0.406  10.040  21.606  0.00  0.00    +0.000 NA
ATOM      4  S   UNL     1       0.535   9.472  22.847  0.00  0.00    +0.000 S 
ATOM      5  N   UNL     1       1.598   8.527  22.005  0.00  0.00    +0.000 NA
ATOM      6  C   UNL     1       1.239   8.585  20.717  0.00  0.00    +0.000 A 
ATOM      7  N   UNL     1       1.835   7.848  19.721  0.00  0.00    +0.000 N 
ATOM      8  H   UNL     1       0.168   9.741  18.429  0.00  0.00    +0.000 HD
ATOM      9  H   UNL     1       1.634   8.069  18.751  0.00  0.00    +0.000 HD
ENDROOT
BRANCH   7  10
ATOM     10  C   UNL     1       2.412   6.542  19.800  0.00  0.00    +0.000 A 
ATOM     11  C   UNL     1       1.782   5.484  20.469  0.00  0.00    +0.000 A 
ATOM     12  C   UNL     1       2.296   4.188  20.428  0.00  0.00    +0.000 A 
ATOM     13  C   UNL     1       3.493   3.932  19.769  0.00  0.00    +0.000 A 
ATOM     14  C   UNL     1       4.249   4.984  19.244  0.00  0.00    +0.000 A 
ATOM     15  C   UNL     1       3.667   6.276  19.200  0.00  0.00    +0.000 A 
BRANCH  14  16
ATOM     16  C   UNL     1       5.604   4.722  18.663  0.00  0.00    +0.000 C 
ATOM     17  O   UNL     1       6.549   4.737  19.456  0.00  0.00    +0.000 OA
ATOM     18  N   UNL     1       5.781   4.486  17.294  0.00  0.00    +0.000 N 
ATOM     19  C   UNL     1       7.139   4.334  16.755  0.00  0.00    +0.000 C 
ATOM     20  C   UNL     1       7.260   4.932  15.338  0.00  0.00    +0.000 C 
ATOM     21  O   UNL     1       6.205   4.502  14.459  0.00  0.00    +0.000 OA
ATOM     22  C   UNL     1       4.918   4.780  15.027  0.00  0.00    +0.000 C 
ATOM     23  C   UNL     1       4.763   4.012  16.343  0.00  0.00    +0.000 C 
ENDBRANCH  14  16
BRANCH  15  24
ATOM     24  O   UNL     1       4.269   7.319  18.529  0.00  0.00    +0.000 OA
ATOM     25  H   UNL     1       3.579   7.739  17.965  0.00  0.00    +0.000 HD
ENDBRANCH  15  24
ENDBRANCH   7  10
BRANCH   1  26
ATOM     26  C   UNL     1      -1.583  10.672  19.080  0.00  0.00    +0.000 C 
BRANCH  26  31
ATOM     27  C   UNL     1       1.143  14.683  18.710  0.00  0.00    +0.000 C 
ATOM     28  C   UNL     1      -0.045  13.938  19.168  0.00  0.00    +0.000 A 
ATOM     29  C   UNL     1      -1.185  14.305  19.847  0.00  0.00    +0.000 A 
ATOM     30  C   UNL     1      -1.968  13.134  19.967  0.00  0.00    +0.000 A 
ATOM     31  C   UNL     1      -1.265  12.123  19.342  0.00  0.00    +0.000 A 
ATOM     32  O   UNL     1      -0.078  12.608  18.867  0.00  0.00    +0.000 OA
ENDBRANCH  26  31
BRANCH  26  33
ATOM     33  C   UNL     1      -2.233  10.448  17.660  0.00  0.00    +0.000 C 
ATOM     34  C   UNL     1      -1.348   9.479  16.842  0.00  0.00    +0.000 C 
ATOM     35  C   UNL     1      -3.631   9.796  17.779  0.00  0.00    +0.000 C 
ATOM     36  C   UNL     1      -2.381  11.760  16.866  0.00  0.00    +0.000 C 
ENDBRANCH  26  33
ENDBRANCH   1  26
TORSDOF 6
ENDMDL
MODEL 9
REMARK VINA RESULT:      -7.8      2.635      9.310
REMARK  Name = 
REMARK  10 active torsions:
REMARK  status: ('A' for Active; 'I' for Inactive)
REMARK    1  A    between atoms: C_1  and  C_2
REMARK    2  A    between atoms: C_5  and  C_6
REMARK    3  A    between atoms: C_6  and  N_7
REMARK    4  A    between atoms: C_6  and  C_29
REMARK    5  A    between atoms: N_13  and  C_14
REMARK    6  A    between atoms: C_18  and  C_19
REMARK    7  A    between atoms: C_27  and  O_28
REMARK    8  A    between atoms: C_29  and  C_30
REMARK    9  A    between atoms: C_29  and  C_31
REMARK   10  A    between atoms: C_29  and  C_32
REMARK                            x       y       z     vdW  Elec       q    Type
REMARK                         _______ _______ _______ _____ _____    ______ ____
ROOT
ATOM      1  N   UNL     1      -0.470  10.568  19.657  0.00  0.00    +0.000 N 
ATOM      2  C   UNL     1      -0.114  10.068  20.873  0.00  0.00    +0.000 A 
ATOM      3  N   UNL     1      -0.688  10.472  22.014  0.00  0.00    +0.000 NA
ATOM      4  S   UNL     1       0.042   9.614  23.231  0.00  0.00    +0.000 S 
ATOM      5  N   UNL     1       1.096   8.692  22.352  0.00  0.00    +0.000 NA
ATOM      6  C   UNL     1       0.895   8.988  21.062  0.00  0.00    +0.000 A 
ATOM      7  N   UNL     1       1.524   8.348  20.021  0.00  0.00    +0.000 N 
ATOM      8  H   UNL     1       0.213  10.598  18.902  0.00  0.00    +0.000 HD
ATOM      9  H   UNL     1       1.458   8.737  19.086  0.00  0.00    +0.000 HD
ENDROOT
BRANCH   7  10
ATOM     10  C   UNL     1       1.955   6.987  19.939  0.00  0.00    +0.000 A 
ATOM     11  C   UNL     1       1.849   6.101  21.020  0.00  0.00    +0.000 A 
ATOM     12  C   UNL     1       2.155   4.747  20.884  0.00  0.00    +0.000 A 
ATOM     13  C   UNL     1       2.642   4.259  19.677  0.00  0.00    +0.000 A 
ATOM     14  C   UNL     1       2.937   5.135  18.629  0.00  0.00    +0.000 A 
ATOM     15  C   UNL     1       2.524   6.487  18.743  0.00  0.00    +0.000 A 
BRANCH  14  16
ATOM     16  C   UNL     1       3.595   4.626  17.384  0.00  0.00    +0.000 C 
ATOM     17  O   UNL     1       2.940   3.825  16.710  0.00  0.00    +0.000 OA
ATOM     18  N   UNL     1       4.884   5.031  17.017  0.00  0.00    +0.000 N 
ATOM     19  C   UNL     1       5.526   4.428  15.841  0.00  0.00    +0.000 C 
ATOM     20  C   UNL     1       7.047   4.264  16.044  0.00  0.00    +0.000 C 
ATOM     21  O   UNL     1       7.677   5.462  16.533  0.00  0.00    +0.000 OA
ATOM     22  C   UNL     1       7.043   5.921  17.735  0.00  0.00    +0.000 C 
ATOM     23  C   UNL     1       5.577   6.256  17.446  0.00  0.00    +0.000 C 
ENDBRANCH  14  16
BRANCH  15  24
ATOM     24  O   UNL     1       2.608   7.362  17.680  0.00  0.00    +0.000 OA
ATOM     25  H   UNL     1       3.426   7.135  17.182  0.00  0.00    +0.000 HD
ENDBRANCH  15  24
ENDBRANCH   7  10
BRANCH   1  26
ATOM     26  C   UNL     1      -1.499  11.616  19.525  0.00  0.00    +0.000 C 
BRANCH  26  31
ATOM     27  C   UNL     1       1.975  14.891  18.592  0.00  0.00    +0.000 C 
ATOM     28  C   UNL     1       0.619  14.497  19.023  0.00  0.00    +0.000 A 
ATOM     29  C   UNL     1      -0.501  15.211  19.386  0.00  0.00    +0.000 A 
ATOM     30  C   UNL     1      -1.503  14.257  19.672  0.00  0.00    +0.000 A 
ATOM     31  C   UNL     1      -0.940  13.015  19.454  0.00  0.00    +0.000 A 
ATOM     32  O   UNL     1       0.365  13.158  19.073  0.00  0.00    +0.000 OA
ENDBRANCH  26  31
BRANCH  26  33
ATOM     33  C   UNL     1      -2.447  11.286  18.307  0.00  0.00    +0.000 C 
ATOM     34  C   UNL     1      -2.509   9.754  18.111  0.00  0.00    +0.000 C 
ATOM     35  C   UNL     1      -3.892  11.769  18.574  0.00  0.00    +0.000 C 
ATOM     36  C   UNL     1      -1.962  11.926  16.992  0.00  0.00    +0.000 C 
ENDBRANCH  26  33
ENDBRANCH   1  26
TORSDOF 6
ENDMDL
