MODEL 1
REMARK VINA RESULT:      -7.8      0.000      0.000
REMARK  Name = 
REMARK  7 active torsions:
REMARK  status: ('A' for Active; 'I' for Inactive)
REMARK    1  A    between atoms: C_1  and  C_2
REMARK    2  A    between atoms: C_2  and  N_3
REMARK    3  A    between atoms: N_3  and  C_4
REMARK    4  A    between atoms: N_7  and  C_8
REMARK    5  A    between atoms: C_12  and  N_13
REMARK    6  A    between atoms: C_14  and  C_16
REMARK    7  A    between atoms: C_21  and  O_22
REMARK                            x       y       z     vdW  Elec       q    Type
REMARK                         _______ _______ _______ _____ _____    ______ ____
ROOT
ATOM      1  C   UNL     1       2.137   5.504  20.332  0.00  0.00    +0.000 A 
ATOM      2  C   UNL     1       1.855   4.291  20.962  0.00  0.00    +0.000 A 
ATOM      3  C   UNL     1       2.330   3.093  20.442  0.00  0.00    +0.000 A 
ATOM      4  C   UNL     1       3.071   3.093  19.266  0.00  0.00    +0.000 A 
ATOM      5  C   UNL     1       3.332   4.282  18.580  0.00  0.00    +0.000 A 
ATOM      6  C   UNL     1       2.868   5.494  19.128  0.00  0.00    +0.000 A 
ENDROOT
BRANCH   1  11
ATOM      7  N   UNL     1       1.184   9.036  20.877  0.00  0.00    +0.000 N 
ATOM      8  C   UNL     1       1.157   9.102  22.329  0.00  0.00    +0.000 C 
ATOM      9  C   UNL     1       1.568   7.918  20.139  0.00  0.00    +0.000 C 
ATOM     10  O   UNL     1       1.741   8.006  18.924  0.00  0.00    +0.000 OA
ATOM     11  N   UNL     1       1.699   6.745  20.862  0.00  0.00    +0.000 N 
ATOM     12  H   UNL     1       1.229   6.712  21.750  0.00  0.00    +0.000 HD
BRANCH   7  14
ATOM     13  C   UNL     1      -0.484  10.486  19.722  0.00  0.00    +0.000 C 
ATOM     14  C   UNL     1       0.967  10.281  20.139  0.00  0.00    +0.000 C 
ENDBRANCH   7  14
ENDBRANCH   1  11
BRANCH   5  15
ATOM     15  N   UNL     1       4.067   4.309  17.366  0.00  0.00    +0.000 N 
ATOM     16  C   UNL     1       5.443   4.466  17.265  0.00  0.00    +0.000 C 
ATOM     17  O   UNL     1       6.223   4.502  18.213  0.00  0.00    +0.000 OA
ATOM     18  H   UNL     1       3.553   4.163  16.504  0.00  0.00    +0.000 HD
BRANCH  16  19
ATOM     19  C   UNL     1       6.046   4.564  15.909  0.00  0.00    +0.000 A 
ATOM     20  C   UNL     1       5.552   3.717  14.905  0.00  0.00    +0.000 A 
ATOM     21  C   UNL     1       6.088   3.761  13.620  0.00  0.00    +0.000 A 
ATOM     22  C   UNL     1       7.115   4.654  13.375  0.00  0.00    +0.000 A 
ATOM     23  N   UNL     1       7.624   5.489  14.312  0.00  0.00    +0.000 NA
ATOM     24  C   UNL     1       7.074   5.416  15.542  0.00  0.00    +0.000 A 
BRANCH  24  25
ATOM     25  O   UNL     1       7.653   6.287  16.406  0.00  0.00    +0.000 OA
ATOM     26  H   UNL     1       8.418   6.557  15.858  0.00  0.00    +0.000 HD
ENDBRANCH  24  25
ENDBRANCH  16  19
ENDBRANCH   5  15
TORSDOF 5
ENDMDL
MODEL 2
REMARK VINA RESULT:      -7.5      1.548      7.719
REMARK  Name = 
REMARK  7 active torsions:
REMARK  status: ('A' for Active; 'I' for Inactive)
REMARK    1  A    between atoms: C_1  and  C_2
REMARK    2  A    between atoms: C_2  and  N_3
REMARK    3  A    between atoms: N_3  and  C_4
REMARK    4  A    between atoms: N_7  and  C_8
REMARK    5  A    between atoms: C_12  and  N_13
REMARK    6  A    between atoms: C_14  and  C_16
REMARK    7  A    between atoms: C_21  and  O_22
REMARK                            x       y       z     vdW  Elec       q    Type
REMARK                         _______ _______ _______ _____ _____    ______ ____
ROOT
ATOM      1  C   UNL     1       4.045   4.449  19.316  0.00  0.00    +0.000 A 
ATOM      2  C   UNL     1       3.671   3.244  19.914  0.00  0.00    +0.000 A 
ATOM      3  C   UNL     1       2.594   3.190  20.790  0.00  0.00    +0.000 A 
ATOM      4  C   UNL     1       1.895   4.349  21.102  0.00  0.00    +0.000 A 
ATOM      5  C   UNL     1       2.270   5.583  20.562  0.00  0.00    +0.000 A 
ATOM      6  C   UNL     1       3.347   5.624  19.656  0.00  0.00    +0.000 A 
ENDROOT
BRANCH   1  11
ATOM      7  N   UNL     1       6.237   4.243  16.345  0.00  0.00    +0.000 N 
ATOM      8  C   UNL     1       7.543   4.475  16.938  0.00  0.00    +0.000 C 
ATOM      9  C   UNL     1       5.045   4.143  17.059  0.00  0.00    +0.000 C 
ATOM     10  O   UNL     1       4.017   3.762  16.501  0.00  0.00    +0.000 OA
ATOM     11  N   UNL     1       5.115   4.526  18.388  0.00  0.00    +0.000 N 
ATOM     12  H   UNL     1       5.889   5.114  18.644  0.00  0.00    +0.000 HD
BRANCH   7  14
ATOM     13  C   UNL     1       7.052   4.833  14.062  0.00  0.00    +0.000 C 
ATOM     14  C   UNL     1       6.190   3.914  14.919  0.00  0.00    +0.000 C 
ENDBRANCH   7  14
ENDBRANCH   1  11
BRANCH   5  15
ATOM     15  N   UNL     1       1.587   6.786  20.880  0.00  0.00    +0.000 N 
ATOM     16  C   UNL     1       1.578   7.934  20.098  0.00  0.00    +0.000 C 
ATOM     17  O   UNL     1       2.076   8.032  18.978  0.00  0.00    +0.000 OA
ATOM     18  H   UNL     1       1.028   6.799  21.727  0.00  0.00    +0.000 HD
BRANCH  16  19
ATOM     19  C   UNL     1       0.887   9.141  20.622  0.00  0.00    +0.000 A 
ATOM     20  C   UNL     1      -0.018   9.802  19.776  0.00  0.00    +0.000 A 
ATOM     21  C   UNL     1      -0.684  10.944  20.214  0.00  0.00    +0.000 A 
ATOM     22  C   UNL     1      -0.422  11.400  21.492  0.00  0.00    +0.000 A 
ATOM     23  N   UNL     1       0.443  10.797  22.342  0.00  0.00    +0.000 NA
ATOM     24  C   UNL     1       1.066   9.693  21.880  0.00  0.00    +0.000 A 
BRANCH  24  25
ATOM     25  O   UNL     1       1.909   9.166  22.801  0.00  0.00    +0.000 OA
ATOM     26  H   UNL     1       1.642   8.226  22.733  0.00  0.00    +0.000 HD
ENDBRANCH  24  25
ENDBRANCH  16  19
ENDBRANCH   5  15
TORSDOF 5
ENDMDL
MODEL 3
REMARK VINA RESULT:      -7.5      1.587      7.762
REMARK  Name = 
REMARK  7 active torsions:
REMARK  status: ('A' for Active; 'I' for Inactive)
REMARK    1  A    between atoms: C_1  and  C_2
REMARK    2  A    between atoms: C_2  and  N_3
REMARK    3  A    between atoms: N_3  and  C_4
REMARK    4  A    between atoms: N_7  and  C_8
REMARK    5  A    between atoms: C_12  and  N_13
REMARK    6  A    between atoms: C_14  and  C_16
REMARK    7  A    between atoms: C_21  and  O_22
REMARK                            x       y       z     vdW  Elec       q    Type
REMARK                         _______ _______ _______ _____ _____    ______ ____
ROOT
ATOM      1  C   UNL     1       4.000   4.295  19.410  0.00  0.00    +0.000 A 
ATOM      2  C   UNL     1       3.667   3.061  19.971  0.00  0.00    +0.000 A 
ATOM      3  C   UNL     1       2.597   2.944  20.850  0.00  0.00    +0.000 A 
ATOM      4  C   UNL     1       1.864   4.070  21.202  0.00  0.00    +0.000 A 
ATOM      5  C   UNL     1       2.196   5.332  20.700  0.00  0.00    +0.000 A 
ATOM      6  C   UNL     1       3.266   5.436  19.790  0.00  0.00    +0.000 A 
ENDROOT
BRANCH   1  11
ATOM      7  N   UNL     1       6.181   4.250  16.425  0.00  0.00    +0.000 N 
ATOM      8  C   UNL     1       7.482   4.509  17.019  0.00  0.00    +0.000 C 
ATOM      9  C   UNL     1       4.997   4.088  17.141  0.00  0.00    +0.000 C 
ATOM     10  O   UNL     1       3.980   3.688  16.577  0.00  0.00    +0.000 OA
ATOM     11  N   UNL     1       5.061   4.436  18.480  0.00  0.00    +0.000 N 
ATOM     12  H   UNL     1       5.816   5.042  18.749  0.00  0.00    +0.000 HD
BRANCH   7  14
ATOM     13  C   UNL     1       7.034   4.876  14.166  0.00  0.00    +0.000 C 
ATOM     14  C   UNL     1       6.139   3.961  14.991  0.00  0.00    +0.000 C 
ENDBRANCH   7  14
ENDBRANCH   1  11
BRANCH   5  15
ATOM     15  N   UNL     1       1.478   6.502  21.059  0.00  0.00    +0.000 N 
ATOM     16  C   UNL     1       1.550   7.722  20.399  0.00  0.00    +0.000 C 
ATOM     17  O   UNL     1       2.166   7.927  19.356  0.00  0.00    +0.000 OA
ATOM     18  H   UNL     1       0.829   6.434  21.836  0.00  0.00    +0.000 HD
BRANCH  16  19
ATOM     19  C   UNL     1       0.800   8.876  20.961  0.00  0.00    +0.000 A 
ATOM     20  C   UNL     1       0.548   8.889  22.342  0.00  0.00    +0.000 A 
ATOM     21  C   UNL     1      -0.160   9.941  22.918  0.00  0.00    +0.000 A 
ATOM     22  C   UNL     1      -0.603  10.956  22.091  0.00  0.00    +0.000 A 
ATOM     23  N   UNL     1      -0.385  10.985  20.756  0.00  0.00    +0.000 NA
ATOM     24  C   UNL     1       0.306   9.948  20.238  0.00  0.00    +0.000 A 
BRANCH  24  25
ATOM     25  O   UNL     1       0.469  10.069  18.897  0.00  0.00    +0.000 OA
ATOM     26  H   UNL     1       0.129  10.981  18.785  0.00  0.00    +0.000 HD
ENDBRANCH  24  25
ENDBRANCH  16  19
ENDBRANCH   5  15
TORSDOF 5
ENDMDL
MODEL 4
REMARK VINA RESULT:      -7.5      1.346      1.825
REMARK  Name = 
REMARK  7 active torsions:
REMARK  status: ('A' for Active; 'I' for Inactive)
REMARK    1  A    between atoms: C_1  and  C_2
REMARK    2  A    between atoms: C_2  and  N_3
REMARK    3  A    between atoms: N_3  and  C_4
REMARK    4  A    between atoms: N_7  and  C_8
REMARK    5  A    between atoms: C_12  and  N_13
REMARK    6  A    between atoms: C_14  and  C_16
REMARK    7  A    between atoms: C_21  and  O_22
REMARK                            x       y       z     vdW  Elec       q    Type
REMARK                         _______ _______ _______ _____ _____    ______ ____
ROOT
ATOM      1  C   UNL     1       1.711   7.658  20.035  0.00  0.00    +0.000 A 
ATOM      2  C   UNL     1       1.286   6.660  20.914  0.00  0.00    +0.000 A 
ATOM      3  C   UNL     1       1.687   5.341  20.739  0.00  0.00    +0.000 A 
ATOM      4  C   UNL     1       2.496   4.999  19.662  0.00  0.00    +0.000 A 
ATOM      5  C   UNL     1       2.901   5.962  18.733  0.00  0.00    +0.000 A 
ATOM      6  C   UNL     1       2.511   7.300  18.933  0.00  0.00    +0.000 A 
ENDROOT
BRANCH   1  11
ATOM      7  N   UNL     1       0.636  11.170  19.602  0.00  0.00    +0.000 N 
ATOM      8  C   UNL     1       1.091  11.762  20.849  0.00  0.00    +0.000 C 
ATOM      9  C   UNL     1       0.864   9.850  19.219  0.00  0.00    +0.000 C 
ATOM     10  O   UNL     1       0.609   9.483  18.073  0.00  0.00    +0.000 OA
ATOM     11  N   UNL     1       1.350   9.019  20.214  0.00  0.00    +0.000 N 
ATOM     12  H   UNL     1       1.211   9.325  21.161  0.00  0.00    +0.000 HD
BRANCH   7  14
ATOM     13  C   UNL     1      -1.436  12.301  18.796  0.00  0.00    +0.000 C 
ATOM     14  C   UNL     1       0.057  12.066  18.600  0.00  0.00    +0.000 C 
ENDBRANCH   7  14
ENDBRANCH   1  11
BRANCH   5  15
ATOM     15  N   UNL     1       3.709   5.638  17.612  0.00  0.00    +0.000 N 
ATOM     16  C   UNL     1       5.081   5.423  17.648  0.00  0.00    +0.000 C 
ATOM     17  O   UNL     1       5.766   5.385  18.668  0.00  0.00    +0.000 OA
ATOM     18  H   UNL     1       3.244   5.514  16.719  0.00  0.00    +0.000 HD
BRANCH  16  19
ATOM     19  C   UNL     1       5.792   5.182  16.365  0.00  0.00    +0.000 A 
ATOM     20  C   UNL     1       5.248   4.243  15.475  0.00  0.00    +0.000 A 
ATOM     21  C   UNL     1       5.880   3.971  14.264  0.00  0.00    +0.000 A 
ATOM     22  C   UNL     1       7.051   4.647  13.977  0.00  0.00    +0.000 A 
ATOM     23  N   UNL     1       7.614   5.560  14.804  0.00  0.00    +0.000 NA
ATOM     24  C   UNL     1       6.968   5.795  15.965  0.00  0.00    +0.000 A 
BRANCH  24  25
ATOM     25  O   UNL     1       7.610   6.719  16.722  0.00  0.00    +0.000 OA
ATOM     26  H   UNL     1       8.071   7.206  16.008  0.00  0.00    +0.000 HD
ENDBRANCH  24  25
ENDBRANCH  16  19
ENDBRANCH   5  15
TORSDOF 5
ENDMDL
MODEL 5
REMARK VINA RESULT:      -7.4      1.438      1.784
REMARK  Name = 
REMARK  7 active torsions:
REMARK  status: ('A' for Active; 'I' for Inactive)
REMARK    1  A    between atoms: C_1  and  C_2
REMARK    2  A    between atoms: C_2  and  N_3
REMARK    3  A    between atoms: N_3  and  C_4
REMARK    4  A    between atoms: N_7  and  C_8
REMARK    5  A    between atoms: C_12  and  N_13
REMARK    6  A    between atoms: C_14  and  C_16
REMARK    7  A    between atoms: C_21  and  O_22
REMARK                            x       y       z     vdW  Elec       q    Type
REMARK                         _______ _______ _______ _____ _____    ______ ____
ROOT
ATOM      1  C   UNL     1       1.773   7.265  20.216  0.00  0.00    +0.000 A 
ATOM      2  C   UNL     1       1.260   6.217  20.983  0.00  0.00    +0.000 A 
ATOM      3  C   UNL     1       1.576   4.897  20.684  0.00  0.00    +0.000 A 
ATOM      4  C   UNL     1       2.388   4.608  19.594  0.00  0.00    +0.000 A 
ATOM      5  C   UNL     1       2.881   5.627  18.773  0.00  0.00    +0.000 A 
ATOM      6  C   UNL     1       2.576   6.963  19.099  0.00  0.00    +0.000 A 
ENDROOT
BRANCH   1  11
ATOM      7  N   UNL     1       0.282  10.460  21.332  0.00  0.00    +0.000 N 
ATOM      8  C   UNL     1       1.109  11.422  20.624  0.00  0.00    +0.000 C 
ATOM      9  C   UNL     1       0.380   9.076  21.199  0.00  0.00    +0.000 C 
ATOM     10  O   UNL     1      -0.478   8.343  21.689  0.00  0.00    +0.000 OA
ATOM     11  N   UNL     1       1.499   8.623  20.522  0.00  0.00    +0.000 N 
ATOM     12  H   UNL     1       2.273   9.261  20.459  0.00  0.00    +0.000 HD
BRANCH   7  14
ATOM     13  C   UNL     1      -1.106  12.461  21.870  0.00  0.00    +0.000 C 
ATOM     14  C   UNL     1      -0.850  10.977  22.102  0.00  0.00    +0.000 C 
ENDBRANCH   7  14
ENDBRANCH   1  11
BRANCH   5  15
ATOM     15  N   UNL     1       3.694   5.360  17.641  0.00  0.00    +0.000 N 
ATOM     16  C   UNL     1       5.082   5.391  17.626  0.00  0.00    +0.000 C 
ATOM     17  O   UNL     1       5.798   5.555  18.611  0.00  0.00    +0.000 OA
ATOM     18  H   UNL     1       3.227   5.085  16.783  0.00  0.00    +0.000 HD
BRANCH  16  19
ATOM     19  C   UNL     1       5.780   5.175  16.331  0.00  0.00    +0.000 A 
ATOM     20  C   UNL     1       5.200   4.290  15.409  0.00  0.00    +0.000 A 
ATOM     21  C   UNL     1       5.818   4.044  14.185  0.00  0.00    +0.000 A 
ATOM     22  C   UNL     1       7.011   4.691  13.918  0.00  0.00    +0.000 A 
ATOM     23  N   UNL     1       7.607   5.551  14.776  0.00  0.00    +0.000 NA
ATOM     24  C   UNL     1       6.974   5.763  15.949  0.00  0.00    +0.000 A 
BRANCH  24  25
ATOM     25  O   UNL     1       7.651   6.635  16.737  0.00  0.00    +0.000 OA
ATOM     26  H   UNL     1       7.896   7.295  16.056  0.00  0.00    +0.000 HD
ENDBRANCH  24  25
ENDBRANCH  16  19
ENDBRANCH   5  15
TORSDOF 5
ENDMDL
MODEL 6
REMARK VINA RESULT:      -7.2      2.437      8.045
REMARK  Name = 
REMARK  7 active torsions:
REMARK  status: ('A' for Active; 'I' for Inactive)
REMARK    1  A    between atoms: C_1  and  C_2
REMARK    2  A    between atoms: C_2  and  N_3
REMARK    3  A    between atoms: N_3  and  C_4
REMARK    4  A    between atoms: N_7  and  C_8
REMARK    5  A    between atoms: C_12  and  N_13
REMARK    6  A    between atoms: C_14  and  C_16
REMARK    7  A    between atoms: C_21  and  O_22
REMARK                            x       y       z     vdW  Elec       q    Type
REMARK                         _______ _______ _______ _____ _____    ______ ____
ROOT
ATOM      1  C   UNL     1       6.626   5.240  15.859  0.00  0.00    +0.000 A 
ATOM      2  C   UNL     1       7.524   4.705  16.785  0.00  0.00    +0.000 A 
ATOM      3  C   UNL     1       7.393   4.975  18.141  0.00  0.00    +0.000 A 
ATOM      4  C   UNL     1       6.375   5.810  18.587  0.00  0.00    +0.000 A 
ATOM      5  C   UNL     1       5.486   6.404  17.686  0.00  0.00    +0.000 A 
ATOM      6  C   UNL     1       5.611   6.104  16.316  0.00  0.00    +0.000 A 
ENDROOT
BRANCH   1  11
ATOM      7  N   UNL     1       6.342   3.766  12.480  0.00  0.00    +0.000 N 
ATOM      8  C   UNL     1       7.414   4.454  11.779  0.00  0.00    +0.000 C 
ATOM      9  C   UNL     1       6.061   3.907  13.838  0.00  0.00    +0.000 C 
ATOM     10  O   UNL     1       5.261   3.151  14.387  0.00  0.00    +0.000 OA
ATOM     11  N   UNL     1       6.713   4.949  14.474  0.00  0.00    +0.000 N 
ATOM     12  H   UNL     1       7.070   5.680  13.884  0.00  0.00    +0.000 HD
BRANCH   7  14
ATOM     13  C   UNL     1       4.263   3.175  11.236  0.00  0.00    +0.000 C 
ATOM     14  C   UNL     1       5.622   2.720  11.754  0.00  0.00    +0.000 C 
ENDBRANCH   7  14
ENDBRANCH   1  11
BRANCH   5  15
ATOM     15  N   UNL     1       4.451   7.277  18.111  0.00  0.00    +0.000 N 
ATOM     16  C   UNL     1       3.182   6.881  18.513  0.00  0.00    +0.000 C 
ATOM     17  O   UNL     1       2.814   5.717  18.652  0.00  0.00    +0.000 OA
ATOM     18  H   UNL     1       4.665   8.267  18.163  0.00  0.00    +0.000 HD
BRANCH  16  19
ATOM     19  C   UNL     1       2.184   7.933  18.841  0.00  0.00    +0.000 A 
ATOM     20  C   UNL     1       1.774   8.797  17.813  0.00  0.00    +0.000 A 
ATOM     21  C   UNL     1       0.850   9.806  18.069  0.00  0.00    +0.000 A 
ATOM     22  C   UNL     1       0.360   9.928  19.356  0.00  0.00    +0.000 A 
ATOM     23  N   UNL     1       0.725   9.119  20.378  0.00  0.00    +0.000 NA
ATOM     24  C   UNL     1       1.622   8.153  20.087  0.00  0.00    +0.000 A 
BRANCH  24  25
ATOM     25  O   UNL     1       1.924   7.401  21.175  0.00  0.00    +0.000 OA
ATOM     26  H   UNL     1       1.577   7.996  21.871  0.00  0.00    +0.000 HD
ENDBRANCH  24  25
ENDBRANCH  16  19
ENDBRANCH   5  15
TORSDOF 5
ENDMDL
MODEL 7
REMARK VINA RESULT:      -7.2      2.050      8.135
REMARK  Name = 
REMARK  7 active torsions:
REMARK  status: ('A' for Active; 'I' for Inactive)
REMARK    1  A    between atoms: C_1  and  C_2
REMARK    2  A    between atoms: C_2  and  N_3
REMARK    3  A    between atoms: N_3  and  C_4
REMARK    4  A    between atoms: N_7  and  C_8
REMARK    5  A    between atoms: C_12  and  N_13
REMARK    6  A    between atoms: C_14  and  C_16
REMARK    7  A    between atoms: C_21  and  O_22
REMARK                            x       y       z     vdW  Elec       q    Type
REMARK                         _______ _______ _______ _____ _____    ______ ____
ROOT
ATOM      1  C   UNL     1       3.792   5.229  19.336  0.00  0.00    +0.000 A 
ATOM      2  C   UNL     1       3.324   4.201  20.157  0.00  0.00    +0.000 A 
ATOM      3  C   UNL     1       2.180   4.372  20.926  0.00  0.00    +0.000 A 
ATOM      4  C   UNL     1       1.504   5.586  20.905  0.00  0.00    +0.000 A 
ATOM      5  C   UNL     1       1.969   6.654  20.133  0.00  0.00    +0.000 A 
ATOM      6  C   UNL     1       3.115   6.464  19.337  0.00  0.00    +0.000 A 
ENDROOT
BRANCH   1  11
ATOM      7  N   UNL     1       6.183   4.369  16.649  0.00  0.00    +0.000 N 
ATOM      8  C   UNL     1       7.454   4.588  17.319  0.00  0.00    +0.000 C 
ATOM      9  C   UNL     1       4.934   4.482  17.256  0.00  0.00    +0.000 C 
ATOM     10  O   UNL     1       3.922   4.099  16.670  0.00  0.00    +0.000 OA
ATOM     11  N   UNL     1       4.934   5.068  18.510  0.00  0.00    +0.000 N 
ATOM     12  H   UNL     1       5.737   5.626  18.743  0.00  0.00    +0.000 HD
BRANCH   7  14
ATOM     13  C   UNL     1       6.873   4.752  14.282  0.00  0.00    +0.000 C 
ATOM     14  C   UNL     1       6.219   3.819  15.293  0.00  0.00    +0.000 C 
ENDBRANCH   7  14
ENDBRANCH   1  11
BRANCH   5  15
ATOM     15  N   UNL     1       1.311   7.912  20.108  0.00  0.00    +0.000 N 
ATOM     16  C   UNL     1       1.219   8.790  21.180  0.00  0.00    +0.000 C 
ATOM     17  O   UNL     1       1.778   8.644  22.265  0.00  0.00    +0.000 OA
ATOM     18  H   UNL     1       0.910   8.214  19.227  0.00  0.00    +0.000 HD
BRANCH  16  19
ATOM     19  C   UNL     1       0.414  10.028  21.013  0.00  0.00    +0.000 A 
ATOM     20  C   UNL     1       0.265  10.548  19.717  0.00  0.00    +0.000 A 
ATOM     21  C   UNL     1      -0.470  11.712  19.506  0.00  0.00    +0.000 A 
ATOM     22  C   UNL     1      -1.037  12.331  20.605  0.00  0.00    +0.000 A 
ATOM     23  N   UNL     1      -0.919  11.867  21.871  0.00  0.00    +0.000 NA
ATOM     24  C   UNL     1      -0.201  10.736  22.032  0.00  0.00    +0.000 A 
BRANCH  24  25
ATOM     25  O   UNL     1      -0.141  10.357  23.333  0.00  0.00    +0.000 OA
ATOM     26  H   UNL     1      -0.981  10.751  23.644  0.00  0.00    +0.000 HD
ENDBRANCH  24  25
ENDBRANCH  16  19
ENDBRANCH   5  15
TORSDOF 5
ENDMDL
MODEL 8
REMARK VINA RESULT:      -7.2      2.237      7.684
REMARK  Name = 
REMARK  7 active torsions:
REMARK  status: ('A' for Active; 'I' for Inactive)
REMARK    1  A    between atoms: C_1  and  C_2
REMARK    2  A    between atoms: C_2  and  N_3
REMARK    3  A    between atoms: N_3  and  C_4
REMARK    4  A    between atoms: N_7  and  C_8
REMARK    5  A    between atoms: C_12  and  N_13
REMARK    6  A    between atoms: C_14  and  C_16
REMARK    7  A    between atoms: C_21  and  O_22
REMARK                            x       y       z     vdW  Elec       q    Type
REMARK                         _______ _______ _______ _____ _____    ______ ____
ROOT
ATOM      1  C   UNL     1       3.761   4.751  19.518  0.00  0.00    +0.000 A 
ATOM      2  C   UNL     1       3.085   3.529  19.495  0.00  0.00    +0.000 A 
ATOM      3  C   UNL     1       1.779   3.431  19.957  0.00  0.00    +0.000 A 
ATOM      4  C   UNL     1       1.141   4.550  20.477  0.00  0.00    +0.000 A 
ATOM      5  C   UNL     1       1.801   5.780  20.562  0.00  0.00    +0.000 A 
ATOM      6  C   UNL     1       3.116   5.876  20.068  0.00  0.00    +0.000 A 
ENDROOT
BRANCH   1  11
ATOM      7  N   UNL     1       6.823   5.773  17.713  0.00  0.00    +0.000 N 
ATOM      8  C   UNL     1       7.688   4.629  17.951  0.00  0.00    +0.000 C 
ATOM      9  C   UNL     1       5.495   5.865  18.126  0.00  0.00    +0.000 C 
ATOM     10  O   UNL     1       4.782   6.784  17.723  0.00  0.00    +0.000 OA
ATOM     11  N   UNL     1       5.080   4.889  19.015  0.00  0.00    +0.000 N 
ATOM     12  H   UNL     1       5.804   4.404  19.517  0.00  0.00    +0.000 HD
BRANCH   7  14
ATOM     13  C   UNL     1       7.868   8.033  17.577  0.00  0.00    +0.000 C 
ATOM     14  C   UNL     1       7.321   6.825  16.827  0.00  0.00    +0.000 C 
ENDBRANCH   7  14
ENDBRANCH   1  11
BRANCH   5  15
ATOM     15  N   UNL     1       1.181   6.934  21.108  0.00  0.00    +0.000 N 
ATOM     16  C   UNL     1       1.198   8.200  20.535  0.00  0.00    +0.000 C 
ATOM     17  O   UNL     1       1.664   8.472  19.431  0.00  0.00    +0.000 OA
ATOM     18  H   UNL     1       0.649   6.820  21.964  0.00  0.00    +0.000 HD
BRANCH  16  19
ATOM     19  C   UNL     1       0.576   9.323  21.285  0.00  0.00    +0.000 A 
ATOM     20  C   UNL     1      -0.172   9.016  22.432  0.00  0.00    +0.000 A 
ATOM     21  C   UNL     1      -0.785  10.029  23.165  0.00  0.00    +0.000 A 
ATOM     22  C   UNL     1      -0.636  11.331  22.724  0.00  0.00    +0.000 A 
ATOM     23  N   UNL     1       0.074  11.674  21.624  0.00  0.00    +0.000 NA
ATOM     24  C   UNL     1       0.654  10.663  20.944  0.00  0.00    +0.000 A 
BRANCH  24  25
ATOM     25  O   UNL     1       1.338  11.109  19.861  0.00  0.00    +0.000 OA
ATOM     26  H   UNL     1       1.102  10.397  19.230  0.00  0.00    +0.000 HD
ENDBRANCH  24  25
ENDBRANCH  16  19
ENDBRANCH   5  15
TORSDOF 5
ENDMDL
MODEL 9
REMARK VINA RESULT:      -7.1      1.861      7.635
REMARK  Name = 
REMARK  7 active torsions:
REMARK  status: ('A' for Active; 'I' for Inactive)
REMARK    1  A    between atoms: C_1  and  C_2
REMARK    2  A    between atoms: C_2  and  N_3
REMARK    3  A    between atoms: N_3  and  C_4
REMARK    4  A    between atoms: N_7  and  C_8
REMARK    5  A    between atoms: C_12  and  N_13
REMARK    6  A    between atoms: C_14  and  C_16
REMARK    7  A    between atoms: C_21  and  O_22
REMARK                            x       y       z     vdW  Elec       q    Type
REMARK                         _______ _______ _______ _____ _____    ______ ____
ROOT
ATOM      1  C   UNL     1       3.797   5.356  19.212  0.00  0.00    +0.000 A 
ATOM      2  C   UNL     1       3.198   4.320  19.932  0.00  0.00    +0.000 A 
ATOM      3  C   UNL     1       2.047   4.544  20.677  0.00  0.00    +0.000 A 
ATOM      4  C   UNL     1       1.496   5.819  20.735  0.00  0.00    +0.000 A 
ATOM      5  C   UNL     1       2.094   6.892  20.068  0.00  0.00    +0.000 A 
ATOM      6  C   UNL     1       3.246   6.650  19.294  0.00  0.00    +0.000 A 
ENDROOT
BRANCH   1  11
ATOM      7  N   UNL     1       6.217   4.346  16.605  0.00  0.00    +0.000 N 
ATOM      8  C   UNL     1       7.480   4.589  17.280  0.00  0.00    +0.000 C 
ATOM      9  C   UNL     1       4.960   4.498  17.188  0.00  0.00    +0.000 C 
ATOM     10  O   UNL     1       3.953   4.093  16.609  0.00  0.00    +0.000 OA
ATOM     11  N   UNL     1       4.949   5.146  18.411  0.00  0.00    +0.000 N 
ATOM     12  H   UNL     1       5.753   5.709  18.627  0.00  0.00    +0.000 HD
BRANCH   7  14
ATOM     13  C   UNL     1       6.790   4.664  14.198  0.00  0.00    +0.000 C 
ATOM     14  C   UNL     1       6.266   3.727  15.279  0.00  0.00    +0.000 C 
ENDBRANCH   7  14
ENDBRANCH   1  11
BRANCH   5  15
ATOM     15  N   UNL     1       1.565   8.208  20.127  0.00  0.00    +0.000 N 
ATOM     16  C   UNL     1       1.354   9.037  19.033  0.00  0.00    +0.000 C 
ATOM     17  O   UNL     1       1.502   8.711  17.857  0.00  0.00    +0.000 OA
ATOM     18  H   UNL     1       1.281   8.559  21.035  0.00  0.00    +0.000 HD
BRANCH  16  19
ATOM     19  C   UNL     1       0.878  10.424  19.278  0.00  0.00    +0.000 A 
ATOM     20  C   UNL     1      -0.177  10.608  20.186  0.00  0.00    +0.000 A 
ATOM     21  C   UNL     1      -0.669  11.885  20.444  0.00  0.00    +0.000 A 
ATOM     22  C   UNL     1      -0.091  12.951  19.778  0.00  0.00    +0.000 A 
ATOM     23  N   UNL     1       0.926  12.821  18.895  0.00  0.00    +0.000 NA
ATOM     24  C   UNL     1       1.375  11.567  18.675  0.00  0.00    +0.000 A 
BRANCH  24  25
ATOM     25  O   UNL     1       2.389  11.544  17.775  0.00  0.00    +0.000 OA
ATOM     26  H   UNL     1       2.955  12.241  18.168  0.00  0.00    +0.000 HD
ENDBRANCH  24  25
ENDBRANCH  16  19
ENDBRANCH   5  15
TORSDOF 5
ENDMDL
