MODEL 1
REMARK VINA RESULT:      -7.4      0.000      0.000
REMARK  Name = 
REMARK  6 active torsions:
REMARK  status: ('A' for Active; 'I' for Inactive)
REMARK    1  A    between atoms: C_2  and  C_3
REMARK    2  A    between atoms: C_3  and  N_4
REMARK    3  A    between atoms: C_5  and  C_6
REMARK    4  A    between atoms: N_15  and  N_16
REMARK    5  A    between atoms: C_17  and  C_18
REMARK    6  A    between atoms: C_19  and  C_20
REMARK                            x       y       z     vdW  Elec       q    Type
REMARK                         _______ _______ _______ _____ _____    ______ ____
ROOT
ATOM      1  N   UNL     1       5.365   5.640  17.271  0.00  0.00    +0.000 N 
ATOM      2  C   UNL     1       4.949   4.812  18.327  0.00  0.00    +0.000 A 
ATOM      3  C   UNL     1       5.673   4.911  19.452  0.00  0.00    +0.000 A 
ATOM      4  S   UNL     1       6.972   6.052  19.279  0.00  0.00    +0.000 S 
ATOM      5  C   UNL     1       6.492   6.408  17.578  0.00  0.00    +0.000 A 
ATOM      6  N   UNL     1       7.123   7.241  16.800  0.00  0.00    +0.000 NA
ENDROOT
BRANCH   2   7
ATOM      7  C   UNL     1       3.795   3.916  18.250  0.00  0.00    +0.000 A 
ATOM      8  C   UNL     1       2.494   4.435  18.244  0.00  0.00    +0.000 A 
ATOM      9  C   UNL     1       1.389   3.586  18.195  0.00  0.00    +0.000 A 
ATOM     10  C   UNL     1       1.574   2.206  18.183  0.00  0.00    +0.000 A 
ATOM     11  C   UNL     1       2.864   1.675  18.214  0.00  0.00    +0.000 A 
ATOM     12  C   UNL     1       3.971   2.527  18.245  0.00  0.00    +0.000 A 
ENDBRANCH   2   7
BRANCH   6  13
ATOM     13  N   UNL     1       8.222   7.850  17.401  0.00  0.00    +0.000 NA
ATOM     14  C   UNL     1       7.989   9.068  17.768  0.00  0.00    +0.000 C 
BRANCH  14  15
ATOM     15  C   UNL     1       9.060   9.843  18.417  0.00  0.00    +0.000 C 
ATOM     16  C   UNL     1       9.201  11.162  18.223  0.00  0.00    +0.000 C 
BRANCH  16  17
ATOM     17  C   UNL     1      10.265  11.856  18.860  0.00  0.00    +0.000 A 
ATOM     18  C   UNL     1      10.231  13.049  19.574  0.00  0.00    +0.000 A 
ATOM     19  C   UNL     1      11.548  13.337  20.007  0.00  0.00    +0.000 A 
ATOM     20  C   UNL     1      12.330  12.312  19.540  0.00  0.00    +0.000 A 
ATOM     21  O   UNL     1      11.575  11.422  18.857  0.00  0.00    +0.000 OA
ENDBRANCH  16  17
ENDBRANCH  14  15
ENDBRANCH   6  13
BRANCH   1  22
ATOM     22  C   UNL     1       4.783   5.682  15.936  0.00  0.00    +0.000 C 
BRANCH  22  24
ATOM     23  C   UNL     1       6.397   4.644  14.308  0.00  0.00    +0.000 C 
ATOM     24  C   UNL     1       5.313   4.558  15.088  0.00  0.00    +0.000 C 
ENDBRANCH  22  24
ENDBRANCH   1  22
TORSDOF 6
ENDMDL
MODEL 2
REMARK VINA RESULT:      -7.0      0.868      1.302
REMARK  Name = 
REMARK  6 active torsions:
REMARK  status: ('A' for Active; 'I' for Inactive)
REMARK    1  A    between atoms: C_2  and  C_3
REMARK    2  A    between atoms: C_3  and  N_4
REMARK    3  A    between atoms: C_5  and  C_6
REMARK    4  A    between atoms: N_15  and  N_16
REMARK    5  A    between atoms: C_17  and  C_18
REMARK    6  A    between atoms: C_19  and  C_20
REMARK                            x       y       z     vdW  Elec       q    Type
REMARK                         _______ _______ _______ _____ _____    ______ ____
ROOT
ATOM      1  N   UNL     1       5.464   5.799  17.788  0.00  0.00    +0.000 N 
ATOM      2  C   UNL     1       5.381   4.816  18.787  0.00  0.00    +0.000 A 
ATOM      3  C   UNL     1       6.399   4.799  19.661  0.00  0.00    +0.000 A 
ATOM      4  S   UNL     1       7.579   6.020  19.291  0.00  0.00    +0.000 S 
ATOM      5  C   UNL     1       6.623   6.577  17.868  0.00  0.00    +0.000 A 
ATOM      6  N   UNL     1       6.992   7.539  17.071  0.00  0.00    +0.000 NA
ENDROOT
BRANCH   2   7
ATOM      7  C   UNL     1       4.264   3.879  18.915  0.00  0.00    +0.000 A 
ATOM      8  C   UNL     1       4.305   2.636  18.268  0.00  0.00    +0.000 A 
ATOM      9  C   UNL     1       3.234   1.748  18.367  0.00  0.00    +0.000 A 
ATOM     10  C   UNL     1       2.098   2.107  19.088  0.00  0.00    +0.000 A 
ATOM     11  C   UNL     1       2.035   3.351  19.716  0.00  0.00    +0.000 A 
ATOM     12  C   UNL     1       3.115   4.234  19.632  0.00  0.00    +0.000 A 
ENDBRANCH   2   7
BRANCH   6  13
ATOM     13  N   UNL     1       8.211   8.118  17.414  0.00  0.00    +0.000 NA
ATOM     14  C   UNL     1       8.086   9.302  17.918  0.00  0.00    +0.000 C 
BRANCH  14  15
ATOM     15  C   UNL     1       9.290  10.043  18.327  0.00  0.00    +0.000 C 
ATOM     16  C   UNL     1       9.307  11.381  18.418  0.00  0.00    +0.000 C 
BRANCH  16  17
ATOM     17  C   UNL     1      10.504  12.044  18.799  0.00  0.00    +0.000 A 
ATOM     18  C   UNL     1      11.208  11.966  19.996  0.00  0.00    +0.000 A 
ATOM     19  C   UNL     1      12.333  12.820  19.900  0.00  0.00    +0.000 A 
ATOM     20  C   UNL     1      12.270  13.384  18.651  0.00  0.00    +0.000 A 
ATOM     21  O   UNL     1      11.185  12.927  17.985  0.00  0.00    +0.000 OA
ENDBRANCH  16  17
ENDBRANCH  14  15
ENDBRANCH   6  13
BRANCH   1  22
ATOM     22  C   UNL     1       4.519   5.990  16.694  0.00  0.00    +0.000 C 
BRANCH  22  24
ATOM     23  C   UNL     1       5.451   4.226  15.162  0.00  0.00    +0.000 C 
ATOM     24  C   UNL     1       5.098   5.495  15.397  0.00  0.00    +0.000 C 
ENDBRANCH  22  24
ENDBRANCH   1  22
TORSDOF 6
ENDMDL
MODEL 3
REMARK VINA RESULT:      -6.9      1.900      2.753
REMARK  Name = 
REMARK  6 active torsions:
REMARK  status: ('A' for Active; 'I' for Inactive)
REMARK    1  A    between atoms: C_2  and  C_3
REMARK    2  A    between atoms: C_3  and  N_4
REMARK    3  A    between atoms: C_5  and  C_6
REMARK    4  A    between atoms: N_15  and  N_16
REMARK    5  A    between atoms: C_17  and  C_18
REMARK    6  A    between atoms: C_19  and  C_20
REMARK                            x       y       z     vdW  Elec       q    Type
REMARK                         _______ _______ _______ _____ _____    ______ ____
ROOT
ATOM      1  N   UNL     1       4.573   5.147  18.072  0.00  0.00    +0.000 N 
ATOM      2  C   UNL     1       3.234   5.461  18.354  0.00  0.00    +0.000 A 
ATOM      3  C   UNL     1       2.893   6.744  18.159  0.00  0.00    +0.000 A 
ATOM      4  S   UNL     1       4.246   7.689  17.615  0.00  0.00    +0.000 S 
ATOM      5  C   UNL     1       5.328   6.248  17.658  0.00  0.00    +0.000 A 
ATOM      6  N   UNL     1       6.595   6.276  17.356  0.00  0.00    +0.000 NA
ENDROOT
BRANCH   2   7
ATOM      7  C   UNL     1       2.246   4.480  18.803  0.00  0.00    +0.000 A 
ATOM      8  C   UNL     1       1.811   3.466  17.939  0.00  0.00    +0.000 A 
ATOM      9  C   UNL     1       0.852   2.542  18.352  0.00  0.00    +0.000 A 
ATOM     10  C   UNL     1       0.295   2.641  19.625  0.00  0.00    +0.000 A 
ATOM     11  C   UNL     1       0.702   3.660  20.487  0.00  0.00    +0.000 A 
ATOM     12  C   UNL     1       1.676   4.575  20.079  0.00  0.00    +0.000 A 
ENDBRANCH   2   7
BRANCH   6  13
ATOM     13  N   UNL     1       7.058   7.537  16.986  0.00  0.00    +0.000 NA
ATOM     14  C   UNL     1       7.840   8.069  17.867  0.00  0.00    +0.000 C 
BRANCH  14  15
ATOM     15  C   UNL     1       8.406   9.404  17.616  0.00  0.00    +0.000 C 
ATOM     16  C   UNL     1       8.953  10.141  18.594  0.00  0.00    +0.000 C 
BRANCH  16  17
ATOM     17  C   UNL     1       9.466  11.432  18.298  0.00  0.00    +0.000 A 
ATOM     18  C   UNL     1      10.655  11.780  17.666  0.00  0.00    +0.000 A 
ATOM     19  C   UNL     1      10.725  13.193  17.611  0.00  0.00    +0.000 A 
ATOM     20  C   UNL     1       9.580  13.649  18.211  0.00  0.00    +0.000 A 
ATOM     21  O   UNL     1       8.820  12.607  18.622  0.00  0.00    +0.000 OA
ENDBRANCH  16  17
ENDBRANCH  14  15
ENDBRANCH   6  13
BRANCH   1  22
ATOM     22  C   UNL     1       5.203   3.844  18.251  0.00  0.00    +0.000 C 
BRANCH  22  24
ATOM     23  C   UNL     1       4.528   2.220  20.051  0.00  0.00    +0.000 C 
ATOM     24  C   UNL     1       5.074   3.383  19.677  0.00  0.00    +0.000 C 
ENDBRANCH  22  24
ENDBRANCH   1  22
TORSDOF 6
ENDMDL
MODEL 4
REMARK VINA RESULT:      -6.9      6.932      8.748
REMARK  Name = 
REMARK  6 active torsions:
REMARK  status: ('A' for Active; 'I' for Inactive)
REMARK    1  A    between atoms: C_2  and  C_3
REMARK    2  A    between atoms: C_3  and  N_4
REMARK    3  A    between atoms: C_5  and  C_6
REMARK    4  A    between atoms: N_15  and  N_16
REMARK    5  A    between atoms: C_17  and  C_18
REMARK    6  A    between atoms: C_19  and  C_20
REMARK                            x       y       z     vdW  Elec       q    Type
REMARK                         _______ _______ _______ _____ _____    ______ ____
ROOT
ATOM      1  N   UNL     1       2.377   6.863  19.664  0.00  0.00    +0.000 N 
ATOM      2  C   UNL     1       2.815   7.103  18.351  0.00  0.00    +0.000 A 
ATOM      3  C   UNL     1       2.455   8.288  17.834  0.00  0.00    +0.000 A 
ATOM      4  S   UNL     1       1.504   9.212  18.957  0.00  0.00    +0.000 S 
ATOM      5  C   UNL     1       1.610   7.905  20.194  0.00  0.00    +0.000 A 
ATOM      6  N   UNL     1       1.045   7.960  21.366  0.00  0.00    +0.000 NA
ENDROOT
BRANCH   2   7
ATOM      7  C   UNL     1       3.633   6.163  17.582  0.00  0.00    +0.000 A 
ATOM      8  C   UNL     1       4.732   6.621  16.843  0.00  0.00    +0.000 A 
ATOM      9  C   UNL     1       5.501   5.735  16.090  0.00  0.00    +0.000 A 
ATOM     10  C   UNL     1       5.160   4.386  16.043  0.00  0.00    +0.000 A 
ATOM     11  C   UNL     1       4.053   3.921  16.755  0.00  0.00    +0.000 A 
ATOM     12  C   UNL     1       3.293   4.806  17.524  0.00  0.00    +0.000 A 
ENDBRANCH   2   7
BRANCH   6  13
ATOM     13  N   UNL     1       0.337   9.137  21.594  0.00  0.00    +0.000 NA
ATOM     14  C   UNL     1      -0.064   9.260  22.817  0.00  0.00    +0.000 C 
BRANCH  14  15
ATOM     15  C   UNL     1      -0.829  10.454  23.210  0.00  0.00    +0.000 C 
ATOM     16  C   UNL     1      -1.155  11.412  22.330  0.00  0.00    +0.000 C 
BRANCH  16  17
ATOM     17  C   UNL     1      -1.879  12.553  22.770  0.00  0.00    +0.000 A 
ATOM     18  C   UNL     1      -3.205  12.897  22.529  0.00  0.00    +0.000 A 
ATOM     19  C   UNL     1      -3.461  14.133  23.173  0.00  0.00    +0.000 A 
ATOM     20  C   UNL     1      -2.284  14.491  23.778  0.00  0.00    +0.000 A 
ATOM     21  O   UNL     1      -1.335  13.555  23.547  0.00  0.00    +0.000 OA
ENDBRANCH  16  17
ENDBRANCH  14  15
ENDBRANCH   6  13
BRANCH   1  22
ATOM     22  C   UNL     1       2.589   5.639  20.426  0.00  0.00    +0.000 C 
BRANCH  22  24
ATOM     23  C   UNL     1       1.290   3.528  20.861  0.00  0.00    +0.000 C 
ATOM     24  C   UNL     1       1.342   4.798  20.441  0.00  0.00    +0.000 C 
ENDBRANCH  22  24
ENDBRANCH   1  22
TORSDOF 6
ENDMDL
MODEL 5
REMARK VINA RESULT:      -6.9      6.998      8.694
REMARK  Name = 
REMARK  6 active torsions:
REMARK  status: ('A' for Active; 'I' for Inactive)
REMARK    1  A    between atoms: C_2  and  C_3
REMARK    2  A    between atoms: C_3  and  N_4
REMARK    3  A    between atoms: C_5  and  C_6
REMARK    4  A    between atoms: N_15  and  N_16
REMARK    5  A    between atoms: C_17  and  C_18
REMARK    6  A    between atoms: C_19  and  C_20
REMARK                            x       y       z     vdW  Elec       q    Type
REMARK                         _______ _______ _______ _____ _____    ______ ____
ROOT
ATOM      1  N   UNL     1       2.325   6.884  19.754  0.00  0.00    +0.000 N 
ATOM      2  C   UNL     1       2.766   7.077  18.435  0.00  0.00    +0.000 A 
ATOM      3  C   UNL     1       2.401   8.240  17.872  0.00  0.00    +0.000 A 
ATOM      4  S   UNL     1       1.440   9.199  18.956  0.00  0.00    +0.000 S 
ATOM      5  C   UNL     1       1.550   7.940  20.241  0.00  0.00    +0.000 A 
ATOM      6  N   UNL     1       0.979   8.036  21.409  0.00  0.00    +0.000 NA
ENDROOT
BRANCH   2   7
ATOM      7  C   UNL     1       3.593   6.115  17.705  0.00  0.00    +0.000 A 
ATOM      8  C   UNL     1       3.169   4.788  17.554  0.00  0.00    +0.000 A 
ATOM      9  C   UNL     1       3.962   3.860  16.880  0.00  0.00    +0.000 A 
ATOM     10  C   UNL     1       5.203   4.243  16.376  0.00  0.00    +0.000 A 
ATOM     11  C   UNL     1       5.647   5.556  16.540  0.00  0.00    +0.000 A 
ATOM     12  C   UNL     1       4.844   6.490  17.200  0.00  0.00    +0.000 A 
ENDBRANCH   2   7
BRANCH   6  13
ATOM     13  N   UNL     1       0.263   9.217  21.590  0.00  0.00    +0.000 NA
ATOM     14  C   UNL     1      -0.264   9.315  22.766  0.00  0.00    +0.000 C 
BRANCH  14  15
ATOM     15  C   UNL     1      -1.056  10.509  23.105  0.00  0.00    +0.000 C 
ATOM     16  C   UNL     1      -0.742  11.727  22.641  0.00  0.00    +0.000 C 
BRANCH  16  17
ATOM     17  C   UNL     1      -1.530  12.847  23.017  0.00  0.00    +0.000 A 
ATOM     18  C   UNL     1      -2.802  12.875  23.580  0.00  0.00    +0.000 A 
ATOM     19  C   UNL     1      -3.169  14.231  23.766  0.00  0.00    +0.000 A 
ATOM     20  C   UNL     1      -2.109  14.972  23.309  0.00  0.00    +0.000 A 
ATOM     21  O   UNL     1      -1.126  14.157  22.862  0.00  0.00    +0.000 OA
ENDBRANCH  16  17
ENDBRANCH  14  15
ENDBRANCH   6  13
BRANCH   1  22
ATOM     22  C   UNL     1       2.542   5.691  20.563  0.00  0.00    +0.000 C 
BRANCH  22  24
ATOM     23  C   UNL     1       1.340   3.496  20.819  0.00  0.00    +0.000 C 
ATOM     24  C   UNL     1       1.327   4.805  20.540  0.00  0.00    +0.000 C 
ENDBRANCH  22  24
ENDBRANCH   1  22
TORSDOF 6
ENDMDL
MODEL 6
REMARK VINA RESULT:      -6.8      6.869      8.724
REMARK  Name = 
REMARK  6 active torsions:
REMARK  status: ('A' for Active; 'I' for Inactive)
REMARK    1  A    between atoms: C_2  and  C_3
REMARK    2  A    between atoms: C_3  and  N_4
REMARK    3  A    between atoms: C_5  and  C_6
REMARK    4  A    between atoms: N_15  and  N_16
REMARK    5  A    between atoms: C_17  and  C_18
REMARK    6  A    between atoms: C_19  and  C_20
REMARK                            x       y       z     vdW  Elec       q    Type
REMARK                         _______ _______ _______ _____ _____    ______ ____
ROOT
ATOM      1  N   UNL     1       2.815   6.638  19.423  0.00  0.00    +0.000 N 
ATOM      2  C   UNL     1       3.383   6.876  18.161  0.00  0.00    +0.000 A 
ATOM      3  C   UNL     1       2.975   8.000  17.552  0.00  0.00    +0.000 A 
ATOM      4  S   UNL     1       1.810   8.861  18.512  0.00  0.00    +0.000 S 
ATOM      5  C   UNL     1       1.893   7.614  19.812  0.00  0.00    +0.000 A 
ATOM      6  N   UNL     1       1.187   7.651  20.906  0.00  0.00    +0.000 NA
ENDROOT
BRANCH   2   7
ATOM      7  C   UNL     1       4.374   5.999  17.537  0.00  0.00    +0.000 A 
ATOM      8  C   UNL     1       5.684   6.449  17.325  0.00  0.00    +0.000 A 
ATOM      9  C   UNL     1       6.628   5.627  16.710  0.00  0.00    +0.000 A 
ATOM     10  C   UNL     1       6.262   4.357  16.271  0.00  0.00    +0.000 A 
ATOM     11  C   UNL     1       4.954   3.906  16.454  0.00  0.00    +0.000 A 
ATOM     12  C   UNL     1       4.014   4.723  17.086  0.00  0.00    +0.000 A 
ENDBRANCH   2   7
BRANCH   6  13
ATOM     13  N   UNL     1       0.346   8.758  20.996  0.00  0.00    +0.000 NA
ATOM     14  C   UNL     1       0.600   9.506  22.019  0.00  0.00    +0.000 C 
BRANCH  14  15
ATOM     15  C   UNL     1      -0.210  10.713  22.249  0.00  0.00    +0.000 C 
ATOM     16  C   UNL     1      -1.220  10.736  23.131  0.00  0.00    +0.000 C 
BRANCH  16  17
ATOM     17  C   UNL     1      -1.980  11.924  23.297  0.00  0.00    +0.000 A 
ATOM     18  C   UNL     1      -1.548  13.246  23.333  0.00  0.00    +0.000 A 
ATOM     19  C   UNL     1      -2.681  14.073  23.528  0.00  0.00    +0.000 A 
ATOM     20  C   UNL     1      -3.755  13.225  23.605  0.00  0.00    +0.000 A 
ATOM     21  O   UNL     1      -3.350  11.942  23.466  0.00  0.00    +0.000 OA
ENDBRANCH  16  17
ENDBRANCH  14  15
ENDBRANCH   6  13
BRANCH   1  22
ATOM     22  C   UNL     1       3.051   5.468  20.261  0.00  0.00    +0.000 C 
BRANCH  22  24
ATOM     23  C   UNL     1       1.605   3.567  21.053  0.00  0.00    +0.000 C 
ATOM     24  C   UNL     1       1.921   4.484  20.130  0.00  0.00    +0.000 C 
ENDBRANCH  22  24
ENDBRANCH   1  22
TORSDOF 6
ENDMDL
MODEL 7
REMARK VINA RESULT:      -6.8      6.552      8.505
REMARK  Name = 
REMARK  6 active torsions:
REMARK  status: ('A' for Active; 'I' for Inactive)
REMARK    1  A    between atoms: C_2  and  C_3
REMARK    2  A    between atoms: C_3  and  N_4
REMARK    3  A    between atoms: C_5  and  C_6
REMARK    4  A    between atoms: N_15  and  N_16
REMARK    5  A    between atoms: C_17  and  C_18
REMARK    6  A    between atoms: C_19  and  C_20
REMARK                            x       y       z     vdW  Elec       q    Type
REMARK                         _______ _______ _______ _____ _____    ______ ____
ROOT
ATOM      1  N   UNL     1       3.195   6.374  19.223  0.00  0.00    +0.000 N 
ATOM      2  C   UNL     1       3.801   6.647  17.986  0.00  0.00    +0.000 A 
ATOM      3  C   UNL     1       3.366   7.754  17.366  0.00  0.00    +0.000 A 
ATOM      4  S   UNL     1       2.124   8.553  18.282  0.00  0.00    +0.000 S 
ATOM      5  C   UNL     1       2.213   7.303  19.578  0.00  0.00    +0.000 A 
ATOM      6  N   UNL     1       1.463   7.300  20.643  0.00  0.00    +0.000 NA
ENDROOT
BRANCH   2   7
ATOM      7  C   UNL     1       4.857   5.821  17.399  0.00  0.00    +0.000 A 
ATOM      8  C   UNL     1       4.533   4.755  16.550  0.00  0.00    +0.000 A 
ATOM      9  C   UNL     1       5.533   3.949  16.005  0.00  0.00    +0.000 A 
ATOM     10  C   UNL     1       6.867   4.184  16.329  0.00  0.00    +0.000 A 
ATOM     11  C   UNL     1       7.201   5.229  17.192  0.00  0.00    +0.000 A 
ATOM     12  C   UNL     1       6.201   6.046  17.724  0.00  0.00    +0.000 A 
ENDBRANCH   2   7
BRANCH   6  13
ATOM     13  N   UNL     1       0.568   8.366  20.704  0.00  0.00    +0.000 NA
ATOM     14  C   UNL     1       0.761   9.133  21.726  0.00  0.00    +0.000 C 
BRANCH  14  15
ATOM     15  C   UNL     1      -0.112  10.302  21.927  0.00  0.00    +0.000 C 
ATOM     16  C   UNL     1      -0.779  10.504  23.072  0.00  0.00    +0.000 C 
BRANCH  16  17
ATOM     17  C   UNL     1      -1.623  11.640  23.202  0.00  0.00    +0.000 A 
ATOM     18  C   UNL     1      -1.315  12.986  23.031  0.00  0.00    +0.000 A 
ATOM     19  C   UNL     1      -2.489  13.738  23.280  0.00  0.00    +0.000 A 
ATOM     20  C   UNL     1      -3.462  12.824  23.592  0.00  0.00    +0.000 A 
ATOM     21  O   UNL     1      -2.957  11.569  23.547  0.00  0.00    +0.000 OA
ENDBRANCH  16  17
ENDBRANCH  14  15
ENDBRANCH   6  13
BRANCH   1  22
ATOM     22  C   UNL     1       3.452   5.212  20.065  0.00  0.00    +0.000 C 
BRANCH  22  24
ATOM     23  C   UNL     1       1.773   3.447  20.696  0.00  0.00    +0.000 C 
ATOM     24  C   UNL     1       2.470   4.112  19.767  0.00  0.00    +0.000 C 
ENDBRANCH  22  24
ENDBRANCH   1  22
TORSDOF 6
ENDMDL
MODEL 8
REMARK VINA RESULT:      -6.8      8.271     10.420
REMARK  Name = 
REMARK  6 active torsions:
REMARK  status: ('A' for Active; 'I' for Inactive)
REMARK    1  A    between atoms: C_2  and  C_3
REMARK    2  A    between atoms: C_3  and  N_4
REMARK    3  A    between atoms: C_5  and  C_6
REMARK    4  A    between atoms: N_15  and  N_16
REMARK    5  A    between atoms: C_17  and  C_18
REMARK    6  A    between atoms: C_19  and  C_20
REMARK                            x       y       z     vdW  Elec       q    Type
REMARK                         _______ _______ _______ _____ _____    ______ ____
ROOT
ATOM      1  N   UNL     1      -0.688  11.552  21.064  0.00  0.00    +0.000 N 
ATOM      2  C   UNL     1      -1.046  11.445  22.417  0.00  0.00    +0.000 A 
ATOM      3  C   UNL     1      -0.584  10.354  23.048  0.00  0.00    +0.000 A 
ATOM      4  S   UNL     1       0.337   9.340  21.979  0.00  0.00    +0.000 S 
ATOM      5  C   UNL     1       0.073  10.474  20.602  0.00  0.00    +0.000 A 
ATOM      6  N   UNL     1       0.524  10.277  19.396  0.00  0.00    +0.000 NA
ENDROOT
BRANCH   2   7
ATOM      7  C   UNL     1      -1.839  12.447  23.131  0.00  0.00    +0.000 A 
ATOM      8  C   UNL     1      -3.182  12.196  23.443  0.00  0.00    +0.000 A 
ATOM      9  C   UNL     1      -3.950  13.156  24.101  0.00  0.00    +0.000 A 
ATOM     10  C   UNL     1      -3.391  14.389  24.427  0.00  0.00    +0.000 A 
ATOM     11  C   UNL     1      -2.062  14.660  24.101  0.00  0.00    +0.000 A 
ATOM     12  C   UNL     1      -1.287  13.692  23.457  0.00  0.00    +0.000 A 
ENDBRANCH   2   7
BRANCH   6  13
ATOM     13  N   UNL     1       1.246   9.095  19.252  0.00  0.00    +0.000 NA
ATOM     14  C   UNL     1       1.933   9.050  18.158  0.00  0.00    +0.000 C 
BRANCH  14  15
ATOM     15  C   UNL     1       2.746   7.858  17.864  0.00  0.00    +0.000 C 
ATOM     16  C   UNL     1       2.858   6.841  18.730  0.00  0.00    +0.000 C 
BRANCH  16  17
ATOM     17  C   UNL     1       3.672   5.725  18.401  0.00  0.00    +0.000 A 
ATOM     18  C   UNL     1       3.461   4.734  17.447  0.00  0.00    +0.000 A 
ATOM     19  C   UNL     1       4.552   3.833  17.502  0.00  0.00    +0.000 A 
ATOM     20  C   UNL     1       5.381   4.308  18.484  0.00  0.00    +0.000 A 
ATOM     21  O   UNL     1       4.868   5.437  19.026  0.00  0.00    +0.000 OA
ENDBRANCH  16  17
ENDBRANCH  14  15
ENDBRANCH   6  13
BRANCH   1  22
ATOM     22  C   UNL     1      -1.104  12.608  20.150  0.00  0.00    +0.000 C 
BRANCH  22  24
ATOM     23  C   UNL     1      -2.843  11.623  18.621  0.00  0.00    +0.000 C 
ATOM     24  C   UNL     1      -2.513  12.377  19.676  0.00  0.00    +0.000 C 
ENDBRANCH  22  24
ENDBRANCH   1  22
TORSDOF 6
ENDMDL
MODEL 9
REMARK VINA RESULT:      -6.7      8.610     10.654
REMARK  Name = 
REMARK  6 active torsions:
REMARK  status: ('A' for Active; 'I' for Inactive)
REMARK    1  A    between atoms: C_2  and  C_3
REMARK    2  A    between atoms: C_3  and  N_4
REMARK    3  A    between atoms: C_5  and  C_6
REMARK    4  A    between atoms: N_15  and  N_16
REMARK    5  A    between atoms: C_17  and  C_18
REMARK    6  A    between atoms: C_19  and  C_20
REMARK                            x       y       z     vdW  Elec       q    Type
REMARK                         _______ _______ _______ _____ _____    ______ ____
ROOT
ATOM      1  N   UNL     1      -1.095  11.697  20.910  0.00  0.00    +0.000 N 
ATOM      2  C   UNL     1      -1.233  11.580  22.303  0.00  0.00    +0.000 A 
ATOM      3  C   UNL     1      -0.615  10.523  22.853  0.00  0.00    +0.000 A 
ATOM      4  S   UNL     1       0.188   9.557  21.653  0.00  0.00    +0.000 S 
ATOM      5  C   UNL     1      -0.352  10.662  20.335  0.00  0.00    +0.000 A 
ATOM      6  N   UNL     1      -0.082  10.483  19.074  0.00  0.00    +0.000 NA
ENDROOT
BRANCH   2   7
ATOM      7  C   UNL     1      -1.964  12.539  23.132  0.00  0.00    +0.000 A 
ATOM      8  C   UNL     1      -1.373  13.755  23.497  0.00  0.00    +0.000 A 
ATOM      9  C   UNL     1      -2.055  14.664  24.306  0.00  0.00    +0.000 A 
ATOM     10  C   UNL     1      -3.325  14.350  24.784  0.00  0.00    +0.000 A 
ATOM     11  C   UNL     1      -3.916  13.131  24.446  0.00  0.00    +0.000 A 
ATOM     12  C   UNL     1      -3.239  12.229  23.622  0.00  0.00    +0.000 A 
ENDBRANCH   2   7
BRANCH   6  13
ATOM     13  N   UNL     1       0.678   9.344  18.817  0.00  0.00    +0.000 NA
ATOM     14  C   UNL     1       1.688   9.572  18.042  0.00  0.00    +0.000 C 
BRANCH  14  15
ATOM     15  C   UNL     1       2.583   8.461  17.678  0.00  0.00    +0.000 C 
ATOM     16  C   UNL     1       2.527   7.271  18.292  0.00  0.00    +0.000 C 
BRANCH  16  17
ATOM     17  C   UNL     1       3.430   6.242  17.913  0.00  0.00    +0.000 A 
ATOM     18  C   UNL     1       4.547   6.314  17.087  0.00  0.00    +0.000 A 
ATOM     19  C   UNL     1       5.117   5.020  17.006  0.00  0.00    +0.000 A 
ATOM     20  C   UNL     1       4.326   4.213  17.783  0.00  0.00    +0.000 A 
ATOM     21  O   UNL     1       3.319   4.931  18.330  0.00  0.00    +0.000 OA
ENDBRANCH  16  17
ENDBRANCH  14  15
ENDBRANCH   6  13
BRANCH   1  22
ATOM     22  C   UNL     1      -1.710  12.720  20.073  0.00  0.00    +0.000 C 
BRANCH  22  24
ATOM     23  C   UNL     1      -4.219  12.877  20.193  0.00  0.00    +0.000 C 
ATOM     24  C   UNL     1      -3.109  12.323  19.689  0.00  0.00    +0.000 C 
ENDBRANCH  22  24
ENDBRANCH   1  22
TORSDOF 6
ENDMDL
