MODEL 1
REMARK VINA RESULT:      -8.6      0.000      0.000
REMARK  Name = 
REMARK  7 active torsions:
REMARK  status: ('A' for Active; 'I' for Inactive)
REMARK    1  A    between atoms: C_1  and  C_2
REMARK    2  A    between atoms: C_3  and  C_4
REMARK    3  A    between atoms: C_3  and  C_5
REMARK    4  A    between atoms: C_5  and  O_7
REMARK    5  A    between atoms: O_7  and  C_8
REMARK    6  A    between atoms: C_22  and  C_23
REMARK    7  A    between atoms: C_22  and  C_24
REMARK                            x       y       z     vdW  Elec       q    Type
REMARK                         _______ _______ _______ _____ _____    ______ ____
ROOT
ATOM      1  C   UNL     1       3.948   6.366  17.894  0.00  0.00    +0.000 C 
ATOM      2  C   UNL     1       3.031   7.544  17.579  0.00  0.00    +0.000 C 
ATOM      3  C   UNL     1       2.251   7.938  18.795  0.00  0.00    +0.000 A 
ATOM      4  C   UNL     1       1.591   9.176  18.810  0.00  0.00    +0.000 A 
ATOM      5  C   UNL     1       0.867   9.573  19.930  0.00  0.00    +0.000 A 
ATOM      6  C   UNL     1       0.154  10.837  19.966  0.00  0.00    +0.000 A 
ATOM      7  C   UNL     1      -0.528  11.174  21.065  0.00  0.00    +0.000 A 
ATOM      8  C   UNL     1      -0.577  10.309  22.258  0.00  0.00    +0.000 A 
ATOM      9  O   UNL     1      -1.207  10.655  23.249  0.00  0.00    +0.000 OA
ATOM     10  O   UNL     1       0.112   9.103  22.198  0.00  0.00    +0.000 OA
ATOM     11  C   UNL     1       0.824   8.731  21.038  0.00  0.00    +0.000 A 
ATOM     12  C   UNL     1       1.463   7.491  21.042  0.00  0.00    +0.000 A 
ATOM     13  C   UNL     1       2.154   7.081  19.903  0.00  0.00    +0.000 A 
ATOM     14  O   UNL     1       2.713   5.827  19.942  0.00  0.00    +0.000 OA
ATOM     15  C   UNL     1       3.153   5.290  18.670  0.00  0.00    +0.000 C 
ATOM     16  C   UNL     1       1.926   4.737  17.919  0.00  0.00    +0.000 C 
ATOM     17  C   UNL     1       4.080   4.103  18.981  0.00  0.00    +0.000 C 
ENDROOT
BRANCH   1  18
ATOM     18  O   UNL     1       4.528   5.853  16.677  0.00  0.00    +0.000 OA
BRANCH  18  19
ATOM     19  C   UNL     1       5.845   6.171  16.528  0.00  0.00    +0.000 C 
ATOM     20  O   UNL     1       6.269   7.311  16.415  0.00  0.00    +0.000 OA
BRANCH  19  23
ATOM     21  C   UNL     1       7.713   5.465  18.787  0.00  0.00    +0.000 C 
ATOM     22  C   UNL     1       7.527   4.666  17.533  0.00  0.00    +0.000 C 
ATOM     23  C   UNL     1       6.701   4.947  16.503  0.00  0.00    +0.000 C 
ATOM     24  C   UNL     1       6.621   4.047  15.305  0.00  0.00    +0.000 C 
ENDBRANCH  19  23
ENDBRANCH  18  19
ENDBRANCH   1  18
TORSDOF 3
ENDMDL
MODEL 2
REMARK VINA RESULT:      -8.6      0.363      1.306
REMARK  Name = 
REMARK  7 active torsions:
REMARK  status: ('A' for Active; 'I' for Inactive)
REMARK    1  A    between atoms: C_1  and  C_2
REMARK    2  A    between atoms: C_3  and  C_4
REMARK    3  A    between atoms: C_3  and  C_5
REMARK    4  A    between atoms: C_5  and  O_7
REMARK    5  A    between atoms: O_7  and  C_8
REMARK    6  A    between atoms: C_22  and  C_23
REMARK    7  A    between atoms: C_22  and  C_24
REMARK                            x       y       z     vdW  Elec       q    Type
REMARK                         _______ _______ _______ _____ _____    ______ ____
ROOT
ATOM      1  C   UNL     1       3.911   6.176  17.852  0.00  0.00    +0.000 C 
ATOM      2  C   UNL     1       3.012   7.369  17.543  0.00  0.00    +0.000 C 
ATOM      3  C   UNL     1       2.286   7.809  18.777  0.00  0.00    +0.000 A 
ATOM      4  C   UNL     1       1.657   9.064  18.786  0.00  0.00    +0.000 A 
ATOM      5  C   UNL     1       0.985   9.504  19.923  0.00  0.00    +0.000 A 
ATOM      6  C   UNL     1       0.304  10.785  19.955  0.00  0.00    +0.000 A 
ATOM      7  C   UNL     1      -0.328  11.164  21.069  0.00  0.00    +0.000 A 
ATOM      8  C   UNL     1      -0.355  10.327  22.283  0.00  0.00    +0.000 A 
ATOM      9  O   UNL     1      -0.940  10.711  23.287  0.00  0.00    +0.000 OA
ATOM     10  O   UNL     1       0.302   9.103  22.226  0.00  0.00    +0.000 OA
ATOM     11  C   UNL     1       0.962   8.688  21.051  0.00  0.00    +0.000 A 
ATOM     12  C   UNL     1       1.571   7.433  21.061  0.00  0.00    +0.000 A 
ATOM     13  C   UNL     1       2.209   6.981  19.906  0.00  0.00    +0.000 A 
ATOM     14  O   UNL     1       2.739   5.714  19.955  0.00  0.00    +0.000 OA
ATOM     15  C   UNL     1       3.119   5.138  18.680  0.00  0.00    +0.000 C 
ATOM     16  C   UNL     1       1.853   4.599  17.987  0.00  0.00    +0.000 C 
ATOM     17  C   UNL     1       4.028   3.935  18.985  0.00  0.00    +0.000 C 
ENDROOT
BRANCH   1  18
ATOM     18  O   UNL     1       4.433   5.622  16.628  0.00  0.00    +0.000 OA
BRANCH  18  19
ATOM     19  C   UNL     1       5.720   5.992  16.370  0.00  0.00    +0.000 C 
ATOM     20  O   UNL     1       6.074   7.142  16.155  0.00  0.00    +0.000 OA
BRANCH  19  23
ATOM     21  C   UNL     1       5.899   4.102  14.028  0.00  0.00    +0.000 C 
ATOM     22  C   UNL     1       6.687   3.988  15.298  0.00  0.00    +0.000 C 
ATOM     23  C   UNL     1       6.636   4.813  16.365  0.00  0.00    +0.000 C 
ATOM     24  C   UNL     1       7.491   4.570  17.574  0.00  0.00    +0.000 C 
ENDBRANCH  19  23
ENDBRANCH  18  19
ENDBRANCH   1  18
TORSDOF 3
ENDMDL
MODEL 3
REMARK VINA RESULT:      -8.5      0.821      1.006
REMARK  Name = 
REMARK  7 active torsions:
REMARK  status: ('A' for Active; 'I' for Inactive)
REMARK    1  A    between atoms: C_1  and  C_2
REMARK    2  A    between atoms: C_3  and  C_4
REMARK    3  A    between atoms: C_3  and  C_5
REMARK    4  A    between atoms: C_5  and  O_7
REMARK    5  A    between atoms: O_7  and  C_8
REMARK    6  A    between atoms: C_22  and  C_23
REMARK    7  A    between atoms: C_22  and  C_24
REMARK                            x       y       z     vdW  Elec       q    Type
REMARK                         _______ _______ _______ _____ _____    ______ ____
ROOT
ATOM      1  C   UNL     1       3.986   6.050  17.993  0.00  0.00    +0.000 C 
ATOM      2  C   UNL     1       3.100   7.217  17.568  0.00  0.00    +0.000 C 
ATOM      3  C   UNL     1       2.325   7.738  18.739  0.00  0.00    +0.000 A 
ATOM      4  C   UNL     1       1.696   8.988  18.639  0.00  0.00    +0.000 A 
ATOM      5  C   UNL     1       0.979   9.502  19.715  0.00  0.00    +0.000 A 
ATOM      6  C   UNL     1       0.297  10.780  19.633  0.00  0.00    +0.000 A 
ATOM      7  C   UNL     1      -0.380  11.231  20.693  0.00  0.00    +0.000 A 
ATOM      8  C   UNL     1      -0.456  10.478  21.959  0.00  0.00    +0.000 A 
ATOM      9  O   UNL     1      -1.081  10.927  22.910  0.00  0.00    +0.000 OA
ATOM     10  O   UNL     1       0.203   9.255  22.010  0.00  0.00    +0.000 OA
ATOM     11  C   UNL     1       0.910   8.763  20.894  0.00  0.00    +0.000 A 
ATOM     12  C   UNL     1       1.518   7.514  21.013  0.00  0.00    +0.000 A 
ATOM     13  C   UNL     1       2.203   6.987  19.918  0.00  0.00    +0.000 A 
ATOM     14  O   UNL     1       2.730   5.728  20.073  0.00  0.00    +0.000 OA
ATOM     15  C   UNL     1       3.162   5.068  18.857  0.00  0.00    +0.000 C 
ATOM     16  C   UNL     1       1.925   4.480  18.151  0.00  0.00    +0.000 C 
ATOM     17  C   UNL     1       4.058   3.892  19.279  0.00  0.00    +0.000 C 
ENDROOT
BRANCH   1  18
ATOM     18  O   UNL     1       4.558   5.417  16.831  0.00  0.00    +0.000 OA
BRANCH  18  19
ATOM     19  C   UNL     1       5.612   6.102  16.302  0.00  0.00    +0.000 C 
ATOM     20  O   UNL     1       5.539   6.820  15.316  0.00  0.00    +0.000 OA
BRANCH  19  23
ATOM     21  C   UNL     1       7.234   8.333  17.516  0.00  0.00    +0.000 C 
ATOM     22  C   UNL     1       7.568   6.874  17.597  0.00  0.00    +0.000 C 
ATOM     23  C   UNL     1       6.867   5.848  17.070  0.00  0.00    +0.000 C 
ATOM     24  C   UNL     1       7.327   4.429  17.234  0.00  0.00    +0.000 C 
ENDBRANCH  19  23
ENDBRANCH  18  19
ENDBRANCH   1  18
TORSDOF 3
ENDMDL
MODEL 4
REMARK VINA RESULT:      -8.2      1.308      1.528
REMARK  Name = 
REMARK  7 active torsions:
REMARK  status: ('A' for Active; 'I' for Inactive)
REMARK    1  A    between atoms: C_1  and  C_2
REMARK    2  A    between atoms: C_3  and  C_4
REMARK    3  A    between atoms: C_3  and  C_5
REMARK    4  A    between atoms: C_5  and  O_7
REMARK    5  A    between atoms: O_7  and  C_8
REMARK    6  A    between atoms: C_22  and  C_23
REMARK    7  A    between atoms: C_22  and  C_24
REMARK                            x       y       z     vdW  Elec       q    Type
REMARK                         _______ _______ _______ _____ _____    ______ ____
ROOT
ATOM      1  C   UNL     1       3.990   5.322  18.614  0.00  0.00    +0.000 C 
ATOM      2  C   UNL     1       3.441   6.513  17.834  0.00  0.00    +0.000 C 
ATOM      3  C   UNL     1       2.555   7.347  18.708  0.00  0.00    +0.000 A 
ATOM      4  C   UNL     1       2.204   8.638  18.287  0.00  0.00    +0.000 A 
ATOM      5  C   UNL     1       1.391   9.439  19.084  0.00  0.00    +0.000 A 
ATOM      6  C   UNL     1       0.989  10.770  18.665  0.00  0.00    +0.000 A 
ATOM      7  C   UNL     1       0.207  11.501  19.464  0.00  0.00    +0.000 A 
ATOM      8  C   UNL     1      -0.263  11.008  20.773  0.00  0.00    +0.000 A 
ATOM      9  O   UNL     1      -0.973  11.710  21.480  0.00  0.00    +0.000 OA
ATOM     10  O   UNL     1       0.133   9.730  21.149  0.00  0.00    +0.000 OA
ATOM     11  C   UNL     1       0.948   8.944  20.308  0.00  0.00    +0.000 A 
ATOM     12  C   UNL     1       1.276   7.660  20.741  0.00  0.00    +0.000 A 
ATOM     13  C   UNL     1       2.058   6.847  19.921  0.00  0.00    +0.000 A 
ATOM     14  O   UNL     1       2.300   5.573  20.372  0.00  0.00    +0.000 OA
ATOM     15  C   UNL     1       2.839   4.647  19.395  0.00  0.00    +0.000 C 
ATOM     16  C   UNL     1       1.684   4.134  18.515  0.00  0.00    +0.000 C 
ATOM     17  C   UNL     1       3.396   3.445  20.177  0.00  0.00    +0.000 C 
ENDROOT
BRANCH   1  18
ATOM     18  O   UNL     1       4.657   4.411  17.718  0.00  0.00    +0.000 OA
BRANCH  18  19
ATOM     19  C   UNL     1       6.017   4.502  17.765  0.00  0.00    +0.000 C 
ATOM     20  O   UNL     1       6.691   4.219  18.745  0.00  0.00    +0.000 OA
BRANCH  19  23
ATOM     21  C   UNL     1       7.378   7.182  17.540  0.00  0.00    +0.000 C 
ATOM     22  C   UNL     1       7.175   6.215  16.414  0.00  0.00    +0.000 C 
ATOM     23  C   UNL     1       6.574   5.008  16.476  0.00  0.00    +0.000 C 
ATOM     24  C   UNL     1       6.444   4.143  15.256  0.00  0.00    +0.000 C 
ENDBRANCH  19  23
ENDBRANCH  18  19
ENDBRANCH   1  18
TORSDOF 3
ENDMDL
MODEL 5
REMARK VINA RESULT:      -8.2      1.220      1.810
REMARK  Name = 
REMARK  7 active torsions:
REMARK  status: ('A' for Active; 'I' for Inactive)
REMARK    1  A    between atoms: C_1  and  C_2
REMARK    2  A    between atoms: C_3  and  C_4
REMARK    3  A    between atoms: C_3  and  C_5
REMARK    4  A    between atoms: C_5  and  O_7
REMARK    5  A    between atoms: O_7  and  C_8
REMARK    6  A    between atoms: C_22  and  C_23
REMARK    7  A    between atoms: C_22  and  C_24
REMARK                            x       y       z     vdW  Elec       q    Type
REMARK                         _______ _______ _______ _____ _____    ______ ____
ROOT
ATOM      1  C   UNL     1       4.034   5.636  18.523  0.00  0.00    +0.000 C 
ATOM      2  C   UNL     1       3.436   6.823  17.773  0.00  0.00    +0.000 C 
ATOM      3  C   UNL     1       2.521   7.599  18.670  0.00  0.00    +0.000 A 
ATOM      4  C   UNL     1       2.117   8.886  18.281  0.00  0.00    +0.000 A 
ATOM      5  C   UNL     1       1.276   9.634  19.100  0.00  0.00    +0.000 A 
ATOM      6  C   UNL     1       0.821  10.958  18.714  0.00  0.00    +0.000 A 
ATOM      7  C   UNL     1       0.013  11.637  19.533  0.00  0.00    +0.000 A 
ATOM      8  C   UNL     1      -0.433  11.095  20.830  0.00  0.00    +0.000 A 
ATOM      9  O   UNL     1      -1.168  11.750  21.556  0.00  0.00    +0.000 OA
ATOM     10  O   UNL     1       0.015   9.824  21.174  0.00  0.00    +0.000 OA
ATOM     11  C   UNL     1       0.857   9.092  20.312  0.00  0.00    +0.000 A 
ATOM     12  C   UNL     1       1.237   7.812  20.713  0.00  0.00    +0.000 A 
ATOM     13  C   UNL     1       2.048   7.051  19.872  0.00  0.00    +0.000 A 
ATOM     14  O   UNL     1       2.342   5.776  20.291  0.00  0.00    +0.000 OA
ATOM     15  C   UNL     1       2.913   4.897  19.290  0.00  0.00    +0.000 C 
ATOM     16  C   UNL     1       1.777   4.360  18.400  0.00  0.00    +0.000 C 
ATOM     17  C   UNL     1       3.521   3.699  20.040  0.00  0.00    +0.000 C 
ENDROOT
BRANCH   1  18
ATOM     18  O   UNL     1       4.734   4.774  17.603  0.00  0.00    +0.000 OA
BRANCH  18  19
ATOM     19  C   UNL     1       6.087   4.782  17.774  0.00  0.00    +0.000 C 
ATOM     20  O   UNL     1       6.671   4.169  18.656  0.00  0.00    +0.000 OA
BRANCH  19  23
ATOM     21  C   UNL     1       6.323   3.981  14.878  0.00  0.00    +0.000 C 
ATOM     22  C   UNL     1       6.848   5.252  15.472  0.00  0.00    +0.000 C 
ATOM     23  C   UNL     1       6.760   5.646  16.760  0.00  0.00    +0.000 C 
ATOM     24  C   UNL     1       7.337   6.956  17.212  0.00  0.00    +0.000 C 
ENDBRANCH  19  23
ENDBRANCH  18  19
ENDBRANCH   1  18
TORSDOF 3
ENDMDL
MODEL 6
REMARK VINA RESULT:      -7.9      0.762      1.224
REMARK  Name = 
REMARK  7 active torsions:
REMARK  status: ('A' for Active; 'I' for Inactive)
REMARK    1  A    between atoms: C_1  and  C_2
REMARK    2  A    between atoms: C_3  and  C_4
REMARK    3  A    between atoms: C_3  and  C_5
REMARK    4  A    between atoms: C_5  and  O_7
REMARK    5  A    between atoms: O_7  and  C_8
REMARK    6  A    between atoms: C_22  and  C_23
REMARK    7  A    between atoms: C_22  and  C_24
REMARK                            x       y       z     vdW  Elec       q    Type
REMARK                         _______ _______ _______ _____ _____    ______ ____
ROOT
ATOM      1  C   UNL     1       3.941   6.349  18.041  0.00  0.00    +0.000 C 
ATOM      2  C   UNL     1       3.033   7.495  17.604  0.00  0.00    +0.000 C 
ATOM      3  C   UNL     1       2.228   7.994  18.764  0.00  0.00    +0.000 A 
ATOM      4  C   UNL     1       1.570   9.229  18.655  0.00  0.00    +0.000 A 
ATOM      5  C   UNL     1       0.825   9.724  19.722  0.00  0.00    +0.000 A 
ATOM      6  C   UNL     1       0.113  10.985  19.631  0.00  0.00    +0.000 A 
ATOM      7  C   UNL     1      -0.590  11.418  20.681  0.00  0.00    +0.000 A 
ATOM      8  C   UNL     1      -0.666  10.661  21.945  0.00  0.00    +0.000 A 
ATOM      9  O   UNL     1      -1.316  11.094  22.888  0.00  0.00    +0.000 OA
ATOM     10  O   UNL     1       0.022   9.455  22.005  0.00  0.00    +0.000 OA
ATOM     11  C   UNL     1       0.757   8.982  20.898  0.00  0.00    +0.000 A 
ATOM     12  C   UNL     1       1.393   7.747  21.025  0.00  0.00    +0.000 A 
ATOM     13  C   UNL     1       2.106   7.239  19.940  0.00  0.00    +0.000 A 
ATOM     14  O   UNL     1       2.662   5.993  20.102  0.00  0.00    +0.000 OA
ATOM     15  C   UNL     1       3.127   5.346  18.891  0.00  0.00    +0.000 C 
ATOM     16  C   UNL     1       1.916   4.728  18.166  0.00  0.00    +0.000 C 
ATOM     17  C   UNL     1       4.046   4.191  19.324  0.00  0.00    +0.000 C 
ENDROOT
BRANCH   1  18
ATOM     18  O   UNL     1       4.544   5.731  16.886  0.00  0.00    +0.000 OA
BRANCH  18  19
ATOM     19  C   UNL     1       5.457   6.527  16.260  0.00  0.00    +0.000 C 
ATOM     20  O   UNL     1       5.321   6.970  15.129  0.00  0.00    +0.000 OA
BRANCH  19  23
ATOM     21  C   UNL     1       7.257   4.295  17.191  0.00  0.00    +0.000 C 
ATOM     22  C   UNL     1       7.431   5.746  17.523  0.00  0.00    +0.000 C 
ATOM     23  C   UNL     1       6.650   6.772  17.124  0.00  0.00    +0.000 C 
ATOM     24  C   UNL     1       6.952   8.183  17.538  0.00  0.00    +0.000 C 
ENDBRANCH  19  23
ENDBRANCH  18  19
ENDBRANCH   1  18
TORSDOF 3
ENDMDL
MODEL 7
REMARK VINA RESULT:      -7.8      2.250      3.956
REMARK  Name = 
REMARK  7 active torsions:
REMARK  status: ('A' for Active; 'I' for Inactive)
REMARK    1  A    between atoms: C_1  and  C_2
REMARK    2  A    between atoms: C_3  and  C_4
REMARK    3  A    between atoms: C_3  and  C_5
REMARK    4  A    between atoms: C_5  and  O_7
REMARK    5  A    between atoms: O_7  and  C_8
REMARK    6  A    between atoms: C_22  and  C_23
REMARK    7  A    between atoms: C_22  and  C_24
REMARK                            x       y       z     vdW  Elec       q    Type
REMARK                         _______ _______ _______ _____ _____    ______ ____
ROOT
ATOM      1  C   UNL     1       4.006   4.607  18.591  0.00  0.00    +0.000 C 
ATOM      2  C   UNL     1       3.560   5.407  19.811  0.00  0.00    +0.000 C 
ATOM      3  C   UNL     1       2.862   6.662  19.385  0.00  0.00    +0.000 A 
ATOM      4  C   UNL     1       2.108   7.376  20.329  0.00  0.00    +0.000 A 
ATOM      5  C   UNL     1       1.439   8.539  19.959  0.00  0.00    +0.000 A 
ATOM      6  C   UNL     1       0.672   9.313  20.918  0.00  0.00    +0.000 A 
ATOM      7  C   UNL     1       0.048  10.424  20.514  0.00  0.00    +0.000 A 
ATOM      8  C   UNL     1       0.100  10.894  19.118  0.00  0.00    +0.000 A 
ATOM      9  O   UNL     1      -0.490  11.913  18.785  0.00  0.00    +0.000 OA
ATOM     10  O   UNL     1       0.844  10.137  18.220  0.00  0.00    +0.000 OA
ATOM     11  C   UNL     1       1.517   8.970  18.637  0.00  0.00    +0.000 A 
ATOM     12  C   UNL     1       2.269   8.282  17.684  0.00  0.00    +0.000 A 
ATOM     13  C   UNL     1       2.969   7.140  18.070  0.00  0.00    +0.000 A 
ATOM     14  O   UNL     1       3.739   6.537  17.105  0.00  0.00    +0.000 OA
ATOM     15  C   UNL     1       4.691   5.553  17.579  0.00  0.00    +0.000 C 
ATOM     16  C   UNL     1       5.928   6.290  18.128  0.00  0.00    +0.000 C 
ATOM     17  C   UNL     1       5.142   4.740  16.354  0.00  0.00    +0.000 C 
ENDROOT
BRANCH   1  18
ATOM     18  O   UNL     1       4.863   3.522  19.001  0.00  0.00    +0.000 OA
BRANCH  18  19
ATOM     19  C   UNL     1       4.215   2.557  19.714  0.00  0.00    +0.000 C 
ATOM     20  O   UNL     1       4.689   1.987  20.686  0.00  0.00    +0.000 OA
BRANCH  19  23
ATOM     21  C   UNL     1       1.709   2.688  21.384  0.00  0.00    +0.000 C 
ATOM     22  C   UNL     1       1.764   2.342  19.927  0.00  0.00    +0.000 C 
ATOM     23  C   UNL     1       2.863   2.275  19.147  0.00  0.00    +0.000 C 
ATOM     24  C   UNL     1       2.762   1.914  17.693  0.00  0.00    +0.000 C 
ENDBRANCH  19  23
ENDBRANCH  18  19
ENDBRANCH   1  18
TORSDOF 3
ENDMDL
MODEL 8
REMARK VINA RESULT:      -7.6      2.445      4.177
REMARK  Name = 
REMARK  7 active torsions:
REMARK  status: ('A' for Active; 'I' for Inactive)
REMARK    1  A    between atoms: C_1  and  C_2
REMARK    2  A    between atoms: C_3  and  C_4
REMARK    3  A    between atoms: C_3  and  C_5
REMARK    4  A    between atoms: C_5  and  O_7
REMARK    5  A    between atoms: O_7  and  C_8
REMARK    6  A    between atoms: C_22  and  C_23
REMARK    7  A    between atoms: C_22  and  C_24
REMARK                            x       y       z     vdW  Elec       q    Type
REMARK                         _______ _______ _______ _____ _____    ______ ____
ROOT
ATOM      1  C   UNL     1       3.226   4.600  18.882  0.00  0.00    +0.000 C 
ATOM      2  C   UNL     1       2.829   5.503  20.045  0.00  0.00    +0.000 C 
ATOM      3  C   UNL     1       2.419   6.853  19.542  0.00  0.00    +0.000 A 
ATOM      4  C   UNL     1       1.729   7.720  20.403  0.00  0.00    +0.000 A 
ATOM      5  C   UNL     1       1.326   8.976  19.959  0.00  0.00    +0.000 A 
ATOM      6  C   UNL     1       0.633   9.905  20.833  0.00  0.00    +0.000 A 
ATOM      7  C   UNL     1       0.267  11.100  20.361  0.00  0.00    +0.000 A 
ATOM      8  C   UNL     1       0.533  11.514  18.971  0.00  0.00    +0.000 A 
ATOM      9  O   UNL     1       0.176  12.615  18.573  0.00  0.00    +0.000 OA
ATOM     10  O   UNL     1       1.200  10.607  18.155  0.00  0.00    +0.000 OA
ATOM     11  C   UNL     1       1.603   9.348  18.646  0.00  0.00    +0.000 A 
ATOM     12  C   UNL     1       2.296   8.507  17.776  0.00  0.00    +0.000 A 
ATOM     13  C   UNL     1       2.732   7.266  18.238  0.00  0.00    +0.000 A 
ATOM     14  O   UNL     1       3.461   6.505  17.357  0.00  0.00    +0.000 OA
ATOM     15  C   UNL     1       4.166   5.375  17.929  0.00  0.00    +0.000 C 
ATOM     16  C   UNL     1       5.463   5.885  18.585  0.00  0.00    +0.000 C 
ATOM     17  C   UNL     1       4.567   4.458  16.760  0.00  0.00    +0.000 C 
ENDROOT
BRANCH   1  18
ATOM     18  O   UNL     1       3.825   3.387  19.382  0.00  0.00    +0.000 OA
BRANCH  18  19
ATOM     19  C   UNL     1       3.109   2.265  19.084  0.00  0.00    +0.000 C 
ATOM     20  O   UNL     1       3.566   1.292  18.503  0.00  0.00    +0.000 OA
BRANCH  19  23
ATOM     21  C   UNL     1       2.375   2.529  21.996  0.00  0.00    +0.000 C 
ATOM     22  C   UNL     1       1.403   2.500  20.855  0.00  0.00    +0.000 C 
ATOM     23  C   UNL     1       1.693   2.386  19.542  0.00  0.00    +0.000 C 
ATOM     24  C   UNL     1       0.606   2.372  18.507  0.00  0.00    +0.000 C 
ENDBRANCH  19  23
ENDBRANCH  18  19
ENDBRANCH   1  18
TORSDOF 3
ENDMDL
MODEL 9
REMARK VINA RESULT:      -7.5      2.341      4.252
REMARK  Name = 
REMARK  7 active torsions:
REMARK  status: ('A' for Active; 'I' for Inactive)
REMARK    1  A    between atoms: C_1  and  C_2
REMARK    2  A    between atoms: C_3  and  C_4
REMARK    3  A    between atoms: C_3  and  C_5
REMARK    4  A    between atoms: C_5  and  O_7
REMARK    5  A    between atoms: O_7  and  C_8
REMARK    6  A    between atoms: C_22  and  C_23
REMARK    7  A    between atoms: C_22  and  C_24
REMARK                            x       y       z     vdW  Elec       q    Type
REMARK                         _______ _______ _______ _____ _____    ______ ____
ROOT
ATOM      1  C   UNL     1       3.505   4.654  18.762  0.00  0.00    +0.000 C 
ATOM      2  C   UNL     1       3.080   5.516  19.947  0.00  0.00    +0.000 C 
ATOM      3  C   UNL     1       2.562   6.839  19.471  0.00  0.00    +0.000 A 
ATOM      4  C   UNL     1       1.840   7.648  20.362  0.00  0.00    +0.000 A 
ATOM      5  C   UNL     1       1.338   8.877  19.944  0.00  0.00    +0.000 A 
ATOM      6  C   UNL     1       0.608   9.747  20.848  0.00  0.00    +0.000 A 
ATOM      7  C   UNL     1       0.146  10.918  20.401  0.00  0.00    +0.000 A 
ATOM      8  C   UNL     1       0.341  11.363  19.009  0.00  0.00    +0.000 A 
ATOM      9  O   UNL     1      -0.103  12.440  18.634  0.00  0.00    +0.000 OA
ATOM     10  O   UNL     1       1.046  10.512  18.163  0.00  0.00    +0.000 OA
ATOM     11  C   UNL     1       1.550   9.280  18.628  0.00  0.00    +0.000 A 
ATOM     12  C   UNL     1       2.273   8.497  17.729  0.00  0.00    +0.000 A 
ATOM     13  C   UNL     1       2.808   7.285  18.164  0.00  0.00    +0.000 A 
ATOM     14  O   UNL     1       3.562   6.585  17.253  0.00  0.00    +0.000 OA
ATOM     15  C   UNL     1       4.359   5.501  17.792  0.00  0.00    +0.000 C 
ATOM     16  C   UNL     1       5.637   6.094  18.416  0.00  0.00    +0.000 C 
ATOM     17  C   UNL     1       4.788   4.627  16.601  0.00  0.00    +0.000 C 
ENDROOT
BRANCH   1  18
ATOM     18  O   UNL     1       4.201   3.481  19.230  0.00  0.00    +0.000 OA
BRANCH  18  19
ATOM     19  C   UNL     1       3.432   2.354  19.221  0.00  0.00    +0.000 C 
ATOM     20  O   UNL     1       3.591   1.421  18.449  0.00  0.00    +0.000 OA
BRANCH  19  23
ATOM     21  C   UNL     1       0.505   2.500  18.516  0.00  0.00    +0.000 C 
ATOM     22  C   UNL     1       1.063   2.482  19.907  0.00  0.00    +0.000 C 
ATOM     23  C   UNL     1       2.364   2.416  20.262  0.00  0.00    +0.000 C 
ATOM     24  C   UNL     1       2.774   2.406  21.706  0.00  0.00    +0.000 C 
ENDBRANCH  19  23
ENDBRANCH  18  19
ENDBRANCH   1  18
TORSDOF 3
ENDMDL
