MODEL 1
REMARK VINA RESULT:     -10.0      0.000      0.000
REMARK  Name = 
REMARK  5 active torsions:
REMARK  status: ('A' for Active; 'I' for Inactive)
REMARK    1  A    between atoms: N_1  and  C_2
REMARK    2  A    between atoms: C_5  and  C_6
REMARK    3  A    between atoms: C_13  and  S_14
REMARK    4  A    between atoms: S_14  and  N_17
REMARK    5  A    between atoms: C_19  and  C_20
REMARK                            x       y       z     vdW  Elec       q    Type
REMARK                         _______ _______ _______ _____ _____    ______ ____
ROOT
ATOM      1  C   UNL     1       0.354   9.225  20.616  0.00  0.00    +0.000 C 
ATOM      2  O   UNL     1       0.158   8.592  21.656  0.00  0.00    +0.000 OA
ATOM      3  N   UNL     1       1.178   8.778  19.576  0.00  0.00    +0.000 N 
ATOM      4  C   UNL     1       1.608   9.516  18.367  0.00  0.00    +0.000 C 
ATOM      5  C   UNL     1       2.654   8.677  17.626  0.00  0.00    +0.000 C 
ATOM      6  C   UNL     1       2.739   7.462  18.484  0.00  0.00    +0.000 A 
ATOM      7  C   UNL     1       3.556   6.357  18.274  0.00  0.00    +0.000 A 
ATOM      8  C   UNL     1       3.510   5.323  19.214  0.00  0.00    +0.000 A 
ATOM      9  C   UNL     1       2.628   5.383  20.305  0.00  0.00    +0.000 A 
ATOM     10  C   UNL     1       1.808   6.503  20.492  0.00  0.00    +0.000 A 
ATOM     11  C   UNL     1       1.879   7.545  19.582  0.00  0.00    +0.000 A 
ENDROOT
BRANCH   1  15
ATOM     12  C   UNL     1      -1.658  13.054  20.334  0.00  0.00    +0.000 A 
ATOM     13  C   UNL     1      -1.902  12.035  19.413  0.00  0.00    +0.000 A 
ATOM     14  C   UNL     1      -1.230  10.806  19.510  0.00  0.00    +0.000 A 
ATOM     15  C   UNL     1      -0.307  10.570  20.541  0.00  0.00    +0.000 A 
ATOM     16  C   UNL     1      -0.030  11.618  21.418  0.00  0.00    +0.000 A 
ATOM     17  C   UNL     1      -0.751  12.814  21.363  0.00  0.00    +0.000 A 
BRANCH  12  18
ATOM     18  N   UNL     1      -2.452  14.204  20.362  0.00  0.00    +0.000 N 
ATOM     19  H   UNL     1      -2.325  14.773  21.193  0.00  0.00    +0.000 HD
ATOM     20  H   UNL     1      -3.432  14.035  20.157  0.00  0.00    +0.000 HD
ENDBRANCH  12  18
ENDBRANCH   1  15
BRANCH   8  21
ATOM     21  S   UNL     1       4.484   3.857  18.948  0.00  0.00    +0.000 S 
ATOM     22  O   UNL     1       5.348   3.704  20.103  0.00  0.00    +0.000 OA
ATOM     23  O   UNL     1       3.573   2.794  18.583  0.00  0.00    +0.000 OA
BRANCH  21  24
ATOM     24  N   UNL     1       5.443   4.255  17.657  0.00  0.00    +0.000 N 
ATOM     25  C   UNL     1       4.951   4.136  16.271  0.00  0.00    +0.000 C 
ATOM     26  C   UNL     1       6.014   4.994  15.544  0.00  0.00    +0.000 C 
ATOM     27  N   UNL     1       7.165   4.927  16.420  0.00  0.00    +0.000 N 
ATOM     28  C   UNL     1       6.793   4.614  17.703  0.00  0.00    +0.000 C 
ATOM     29  O   UNL     1       7.521   4.635  18.672  0.00  0.00    +0.000 OA
ATOM     30  H   UNL     1       8.035   5.412  16.261  0.00  0.00    +0.000 HD
BRANCH  26  31
ATOM     31  C   UNL     1       6.351   4.579  14.135  0.00  0.00    +0.000 A 
ATOM     32  C   UNL     1       5.566   3.625  13.466  0.00  0.00    +0.000 A 
ATOM     33  C   UNL     1       5.884   3.227  12.164  0.00  0.00    +0.000 A 
ATOM     34  C   UNL     1       6.985   3.779  11.515  0.00  0.00    +0.000 A 
ATOM     35  C   UNL     1       7.761   4.739  12.158  0.00  0.00    +0.000 A 
ATOM     36  C   UNL     1       7.444   5.139  13.458  0.00  0.00    +0.000 A 
ENDBRANCH  26  31
ENDBRANCH  21  24
ENDBRANCH   8  21
TORSDOF 5
ENDMDL
MODEL 2
REMARK VINA RESULT:      -9.9      0.180      1.193
REMARK  Name = 
REMARK  5 active torsions:
REMARK  status: ('A' for Active; 'I' for Inactive)
REMARK    1  A    between atoms: N_1  and  C_2
REMARK    2  A    between atoms: C_5  and  C_6
REMARK    3  A    between atoms: C_13  and  S_14
REMARK    4  A    between atoms: S_14  and  N_17
REMARK    5  A    between atoms: C_19  and  C_20
REMARK                            x       y       z     vdW  Elec       q    Type
REMARK                         _______ _______ _______ _____ _____    ______ ____
ROOT
ATOM      1  C   UNL     1       0.325   9.302  20.554  0.00  0.00    +0.000 C 
ATOM      2  O   UNL     1       0.109   8.673  21.593  0.00  0.00    +0.000 OA
ATOM      3  N   UNL     1       1.158   8.845  19.525  0.00  0.00    +0.000 N 
ATOM      4  C   UNL     1       1.610   9.577  18.321  0.00  0.00    +0.000 C 
ATOM      5  C   UNL     1       2.657   8.727  17.594  0.00  0.00    +0.000 C 
ATOM      6  C   UNL     1       2.719   7.513  18.455  0.00  0.00    +0.000 A 
ATOM      7  C   UNL     1       3.527   6.399  18.258  0.00  0.00    +0.000 A 
ATOM      8  C   UNL     1       3.460   5.367  19.198  0.00  0.00    +0.000 A 
ATOM      9  C   UNL     1       2.565   5.437  20.278  0.00  0.00    +0.000 A 
ATOM     10  C   UNL     1       1.753   6.566  20.453  0.00  0.00    +0.000 A 
ATOM     11  C   UNL     1       1.846   7.606  19.542  0.00  0.00    +0.000 A 
ENDROOT
BRANCH   1  15
ATOM     12  C   UNL     1      -1.434  13.260  20.360  0.00  0.00    +0.000 A 
ATOM     13  C   UNL     1      -0.413  12.961  21.263  0.00  0.00    +0.000 A 
ATOM     14  C   UNL     1       0.135  11.670  21.324  0.00  0.00    +0.000 A 
ATOM     15  C   UNL     1      -0.322  10.653  20.469  0.00  0.00    +0.000 A 
ATOM     16  C   UNL     1      -1.382  10.952  19.614  0.00  0.00    +0.000 A 
ATOM     17  C   UNL     1      -1.878  12.254  19.506  0.00  0.00    +0.000 A 
BRANCH  12  18
ATOM     18  N   UNL     1      -1.854  14.577  20.160  0.00  0.00    +0.000 N 
ATOM     19  H   UNL     1      -1.157  15.170  19.719  0.00  0.00    +0.000 HD
ATOM     20  H   UNL     1      -2.263  15.011  20.982  0.00  0.00    +0.000 HD
ENDBRANCH  12  18
ENDBRANCH   1  15
BRANCH   8  21
ATOM     21  S   UNL     1       4.422   3.892  18.947  0.00  0.00    +0.000 S 
ATOM     22  O   UNL     1       5.268   3.730  20.114  0.00  0.00    +0.000 OA
ATOM     23  O   UNL     1       3.506   2.837  18.570  0.00  0.00    +0.000 OA
BRANCH  21  24
ATOM     24  N   UNL     1       5.404   4.279  17.670  0.00  0.00    +0.000 N 
ATOM     25  C   UNL     1       4.928   4.171  16.276  0.00  0.00    +0.000 C 
ATOM     26  C   UNL     1       6.013   5.015  15.566  0.00  0.00    +0.000 C 
ATOM     27  N   UNL     1       7.151   4.930  16.457  0.00  0.00    +0.000 N 
ATOM     28  C   UNL     1       6.758   4.619  17.734  0.00  0.00    +0.000 C 
ATOM     29  O   UNL     1       7.473   4.627  18.712  0.00  0.00    +0.000 OA
ATOM     30  H   UNL     1       8.030   5.403  16.310  0.00  0.00    +0.000 HD
BRANCH  26  31
ATOM     31  C   UNL     1       6.362   4.599  14.161  0.00  0.00    +0.000 A 
ATOM     32  C   UNL     1       7.482   5.145  13.512  0.00  0.00    +0.000 A 
ATOM     33  C   UNL     1       7.800   4.773  12.202  0.00  0.00    +0.000 A 
ATOM     34  C   UNL     1       7.006   3.849  11.528  0.00  0.00    +0.000 A 
ATOM     35  C   UNL     1       5.903   3.284  12.164  0.00  0.00    +0.000 A 
ATOM     36  C   UNL     1       5.586   3.654  13.472  0.00  0.00    +0.000 A 
ENDBRANCH  26  31
ENDBRANCH  21  24
ENDBRANCH   8  21
TORSDOF 5
ENDMDL
MODEL 3
REMARK VINA RESULT:      -9.9      1.076      1.842
REMARK  Name = 
REMARK  5 active torsions:
REMARK  status: ('A' for Active; 'I' for Inactive)
REMARK    1  A    between atoms: N_1  and  C_2
REMARK    2  A    between atoms: C_5  and  C_6
REMARK    3  A    between atoms: C_13  and  S_14
REMARK    4  A    between atoms: S_14  and  N_17
REMARK    5  A    between atoms: C_19  and  C_20
REMARK                            x       y       z     vdW  Elec       q    Type
REMARK                         _______ _______ _______ _____ _____    ______ ____
ROOT
ATOM      1  C   UNL     1       1.072   9.970  18.573  0.00  0.00    +0.000 C 
ATOM      2  O   UNL     1       1.560  10.075  17.445  0.00  0.00    +0.000 OA
ATOM      3  N   UNL     1       1.351   8.912  19.447  0.00  0.00    +0.000 N 
ATOM      4  C   UNL     1       0.710   8.604  20.744  0.00  0.00    +0.000 C 
ATOM      5  C   UNL     1       1.222   7.246  21.235  0.00  0.00    +0.000 C 
ATOM      6  C   UNL     1       2.173   6.866  20.152  0.00  0.00    +0.000 A 
ATOM      7  C   UNL     1       2.929   5.702  20.086  0.00  0.00    +0.000 A 
ATOM      8  C   UNL     1       3.747   5.517  18.968  0.00  0.00    +0.000 A 
ATOM      9  C   UNL     1       3.837   6.502  17.972  0.00  0.00    +0.000 A 
ATOM     10  C   UNL     1       3.072   7.672  18.063  0.00  0.00    +0.000 A 
ATOM     11  C   UNL     1       2.232   7.841  19.152  0.00  0.00    +0.000 A 
ENDROOT
BRANCH   1  15
ATOM     12  C   UNL     1      -1.878  12.955  19.659  0.00  0.00    +0.000 A 
ATOM     13  C   UNL     1      -2.219  11.841  18.890  0.00  0.00    +0.000 A 
ATOM     14  C   UNL     1      -1.248  10.892  18.534  0.00  0.00    +0.000 A 
ATOM     15  C   UNL     1       0.084  11.034  18.953  0.00  0.00    +0.000 A 
ATOM     16  C   UNL     1       0.421  12.182  19.670  0.00  0.00    +0.000 A 
ATOM     17  C   UNL     1      -0.560  13.088  20.083  0.00  0.00    +0.000 A 
BRANCH  12  18
ATOM     18  N   UNL     1      -2.864  13.801  20.175  0.00  0.00    +0.000 N 
ATOM     19  H   UNL     1      -2.600  14.781  20.189  0.00  0.00    +0.000 HD
ATOM     20  H   UNL     1      -3.249  13.494  21.064  0.00  0.00    +0.000 HD
ENDBRANCH  12  18
ENDBRANCH   1  15
BRANCH   8  21
ATOM     21  S   UNL     1       4.788   4.075  18.876  0.00  0.00    +0.000 S 
ATOM     22  O   UNL     1       5.668   4.109  20.028  0.00  0.00    +0.000 OA
ATOM     23  O   UNL     1       3.925   2.933  18.660  0.00  0.00    +0.000 OA
BRANCH  21  24
ATOM     24  N   UNL     1       5.717   4.351  17.532  0.00  0.00    +0.000 N 
ATOM     25  C   UNL     1       5.143   4.268  16.174  0.00  0.00    +0.000 C 
ATOM     26  C   UNL     1       6.254   4.997  15.379  0.00  0.00    +0.000 C 
ATOM     27  N   UNL     1       7.434   4.817  16.198  0.00  0.00    +0.000 N 
ATOM     28  C   UNL     1       7.098   4.562  17.503  0.00  0.00    +0.000 C 
ATOM     29  O   UNL     1       7.872   4.517  18.434  0.00  0.00    +0.000 OA
ATOM     30  H   UNL     1       8.342   5.203  15.986  0.00  0.00    +0.000 HD
BRANCH  26  31
ATOM     31  C   UNL     1       6.471   4.530  13.963  0.00  0.00    +0.000 A 
ATOM     32  C   UNL     1       7.499   5.080  13.180  0.00  0.00    +0.000 A 
ATOM     33  C   UNL     1       7.693   4.660  11.861  0.00  0.00    +0.000 A 
ATOM     34  C   UNL     1       6.867   3.684  11.311  0.00  0.00    +0.000 A 
ATOM     35  C   UNL     1       5.855   3.116  12.080  0.00  0.00    +0.000 A 
ATOM     36  C   UNL     1       5.661   3.533  13.398  0.00  0.00    +0.000 A 
ENDBRANCH  26  31
ENDBRANCH  21  24
ENDBRANCH   8  21
TORSDOF 5
ENDMDL
MODEL 4
REMARK VINA RESULT:      -9.7      1.031      1.790
REMARK  Name = 
REMARK  5 active torsions:
REMARK  status: ('A' for Active; 'I' for Inactive)
REMARK    1  A    between atoms: N_1  and  C_2
REMARK    2  A    between atoms: C_5  and  C_6
REMARK    3  A    between atoms: C_13  and  S_14
REMARK    4  A    between atoms: S_14  and  N_17
REMARK    5  A    between atoms: C_19  and  C_20
REMARK                            x       y       z     vdW  Elec       q    Type
REMARK                         _______ _______ _______ _____ _____    ______ ____
ROOT
ATOM      1  C   UNL     1       1.113  10.017  18.697  0.00  0.00    +0.000 C 
ATOM      2  O   UNL     1       1.572  10.129  17.557  0.00  0.00    +0.000 OA
ATOM      3  N   UNL     1       1.369   8.926  19.536  0.00  0.00    +0.000 N 
ATOM      4  C   UNL     1       0.752   8.615  20.844  0.00  0.00    +0.000 C 
ATOM      5  C   UNL     1       1.214   7.223  21.287  0.00  0.00    +0.000 C 
ATOM      6  C   UNL     1       2.114   6.827  20.167  0.00  0.00    +0.000 A 
ATOM      7  C   UNL     1       2.812   5.631  20.050  0.00  0.00    +0.000 A 
ATOM      8  C   UNL     1       3.587   5.437  18.903  0.00  0.00    +0.000 A 
ATOM      9  C   UNL     1       3.693   6.442  17.928  0.00  0.00    +0.000 A 
ATOM     10  C   UNL     1       2.987   7.644  18.071  0.00  0.00    +0.000 A 
ATOM     11  C   UNL     1       2.189   7.824  19.189  0.00  0.00    +0.000 A 
ENDROOT
BRANCH   1  15
ATOM     12  C   UNL     1      -1.454  13.276  19.955  0.00  0.00    +0.000 A 
ATOM     13  C   UNL     1      -0.083  13.287  20.217  0.00  0.00    +0.000 A 
ATOM     14  C   UNL     1       0.731  12.216  19.816  0.00  0.00    +0.000 A 
ATOM     15  C   UNL     1       0.189  11.116  19.132  0.00  0.00    +0.000 A 
ATOM     16  C   UNL     1      -1.191  11.093  18.931  0.00  0.00    +0.000 A 
ATOM     17  C   UNL     1      -1.988  12.190  19.268  0.00  0.00    +0.000 A 
BRANCH  12  18
ATOM     18  N   UNL     1      -2.238  14.411  20.179  0.00  0.00    +0.000 N 
ATOM     19  H   UNL     1      -2.329  15.015  19.369  0.00  0.00    +0.000 HD
ATOM     20  H   UNL     1      -1.989  14.927  21.018  0.00  0.00    +0.000 HD
ENDBRANCH  12  18
ENDBRANCH   1  15
BRANCH   8  21
ATOM     21  S   UNL     1       4.555   3.952  18.744  0.00  0.00    +0.000 S 
ATOM     22  O   UNL     1       5.409   3.871  19.914  0.00  0.00    +0.000 OA
ATOM     23  O   UNL     1       3.642   2.871  18.443  0.00  0.00    +0.000 OA
BRANCH  21  24
ATOM     24  N   UNL     1       5.528   4.258  17.439  0.00  0.00    +0.000 N 
ATOM     25  C   UNL     1       5.014   4.155  16.058  0.00  0.00    +0.000 C 
ATOM     26  C   UNL     1       6.130   4.921  15.308  0.00  0.00    +0.000 C 
ATOM     27  N   UNL     1       7.282   4.783  16.175  0.00  0.00    +0.000 N 
ATOM     28  C   UNL     1       6.901   4.517  17.466  0.00  0.00    +0.000 C 
ATOM     29  O   UNL     1       7.638   4.499  18.427  0.00  0.00    +0.000 OA
ATOM     30  H   UNL     1       8.183   5.200  16.000  0.00  0.00    +0.000 HD
BRANCH  26  31
ATOM     31  C   UNL     1       6.420   4.462  13.903  0.00  0.00    +0.000 A 
ATOM     32  C   UNL     1       5.644   3.453  13.308  0.00  0.00    +0.000 A 
ATOM     33  C   UNL     1       5.919   3.013  12.010  0.00  0.00    +0.000 A 
ATOM     34  C   UNL     1       6.970   3.578  11.291  0.00  0.00    +0.000 A 
ATOM     35  C   UNL     1       7.736   4.591  11.860  0.00  0.00    +0.000 A 
ATOM     36  C   UNL     1       7.461   5.032  13.156  0.00  0.00    +0.000 A 
ENDBRANCH  26  31
ENDBRANCH  21  24
ENDBRANCH   8  21
TORSDOF 5
ENDMDL
MODEL 5
REMARK VINA RESULT:      -9.7      4.238     11.031
REMARK  Name = 
REMARK  5 active torsions:
REMARK  status: ('A' for Active; 'I' for Inactive)
REMARK    1  A    between atoms: N_1  and  C_2
REMARK    2  A    between atoms: C_5  and  C_6
REMARK    3  A    between atoms: C_13  and  S_14
REMARK    4  A    between atoms: S_14  and  N_17
REMARK    5  A    between atoms: C_19  and  C_20
REMARK                            x       y       z     vdW  Elec       q    Type
REMARK                         _______ _______ _______ _____ _____    ______ ____
ROOT
ATOM      1  C   UNL     1       1.941   5.759  20.107  0.00  0.00    +0.000 C 
ATOM      2  O   UNL     1       1.359   5.636  21.187  0.00  0.00    +0.000 OA
ATOM      3  N   UNL     1       2.060   6.973  19.420  0.00  0.00    +0.000 N 
ATOM      4  C   UNL     1       2.591   7.205  18.058  0.00  0.00    +0.000 C 
ATOM      5  C   UNL     1       2.339   8.666  17.675  0.00  0.00    +0.000 C 
ATOM      6  C   UNL     1       1.673   9.195  18.898  0.00  0.00    +0.000 A 
ATOM      7  C   UNL     1       1.218  10.493  19.097  0.00  0.00    +0.000 A 
ATOM      8  C   UNL     1       0.592  10.787  20.312  0.00  0.00    +0.000 A 
ATOM      9  C   UNL     1       0.476   9.811  21.315  0.00  0.00    +0.000 A 
ATOM     10  C   UNL     1       0.950   8.512  21.096  0.00  0.00    +0.000 A 
ATOM     11  C   UNL     1       1.537   8.208  19.879  0.00  0.00    +0.000 A 
ENDROOT
BRANCH   1  15
ATOM     12  C   UNL     1       3.598   2.090  18.498  0.00  0.00    +0.000 A 
ATOM     13  C   UNL     1       4.365   2.951  19.285  0.00  0.00    +0.000 A 
ATOM     14  C   UNL     1       3.817   4.143  19.785  0.00  0.00    +0.000 A 
ATOM     15  C   UNL     1       2.483   4.490  19.516  0.00  0.00    +0.000 A 
ATOM     16  C   UNL     1       1.749   3.650  18.681  0.00  0.00    +0.000 A 
ATOM     17  C   UNL     1       2.273   2.431  18.242  0.00  0.00    +0.000 A 
BRANCH  12  18
ATOM     18  N   UNL     1       4.068   0.820  18.154  0.00  0.00    +0.000 N 
ATOM     19  H   UNL     1       4.979   0.825  17.706  0.00  0.00    +0.000 HD
ATOM     20  H   UNL     1       3.394   0.252  17.650  0.00  0.00    +0.000 HD
ENDBRANCH  12  18
ENDBRANCH   1  15
BRANCH   8  21
ATOM     21  S   UNL     1       0.058  12.453  20.639  0.00  0.00    +0.000 S 
ATOM     22  O   UNL     1       0.094  12.639  22.077  0.00  0.00    +0.000 OA
ATOM     23  O   UNL     1       0.824  13.329  19.779  0.00  0.00    +0.000 OA
BRANCH  21  24
ATOM     24  N   UNL     1      -1.534  12.450  20.177  0.00  0.00    +0.000 N 
ATOM     25  C   UNL     1      -2.619  12.598  21.167  0.00  0.00    +0.000 C 
ATOM     26  C   UNL     1      -3.790  12.947  20.217  0.00  0.00    +0.000 C 
ATOM     27  N   UNL     1      -3.388  12.368  18.952  0.00  0.00    +0.000 N 
ATOM     28  C   UNL     1      -2.028  12.199  18.894  0.00  0.00    +0.000 C 
ATOM     29  O   UNL     1      -1.400  11.877  17.910  0.00  0.00    +0.000 OA
ATOM     30  H   UNL     1      -3.915  12.443  18.095  0.00  0.00    +0.000 HD
BRANCH  26  31
ATOM     31  C   UNL     1      -5.155  12.477  20.647  0.00  0.00    +0.000 A 
ATOM     32  C   UNL     1      -5.683  12.861  21.891  0.00  0.00    +0.000 A 
ATOM     33  C   UNL     1      -6.943  12.413  22.300  0.00  0.00    +0.000 A 
ATOM     34  C   UNL     1      -7.691  11.582  21.470  0.00  0.00    +0.000 A 
ATOM     35  C   UNL     1      -7.189  11.209  20.226  0.00  0.00    +0.000 A 
ATOM     36  C   UNL     1      -5.932  11.655  19.816  0.00  0.00    +0.000 A 
ENDBRANCH  26  31
ENDBRANCH  21  24
ENDBRANCH   8  21
TORSDOF 5
ENDMDL
MODEL 6
REMARK VINA RESULT:      -9.6      1.101      1.156
REMARK  Name = 
REMARK  5 active torsions:
REMARK  status: ('A' for Active; 'I' for Inactive)
REMARK    1  A    between atoms: N_1  and  C_2
REMARK    2  A    between atoms: C_5  and  C_6
REMARK    3  A    between atoms: C_13  and  S_14
REMARK    4  A    between atoms: S_14  and  N_17
REMARK    5  A    between atoms: C_19  and  C_20
REMARK                            x       y       z     vdW  Elec       q    Type
REMARK                         _______ _______ _______ _____ _____    ______ ____
ROOT
ATOM      1  C   UNL     1       0.754   9.515  21.382  0.00  0.00    +0.000 C 
ATOM      2  O   UNL     1       0.771   8.879  22.438  0.00  0.00    +0.000 OA
ATOM      3  N   UNL     1       1.195   9.002  20.156  0.00  0.00    +0.000 N 
ATOM      4  C   UNL     1       1.367   9.718  18.873  0.00  0.00    +0.000 C 
ATOM      5  C   UNL     1       2.051   8.779  17.874  0.00  0.00    +0.000 C 
ATOM      6  C   UNL     1       2.211   7.536  18.680  0.00  0.00    +0.000 A 
ATOM      7  C   UNL     1       2.788   6.345  18.256  0.00  0.00    +0.000 A 
ATOM      8  C   UNL     1       2.870   5.295  19.176  0.00  0.00    +0.000 A 
ATOM      9  C   UNL     1       2.338   5.430  20.469  0.00  0.00    +0.000 A 
ATOM     10  C   UNL     1       1.753   6.637  20.871  0.00  0.00    +0.000 A 
ATOM     11  C   UNL     1       1.705   7.692  19.973  0.00  0.00    +0.000 A 
ENDROOT
BRANCH   1  15
ATOM     12  C   UNL     1      -0.677  13.585  21.807  0.00  0.00    +0.000 A 
ATOM     13  C   UNL     1      -1.297  12.523  22.467  0.00  0.00    +0.000 A 
ATOM     14  C   UNL     1      -0.830  11.209  22.306  0.00  0.00    +0.000 A 
ATOM     15  C   UNL     1       0.278  10.934  21.488  0.00  0.00    +0.000 A 
ATOM     16  C   UNL     1       0.849  11.997  20.790  0.00  0.00    +0.000 A 
ATOM     17  C   UNL     1       0.428  13.312  21.006  0.00  0.00    +0.000 A 
BRANCH  12  18
ATOM     18  N   UNL     1      -1.010  14.909  22.105  0.00  0.00    +0.000 N 
ATOM     19  H   UNL     1      -1.963  15.158  21.864  0.00  0.00    +0.000 HD
ATOM     20  H   UNL     1      -0.337  15.591  21.767  0.00  0.00    +0.000 HD
ENDBRANCH  12  18
ENDBRANCH   1  15
BRANCH   8  21
ATOM     21  S   UNL     1       3.535   3.728  18.657  0.00  0.00    +0.000 S 
ATOM     22  O   UNL     1       4.203   3.146  19.805  0.00  0.00    +0.000 OA
ATOM     23  O   UNL     1       2.469   3.003  18.000  0.00  0.00    +0.000 OA
BRANCH  21  24
ATOM     24  N   UNL     1       4.703   4.145  17.559  0.00  0.00    +0.000 N 
ATOM     25  C   UNL     1       4.436   4.115  16.107  0.00  0.00    +0.000 C 
ATOM     26  C   UNL     1       5.633   4.959  15.606  0.00  0.00    +0.000 C 
ATOM     27  N   UNL     1       6.625   4.798  16.649  0.00  0.00    +0.000 N 
ATOM     28  C   UNL     1       6.040   4.440  17.838  0.00  0.00    +0.000 C 
ATOM     29  O   UNL     1       6.602   4.382  18.909  0.00  0.00    +0.000 OA
ATOM     30  H   UNL     1       7.526   5.251  16.657  0.00  0.00    +0.000 HD
BRANCH  26  31
ATOM     31  C   UNL     1       6.176   4.598  14.248  0.00  0.00    +0.000 A 
ATOM     32  C   UNL     1       5.534   3.631  13.457  0.00  0.00    +0.000 A 
ATOM     33  C   UNL     1       6.044   3.283  12.202  0.00  0.00    +0.000 A 
ATOM     34  C   UNL     1       7.197   3.898  11.723  0.00  0.00    +0.000 A 
ATOM     35  C   UNL     1       7.834   4.872  12.487  0.00  0.00    +0.000 A 
ATOM     36  C   UNL     1       7.325   5.222  13.739  0.00  0.00    +0.000 A 
ENDBRANCH  26  31
ENDBRANCH  21  24
ENDBRANCH   8  21
TORSDOF 5
ENDMDL
MODEL 7
REMARK VINA RESULT:      -9.4      4.273     11.025
REMARK  Name = 
REMARK  5 active torsions:
REMARK  status: ('A' for Active; 'I' for Inactive)
REMARK    1  A    between atoms: N_1  and  C_2
REMARK    2  A    between atoms: C_5  and  C_6
REMARK    3  A    between atoms: C_13  and  S_14
REMARK    4  A    between atoms: S_14  and  N_17
REMARK    5  A    between atoms: C_19  and  C_20
REMARK                            x       y       z     vdW  Elec       q    Type
REMARK                         _______ _______ _______ _____ _____    ______ ____
ROOT
ATOM      1  C   UNL     1       1.992   5.830  20.190  0.00  0.00    +0.000 C 
ATOM      2  O   UNL     1       1.360   5.812  21.250  0.00  0.00    +0.000 OA
ATOM      3  N   UNL     1       2.150   6.973  19.397  0.00  0.00    +0.000 N 
ATOM      4  C   UNL     1       2.743   7.073  18.045  0.00  0.00    +0.000 C 
ATOM      5  C   UNL     1       2.519   8.493  17.514  0.00  0.00    +0.000 C 
ATOM      6  C   UNL     1       1.802   9.137  18.650  0.00  0.00    +0.000 A 
ATOM      7  C   UNL     1       1.346  10.449  18.704  0.00  0.00    +0.000 A 
ATOM      8  C   UNL     1       0.668  10.858  19.855  0.00  0.00    +0.000 A 
ATOM      9  C   UNL     1       0.500   9.983  20.940  0.00  0.00    +0.000 A 
ATOM     10  C   UNL     1       0.975   8.667  20.868  0.00  0.00    +0.000 A 
ATOM     11  C   UNL     1       1.615   8.247  19.713  0.00  0.00    +0.000 A 
ENDROOT
BRANCH   1  15
ATOM     12  C   UNL     1       3.498   1.996  18.842  0.00  0.00    +0.000 A 
ATOM     13  C   UNL     1       2.129   2.260  18.898  0.00  0.00    +0.000 A 
ATOM     14  C   UNL     1       1.658   3.502  19.352  0.00  0.00    +0.000 A 
ATOM     15  C   UNL     1       2.552   4.510  19.748  0.00  0.00    +0.000 A 
ATOM     16  C   UNL     1       3.913   4.209  19.742  0.00  0.00    +0.000 A 
ATOM     17  C   UNL     1       4.383   3.000  19.224  0.00  0.00    +0.000 A 
BRANCH  12  18
ATOM     18  N   UNL     1       3.982   0.842  18.219  0.00  0.00    +0.000 N 
ATOM     19  H   UNL     1       3.785   0.797  17.224  0.00  0.00    +0.000 HD
ATOM     20  H   UNL     1       3.740  -0.020  18.698  0.00  0.00    +0.000 HD
ENDBRANCH  12  18
ENDBRANCH   1  15
BRANCH   8  21
ATOM     21  S   UNL     1       0.131  12.549  19.998  0.00  0.00    +0.000 S 
ATOM     22  O   UNL     1       0.382  12.963  21.365  0.00  0.00    +0.000 OA
ATOM     23  O   UNL     1       0.723  13.285  18.902  0.00  0.00    +0.000 OA
BRANCH  21  24
ATOM     24  N   UNL     1      -1.511  12.454  19.801  0.00  0.00    +0.000 N 
ATOM     25  C   UNL     1      -2.438  12.852  20.879  0.00  0.00    +0.000 C 
ATOM     26  C   UNL     1      -3.747  12.975  20.063  0.00  0.00    +0.000 C 
ATOM     27  N   UNL     1      -3.527  12.101  18.930  0.00  0.00    +0.000 N 
ATOM     28  C   UNL     1      -2.188  11.906  18.708  0.00  0.00    +0.000 C 
ATOM     29  O   UNL     1      -1.709  11.346  17.746  0.00  0.00    +0.000 OA
ATOM     30  H   UNL     1      -4.180  11.972  18.172  0.00  0.00    +0.000 HD
BRANCH  26  31
ATOM     31  C   UNL     1      -5.019  12.641  20.798  0.00  0.00    +0.000 A 
ATOM     32  C   UNL     1      -6.044  11.923  20.160  0.00  0.00    +0.000 A 
ATOM     33  C   UNL     1      -7.232  11.624  20.834  0.00  0.00    +0.000 A 
ATOM     34  C   UNL     1      -7.408  12.034  22.153  0.00  0.00    +0.000 A 
ATOM     35  C   UNL     1      -6.394  12.730  22.805  0.00  0.00    +0.000 A 
ATOM     36  C   UNL     1      -5.206  13.028  22.134  0.00  0.00    +0.000 A 
ENDBRANCH  26  31
ENDBRANCH  21  24
ENDBRANCH   8  21
TORSDOF 5
ENDMDL
MODEL 8
REMARK VINA RESULT:      -9.4      3.791     10.397
REMARK  Name = 
REMARK  5 active torsions:
REMARK  status: ('A' for Active; 'I' for Inactive)
REMARK    1  A    between atoms: N_1  and  C_2
REMARK    2  A    between atoms: C_5  and  C_6
REMARK    3  A    between atoms: C_13  and  S_14
REMARK    4  A    between atoms: S_14  and  N_17
REMARK    5  A    between atoms: C_19  and  C_20
REMARK                            x       y       z     vdW  Elec       q    Type
REMARK                         _______ _______ _______ _____ _____    ______ ____
ROOT
ATOM      1  C   UNL     1       2.183   6.825  19.861  0.00  0.00    +0.000 C 
ATOM      2  O   UNL     1       1.705   6.415  20.921  0.00  0.00    +0.000 OA
ATOM      3  N   UNL     1       1.943   8.103  19.341  0.00  0.00    +0.000 N 
ATOM      4  C   UNL     1       2.329   8.639  18.017  0.00  0.00    +0.000 C 
ATOM      5  C   UNL     1       1.682  10.016  17.837  0.00  0.00    +0.000 C 
ATOM      6  C   UNL     1       0.958  10.187  19.128  0.00  0.00    +0.000 A 
ATOM      7  C   UNL     1       0.185  11.279  19.504  0.00  0.00    +0.000 A 
ATOM      8  C   UNL     1      -0.439  11.238  20.754  0.00  0.00    +0.000 A 
ATOM      9  C   UNL     1      -0.246  10.148  21.619  0.00  0.00    +0.000 A 
ATOM     10  C   UNL     1       0.545   9.062  21.222  0.00  0.00    +0.000 A 
ATOM     11  C   UNL     1       1.134   9.084  19.968  0.00  0.00    +0.000 A 
ENDROOT
BRANCH   1  15
ATOM     12  C   UNL     1       4.493   3.968  17.560  0.00  0.00    +0.000 A 
ATOM     13  C   UNL     1       3.122   4.129  17.355  0.00  0.00    +0.000 A 
ATOM     14  C   UNL     1       2.386   5.047  18.119  0.00  0.00    +0.000 A 
ATOM     15  C   UNL     1       3.013   5.834  19.099  0.00  0.00    +0.000 A 
ATOM     16  C   UNL     1       4.371   5.620  19.332  0.00  0.00    +0.000 A 
ATOM     17  C   UNL     1       5.115   4.757  18.523  0.00  0.00    +0.000 A 
BRANCH  12  18
ATOM     18  N   UNL     1       5.266   3.201  16.685  0.00  0.00    +0.000 N 
ATOM     19  H   UNL     1       5.418   3.635  15.780  0.00  0.00    +0.000 HD
ATOM     20  H   UNL     1       4.962   2.235  16.602  0.00  0.00    +0.000 HD
ENDBRANCH  12  18
ENDBRANCH   1  15
BRANCH   8  21
ATOM     21  S   UNL     1      -1.380  12.644  21.308  0.00  0.00    +0.000 S 
ATOM     22  O   UNL     1      -2.618  12.653  20.553  0.00  0.00    +0.000 OA
ATOM     23  O   UNL     1      -1.417  12.597  22.754  0.00  0.00    +0.000 OA
BRANCH  21  24
ATOM     24  N   UNL     1      -0.479  13.939  20.802  0.00  0.00    +0.000 N 
ATOM     25  C   UNL     1      -0.953  14.828  19.723  0.00  0.00    +0.000 C 
ATOM     26  C   UNL     1      -0.007  16.032  19.944  0.00  0.00    +0.000 C 
ATOM     27  N   UNL     1       1.144  15.447  20.600  0.00  0.00    +0.000 N 
ATOM     28  C   UNL     1       0.815  14.266  21.216  0.00  0.00    +0.000 C 
ATOM     29  O   UNL     1       1.535  13.637  21.960  0.00  0.00    +0.000 OA
ATOM     30  H   UNL     1       1.946  15.968  20.921  0.00  0.00    +0.000 HD
BRANCH  26  31
ATOM     31  C   UNL     1       0.378  16.808  18.711  0.00  0.00    +0.000 A 
ATOM     32  C   UNL     1      -0.585  17.550  18.006  0.00  0.00    +0.000 A 
ATOM     33  C   UNL     1      -0.234  18.259  16.853  0.00  0.00    +0.000 A 
ATOM     34  C   UNL     1       1.080  18.239  16.394  0.00  0.00    +0.000 A 
ATOM     35  C   UNL     1       2.049  17.524  17.093  0.00  0.00    +0.000 A 
ATOM     36  C   UNL     1       1.701  16.816  18.245  0.00  0.00    +0.000 A 
ENDBRANCH  26  31
ENDBRANCH  21  24
ENDBRANCH   8  21
TORSDOF 5
ENDMDL
MODEL 9
REMARK VINA RESULT:      -9.3      4.002     10.737
REMARK  Name = 
REMARK  5 active torsions:
REMARK  status: ('A' for Active; 'I' for Inactive)
REMARK    1  A    between atoms: N_1  and  C_2
REMARK    2  A    between atoms: C_5  and  C_6
REMARK    3  A    between atoms: C_13  and  S_14
REMARK    4  A    between atoms: S_14  and  N_17
REMARK    5  A    between atoms: C_19  and  C_20
REMARK                            x       y       z     vdW  Elec       q    Type
REMARK                         _______ _______ _______ _____ _____    ______ ____
ROOT
ATOM      1  C   UNL     1       2.340   8.111  18.101  0.00  0.00    +0.000 C 
ATOM      2  O   UNL     1       2.328   8.929  17.179  0.00  0.00    +0.000 OA
ATOM      3  N   UNL     1       1.748   8.335  19.350  0.00  0.00    +0.000 N 
ATOM      4  C   UNL     1       1.837   7.500  20.568  0.00  0.00    +0.000 C 
ATOM      5  C   UNL     1       1.181   8.253  21.730  0.00  0.00    +0.000 C 
ATOM      6  C   UNL     1       0.726   9.507  21.065  0.00  0.00    +0.000 A 
ATOM      7  C   UNL     1       0.060  10.568  21.667  0.00  0.00    +0.000 A 
ATOM      8  C   UNL     1      -0.260  11.674  20.875  0.00  0.00    +0.000 A 
ATOM      9  C   UNL     1       0.040  11.685  19.503  0.00  0.00    +0.000 A 
ATOM     10  C   UNL     1       0.704  10.601  18.914  0.00  0.00    +0.000 A 
ATOM     11  C   UNL     1       1.055   9.519  19.707  0.00  0.00    +0.000 A 
ENDROOT
BRANCH   1  15
ATOM     12  C   UNL     1       4.413   4.388  17.301  0.00  0.00    +0.000 A 
ATOM     13  C   UNL     1       3.087   4.404  17.735  0.00  0.00    +0.000 A 
ATOM     14  C   UNL     1       2.435   5.618  18.004  0.00  0.00    +0.000 A 
ATOM     15  C   UNL     1       3.098   6.844  17.832  0.00  0.00    +0.000 A 
ATOM     16  C   UNL     1       4.440   6.809  17.456  0.00  0.00    +0.000 A 
ATOM     17  C   UNL     1       5.065   5.605  17.120  0.00  0.00    +0.000 A 
BRANCH  12  18
ATOM     18  N   UNL     1       5.009   3.207  16.852  0.00  0.00    +0.000 N 
ATOM     19  H   UNL     1       5.335   2.600  17.597  0.00  0.00    +0.000 HD
ATOM     20  H   UNL     1       5.713   3.346  16.133  0.00  0.00    +0.000 HD
ENDBRANCH  12  18
ENDBRANCH   1  15
BRANCH   8  21
ATOM     21  S   UNL     1      -1.176  13.024  21.586  0.00  0.00    +0.000 S 
ATOM     22  O   UNL     1      -2.508  12.986  21.011  0.00  0.00    +0.000 OA
ATOM     23  O   UNL     1      -1.009  12.951  23.021  0.00  0.00    +0.000 OA
BRANCH  21  24
ATOM     24  N   UNL     1      -0.415  14.369  20.989  0.00  0.00    +0.000 N 
ATOM     25  C   UNL     1      -1.008  15.163  19.895  0.00  0.00    +0.000 C 
ATOM     26  C   UNL     1      -0.165  16.454  20.027  0.00  0.00    +0.000 C 
ATOM     27  N   UNL     1       1.058  16.002  20.658  0.00  0.00    +0.000 N 
ATOM     28  C   UNL     1       0.860  14.826  21.335  0.00  0.00    +0.000 C 
ATOM     29  O   UNL     1       1.660  14.296  22.074  0.00  0.00    +0.000 OA
ATOM     30  H   UNL     1       1.822  16.605  20.924  0.00  0.00    +0.000 HD
BRANCH  26  31
ATOM     31  C   UNL     1       0.102  17.205  18.748  0.00  0.00    +0.000 A 
ATOM     32  C   UNL     1       1.381  17.193  18.168  0.00  0.00    +0.000 A 
ATOM     33  C   UNL     1       1.636  17.901  16.989  0.00  0.00    +0.000 A 
ATOM     34  C   UNL     1       0.617  18.624  16.376  0.00  0.00    +0.000 A 
ATOM     35  C   UNL     1      -0.661  18.631  16.929  0.00  0.00    +0.000 A 
ATOM     36  C   UNL     1      -0.917  17.923  18.105  0.00  0.00    +0.000 A 
ENDBRANCH  26  31
ENDBRANCH  21  24
ENDBRANCH   8  21
TORSDOF 5
ENDMDL
