MODEL 1
REMARK VINA RESULT:      -8.1      0.000      0.000
REMARK  Name = 
REMARK  10 active torsions:
REMARK  status: ('A' for Active; 'I' for Inactive)
REMARK    1  A    between atoms: C_1  and  C_2
REMARK    2  A    between atoms: C_2  and  C_4
REMARK    3  A    between atoms: C_5  and  O_6
REMARK    4  A    between atoms: O_6  and  C_7
REMARK    5  A    between atoms: C_7  and  C_8
REMARK    6  A    between atoms: C_8  and  C_9
REMARK    7  A    between atoms: C_9  and  C_10
REMARK    8  A    between atoms: C_10  and  N_11
REMARK    9  A    between atoms: N_14  and  C_15
REMARK   10  A    between atoms: C_27  and  C_28
REMARK                            x       y       z     vdW  Elec       q    Type
REMARK                         _______ _______ _______ _____ _____    ______ ____
ROOT
ATOM      1  C   UNL     1       6.870   8.442  17.614  0.00  0.00    +0.000 C 
ENDROOT
BRANCH   1   2
ATOM      2  O   UNL     1       6.495   7.345  16.777  0.00  0.00    +0.000 OA
BRANCH   2   4
ATOM      3  C   UNL     1       6.003   5.376  18.070  0.00  0.00    +0.000 A 
ATOM      4  C   UNL     1       5.570   6.515  17.381  0.00  0.00    +0.000 A 
ATOM      5  C   UNL     1       4.190   6.778  17.317  0.00  0.00    +0.000 A 
ATOM      6  C   UNL     1       3.261   5.984  17.984  0.00  0.00    +0.000 A 
ATOM      7  C   UNL     1       3.670   4.863  18.703  0.00  0.00    +0.000 A 
ATOM      8  C   UNL     1       2.732   4.006  19.439  0.00  0.00    +0.000 A 
ATOM      9  C   UNL     1       1.267   4.320  19.569  0.00  0.00    +0.000 C 
ATOM     10  C   UNL     1       3.216   2.904  20.026  0.00  0.00    +0.000 A 
ATOM     11  C   UNL     1       4.635   2.526  20.012  0.00  0.00    +0.000 A 
ATOM     12  O   UNL     1       5.008   1.495  20.556  0.00  0.00    +0.000 OA
ATOM     13  O   UNL     1       5.499   3.416  19.405  0.00  0.00    +0.000 OA
ATOM     14  C   UNL     1       5.043   4.563  18.710  0.00  0.00    +0.000 A 
BRANCH   3  16
ATOM     15  C   UNL     1       8.245   5.371  19.355  0.00  0.00    +0.000 C 
ATOM     16  C   UNL     1       7.442   4.999  18.136  0.00  0.00    +0.000 C 
ATOM     17  O   UNL     1       7.960   4.391  17.201  0.00  0.00    +0.000 OA
ENDBRANCH   3  16
ENDBRANCH   2   4
ENDBRANCH   1   2
BRANCH   1  18
ATOM     18  C   UNL     1       8.371   8.669  17.690  0.00  0.00    +0.000 C 
BRANCH  18  19
ATOM     19  C   UNL     1       8.673   9.736  18.757  0.00  0.00    +0.000 C 
BRANCH  19  20
ATOM     20  C   UNL     1       9.031  11.121  18.174  0.00  0.00    +0.000 C 
BRANCH  20  21
ATOM     21  N   UNL     1      10.242  11.686  18.785  0.00  0.00    +0.000 NA
ATOM     22  C   UNL     1      10.235  13.170  18.758  0.00  0.00    +0.000 C 
ATOM     23  C   UNL     1       9.125  13.793  19.625  0.00  0.00    +0.000 C 
ATOM     24  N   UNL     1       9.257  13.333  21.013  0.00  0.00    +0.000 N 
ATOM     25  C   UNL     1       9.370  11.874  21.197  0.00  0.00    +0.000 C 
ATOM     26  C   UNL     1      10.392  11.266  20.201  0.00  0.00    +0.000 C 
BRANCH  24  27
ATOM     27  C   UNL     1       9.455  14.216  22.054  0.00  0.00    +0.000 A 
ATOM     28  C   UNL     1       8.738  14.104  23.255  0.00  0.00    +0.000 A 
ATOM     29  C   UNL     1       8.901  15.027  24.297  0.00  0.00    +0.000 A 
ATOM     30  C   UNL     1       9.790  16.081  24.153  0.00  0.00    +0.000 A 
ATOM     31 CL   UNL     1       9.977  17.232  25.415  0.00  0.00    +0.000 Cl
ATOM     32  C   UNL     1      10.529  16.214  22.985  0.00  0.00    +0.000 A 
ATOM     33  C   UNL     1      10.363  15.286  21.955  0.00  0.00    +0.000 A 
ENDBRANCH  24  27
ENDBRANCH  20  21
ENDBRANCH  19  20
ENDBRANCH  18  19
ENDBRANCH   1  18
TORSDOF 8
ENDMDL
MODEL 2
REMARK VINA RESULT:      -8.0      1.288      1.705
REMARK  Name = 
REMARK  10 active torsions:
REMARK  status: ('A' for Active; 'I' for Inactive)
REMARK    1  A    between atoms: C_1  and  C_2
REMARK    2  A    between atoms: C_2  and  C_4
REMARK    3  A    between atoms: C_5  and  O_6
REMARK    4  A    between atoms: O_6  and  C_7
REMARK    5  A    between atoms: C_7  and  C_8
REMARK    6  A    between atoms: C_8  and  C_9
REMARK    7  A    between atoms: C_9  and  C_10
REMARK    8  A    between atoms: C_10  and  N_11
REMARK    9  A    between atoms: N_14  and  C_15
REMARK   10  A    between atoms: C_27  and  C_28
REMARK                            x       y       z     vdW  Elec       q    Type
REMARK                         _______ _______ _______ _____ _____    ______ ____
ROOT
ATOM      1  C   UNL     1       7.995   8.278  18.066  0.00  0.00    +0.000 C 
ENDROOT
BRANCH   1   2
ATOM      2  O   UNL     1       7.662   7.388  16.996  0.00  0.00    +0.000 OA
BRANCH   2   4
ATOM      3  C   UNL     1       6.557   5.505  18.007  0.00  0.00    +0.000 A 
ATOM      4  C   UNL     1       6.503   6.678  17.244  0.00  0.00    +0.000 A 
ATOM      5  C   UNL     1       5.260   7.097  16.740  0.00  0.00    +0.000 A 
ATOM      6  C   UNL     1       4.080   6.423  17.046  0.00  0.00    +0.000 A 
ATOM      7  C   UNL     1       4.103   5.272  17.831  0.00  0.00    +0.000 A 
ATOM      8  C   UNL     1       2.885   4.537  18.197  0.00  0.00    +0.000 A 
ATOM      9  C   UNL     1       1.503   5.019  17.851  0.00  0.00    +0.000 C 
ATOM     10  C   UNL     1       3.024   3.395  18.882  0.00  0.00    +0.000 A 
ATOM     11  C   UNL     1       4.316   2.856  19.322  0.00  0.00    +0.000 A 
ATOM     12  O   UNL     1       4.372   1.795  19.931  0.00  0.00    +0.000 OA
ATOM     13  O   UNL     1       5.426   3.633  19.053  0.00  0.00    +0.000 OA
ATOM     14  C   UNL     1       5.355   4.816  18.277  0.00  0.00    +0.000 A 
BRANCH   3  16
ATOM     15  C   UNL     1       8.343   5.428  19.872  0.00  0.00    +0.000 C 
ATOM     16  C   UNL     1       7.842   4.966  18.528  0.00  0.00    +0.000 C 
ATOM     17  O   UNL     1       8.482   4.154  17.863  0.00  0.00    +0.000 OA
ENDBRANCH   3  16
ENDBRANCH   2   4
ENDBRANCH   1   2
BRANCH   1  18
ATOM     18  C   UNL     1       7.889   9.747  17.695  0.00  0.00    +0.000 C 
BRANCH  18  19
ATOM     19  C   UNL     1       9.249  10.431  17.925  0.00  0.00    +0.000 C 
BRANCH  19  20
ATOM     20  C   UNL     1       9.157  11.962  18.103  0.00  0.00    +0.000 C 
BRANCH  20  21
ATOM     21  N   UNL     1      10.148  12.471  19.063  0.00  0.00    +0.000 NA
ATOM     22  C   UNL     1       9.737  13.773  19.644  0.00  0.00    +0.000 C 
ATOM     23  C   UNL     1       8.471  13.682  20.518  0.00  0.00    +0.000 C 
ATOM     24  N   UNL     1       8.678  12.709  21.598  0.00  0.00    +0.000 N 
ATOM     25  C   UNL     1       9.179  11.386  21.184  0.00  0.00    +0.000 C 
ATOM     26  C   UNL     1      10.361  11.526  20.188  0.00  0.00    +0.000 C 
BRANCH  24  27
ATOM     27  C   UNL     1       8.594  13.073  22.926  0.00  0.00    +0.000 A 
ATOM     28  C   UNL     1       8.708  14.413  23.326  0.00  0.00    +0.000 A 
ATOM     29  C   UNL     1       8.673  14.782  24.678  0.00  0.00    +0.000 A 
ATOM     30  C   UNL     1       8.518  13.811  25.655  0.00  0.00    +0.000 A 
ATOM     31 CL   UNL     1       8.499  14.252  27.316  0.00  0.00    +0.000 Cl
ATOM     32  C   UNL     1       8.386  12.477  25.295  0.00  0.00    +0.000 A 
ATOM     33  C   UNL     1       8.417  12.120  23.946  0.00  0.00    +0.000 A 
ENDBRANCH  24  27
ENDBRANCH  20  21
ENDBRANCH  19  20
ENDBRANCH  18  19
ENDBRANCH   1  18
TORSDOF 8
ENDMDL
MODEL 3
REMARK VINA RESULT:      -7.9      1.395      1.743
REMARK  Name = 
REMARK  10 active torsions:
REMARK  status: ('A' for Active; 'I' for Inactive)
REMARK    1  A    between atoms: C_1  and  C_2
REMARK    2  A    between atoms: C_2  and  C_4
REMARK    3  A    between atoms: C_5  and  O_6
REMARK    4  A    between atoms: O_6  and  C_7
REMARK    5  A    between atoms: C_7  and  C_8
REMARK    6  A    between atoms: C_8  and  C_9
REMARK    7  A    between atoms: C_9  and  C_10
REMARK    8  A    between atoms: C_10  and  N_11
REMARK    9  A    between atoms: N_14  and  C_15
REMARK   10  A    between atoms: C_27  and  C_28
REMARK                            x       y       z     vdW  Elec       q    Type
REMARK                         _______ _______ _______ _____ _____    ______ ____
ROOT
ATOM      1  C   UNL     1       6.524   8.186  17.325  0.00  0.00    +0.000 C 
ENDROOT
BRANCH   1   2
ATOM      2  O   UNL     1       5.859   7.273  16.447  0.00  0.00    +0.000 OA
BRANCH   2   4
ATOM      3  C   UNL     1       5.147   5.090  17.164  0.00  0.00    +0.000 A 
ATOM      4  C   UNL     1       4.948   6.474  17.110  0.00  0.00    +0.000 A 
ATOM      5  C   UNL     1       3.808   7.014  17.731  0.00  0.00    +0.000 A 
ATOM      6  C   UNL     1       2.925   6.222  18.461  0.00  0.00    +0.000 A 
ATOM      7  C   UNL     1       3.120   4.845  18.556  0.00  0.00    +0.000 A 
ATOM      8  C   UNL     1       2.229   3.970  19.328  0.00  0.00    +0.000 A 
ATOM      9  C   UNL     1       1.096   4.491  20.168  0.00  0.00    +0.000 C 
ATOM     10  C   UNL     1       2.454   2.650  19.285  0.00  0.00    +0.000 A 
ATOM     11  C   UNL     1       3.561   2.033  18.546  0.00  0.00    +0.000 A 
ATOM     12  O   UNL     1       3.700   0.816  18.535  0.00  0.00    +0.000 OA
ATOM     13  O   UNL     1       4.441   2.899  17.924  0.00  0.00    +0.000 OA
ATOM     14  C   UNL     1       4.222   4.298  17.878  0.00  0.00    +0.000 A 
BRANCH   3  16
ATOM     15  C   UNL     1       6.125   3.918  15.079  0.00  0.00    +0.000 C 
ATOM     16  C   UNL     1       6.298   4.436  16.483  0.00  0.00    +0.000 C 
ATOM     17  O   UNL     1       7.373   4.322  17.069  0.00  0.00    +0.000 OA
ENDBRANCH   3  16
ENDBRANCH   2   4
ENDBRANCH   1   2
BRANCH   1  18
ATOM     18  C   UNL     1       7.955   7.792  17.648  0.00  0.00    +0.000 C 
BRANCH  18  19
ATOM     19  C   UNL     1       8.584   8.857  18.564  0.00  0.00    +0.000 C 
BRANCH  19  20
ATOM     20  C   UNL     1       8.536  10.288  17.985  0.00  0.00    +0.000 C 
BRANCH  20  21
ATOM     21  N   UNL     1       9.787  11.024  18.217  0.00  0.00    +0.000 NA
ATOM     22  C   UNL     1       9.680  12.444  17.798  0.00  0.00    +0.000 C 
ATOM     23  C   UNL     1       8.677  13.257  18.638  0.00  0.00    +0.000 C 
ATOM     24  N   UNL     1       9.047  13.195  20.057  0.00  0.00    +0.000 N 
ATOM     25  C   UNL     1       9.282  11.845  20.602  0.00  0.00    +0.000 C 
ATOM     26  C   UNL     1      10.178  11.009  19.650  0.00  0.00    +0.000 C 
BRANCH  24  27
ATOM     27  C   UNL     1       9.344  14.332  20.779  0.00  0.00    +0.000 A 
ATOM     28  C   UNL     1      10.643  14.862  20.807  0.00  0.00    +0.000 A 
ATOM     29  C   UNL     1      10.960  15.989  21.578  0.00  0.00    +0.000 A 
ATOM     30  C   UNL     1       9.977  16.608  22.334  0.00  0.00    +0.000 A 
ATOM     31 CL   UNL     1      10.363  17.974  23.302  0.00  0.00    +0.000 Cl
ATOM     32  C   UNL     1       8.677  16.121  22.317  0.00  0.00    +0.000 A 
ATOM     33  C   UNL     1       8.370  15.001  21.543  0.00  0.00    +0.000 A 
ENDBRANCH  24  27
ENDBRANCH  20  21
ENDBRANCH  19  20
ENDBRANCH  18  19
ENDBRANCH   1  18
TORSDOF 8
ENDMDL
MODEL 4
REMARK VINA RESULT:      -7.8      6.205      8.073
REMARK  Name = 
REMARK  10 active torsions:
REMARK  status: ('A' for Active; 'I' for Inactive)
REMARK    1  A    between atoms: C_1  and  C_2
REMARK    2  A    between atoms: C_2  and  C_4
REMARK    3  A    between atoms: C_5  and  O_6
REMARK    4  A    between atoms: O_6  and  C_7
REMARK    5  A    between atoms: C_7  and  C_8
REMARK    6  A    between atoms: C_8  and  C_9
REMARK    7  A    between atoms: C_9  and  C_10
REMARK    8  A    between atoms: C_10  and  N_11
REMARK    9  A    between atoms: N_14  and  C_15
REMARK   10  A    between atoms: C_27  and  C_28
REMARK                            x       y       z     vdW  Elec       q    Type
REMARK                         _______ _______ _______ _____ _____    ______ ____
ROOT
ATOM      1  C   UNL     1       3.369   5.995  18.543  0.00  0.00    +0.000 C 
ENDROOT
BRANCH   1   2
ATOM      2  O   UNL     1       4.621   5.307  18.477  0.00  0.00    +0.000 OA
BRANCH   2   4
ATOM      3  C   UNL     1       6.148   5.542  16.632  0.00  0.00    +0.000 A 
ATOM      4  C   UNL     1       4.982   4.994  17.180  0.00  0.00    +0.000 A 
ATOM      5  C   UNL     1       4.200   4.141  16.382  0.00  0.00    +0.000 A 
ATOM      6  C   UNL     1       4.597   3.767  15.101  0.00  0.00    +0.000 A 
ATOM      7  C   UNL     1       5.770   4.273  14.545  0.00  0.00    +0.000 A 
ATOM      8  C   UNL     1       6.242   3.895  13.207  0.00  0.00    +0.000 A 
ATOM      9  C   UNL     1       5.561   2.853  12.364  0.00  0.00    +0.000 C 
ATOM     10  C   UNL     1       7.335   4.505  12.731  0.00  0.00    +0.000 A 
ATOM     11  C   UNL     1       8.112   5.496  13.485  0.00  0.00    +0.000 A 
ATOM     12  O   UNL     1       9.095   6.028  12.983  0.00  0.00    +0.000 OA
ATOM     13  O   UNL     1       7.699   5.741  14.781  0.00  0.00    +0.000 OA
ATOM     14  C   UNL     1       6.515   5.180  15.318  0.00  0.00    +0.000 A 
BRANCH   3  16
ATOM     15  C   UNL     1       7.791   6.000  18.573  0.00  0.00    +0.000 C 
ATOM     16  C   UNL     1       6.998   6.498  17.393  0.00  0.00    +0.000 C 
ATOM     17  O   UNL     1       7.046   7.679  17.054  0.00  0.00    +0.000 OA
ENDBRANCH   3  16
ENDBRANCH   2   4
ENDBRANCH   1   2
BRANCH   1  18
ATOM     18  C   UNL     1       3.430   7.427  18.040  0.00  0.00    +0.000 C 
BRANCH  18  19
ATOM     19  C   UNL     1       2.011   8.024  18.023  0.00  0.00    +0.000 C 
BRANCH  19  20
ATOM     20  C   UNL     1       1.740   9.027  19.165  0.00  0.00    +0.000 C 
BRANCH  20  21
ATOM     21  N   UNL     1       0.647   9.955  18.843  0.00  0.00    +0.000 NA
ATOM     22  C   UNL     1      -0.566   9.685  19.653  0.00  0.00    +0.000 C 
ATOM     23  C   UNL     1      -0.367   9.946  21.159  0.00  0.00    +0.000 C 
ATOM     24  N   UNL     1       0.063  11.333  21.373  0.00  0.00    +0.000 N 
ATOM     25  C   UNL     1       1.210  11.783  20.563  0.00  0.00    +0.000 C 
ATOM     26  C   UNL     1       1.036  11.369  19.077  0.00  0.00    +0.000 C 
BRANCH  24  27
ATOM     27  C   UNL     1      -0.676  12.211  22.138  0.00  0.00    +0.000 A 
ATOM     28  C   UNL     1      -1.858  11.807  22.778  0.00  0.00    +0.000 A 
ATOM     29  C   UNL     1      -2.638  12.708  23.516  0.00  0.00    +0.000 A 
ATOM     30  C   UNL     1      -2.245  14.032  23.628  0.00  0.00    +0.000 A 
ATOM     31 CL   UNL     1      -3.210  15.149  24.509  0.00  0.00    +0.000 Cl
ATOM     32  C   UNL     1      -1.073  14.464  23.021  0.00  0.00    +0.000 A 
ATOM     33  C   UNL     1      -0.300  13.558  22.293  0.00  0.00    +0.000 A 
ENDBRANCH  24  27
ENDBRANCH  20  21
ENDBRANCH  19  20
ENDBRANCH  18  19
ENDBRANCH   1  18
TORSDOF 8
ENDMDL
MODEL 5
REMARK VINA RESULT:      -7.8      5.757      7.656
REMARK  Name = 
REMARK  10 active torsions:
REMARK  status: ('A' for Active; 'I' for Inactive)
REMARK    1  A    between atoms: C_1  and  C_2
REMARK    2  A    between atoms: C_2  and  C_4
REMARK    3  A    between atoms: C_5  and  O_6
REMARK    4  A    between atoms: O_6  and  C_7
REMARK    5  A    between atoms: C_7  and  C_8
REMARK    6  A    between atoms: C_8  and  C_9
REMARK    7  A    between atoms: C_9  and  C_10
REMARK    8  A    between atoms: C_10  and  N_11
REMARK    9  A    between atoms: N_14  and  C_15
REMARK   10  A    between atoms: C_27  and  C_28
REMARK                            x       y       z     vdW  Elec       q    Type
REMARK                         _______ _______ _______ _____ _____    ______ ____
ROOT
ATOM      1  C   UNL     1       4.426   3.748  19.190  0.00  0.00    +0.000 C 
ENDROOT
BRANCH   1   2
ATOM      2  O   UNL     1       5.082   4.872  18.596  0.00  0.00    +0.000 OA
BRANCH   2   4
ATOM      3  C   UNL     1       6.461   5.295  16.671  0.00  0.00    +0.000 A 
ATOM      4  C   UNL     1       5.348   4.678  17.254  0.00  0.00    +0.000 A 
ATOM      5  C   UNL     1       4.521   3.878  16.447  0.00  0.00    +0.000 A 
ATOM      6  C   UNL     1       4.826   3.623  15.112  0.00  0.00    +0.000 A 
ATOM      7  C   UNL     1       5.946   4.199  14.516  0.00  0.00    +0.000 A 
ATOM      8  C   UNL     1       6.320   3.946  13.119  0.00  0.00    +0.000 A 
ATOM      9  C   UNL     1       5.593   2.964  12.242  0.00  0.00    +0.000 C 
ATOM     10  C   UNL     1       7.365   4.617  12.617  0.00  0.00    +0.000 A 
ATOM     11  C   UNL     1       8.181   5.558  13.394  0.00  0.00    +0.000 A 
ATOM     12  O   UNL     1       9.115   6.151  12.867  0.00  0.00    +0.000 OA
ATOM     13  O   UNL     1       7.865   5.683  14.732  0.00  0.00    +0.000 OA
ATOM     14  C   UNL     1       6.733   5.053  15.307  0.00  0.00    +0.000 A 
BRANCH   3  16
ATOM     15  C   UNL     1       7.981   5.702  18.719  0.00  0.00    +0.000 C 
ATOM     16  C   UNL     1       7.352   6.202  17.445  0.00  0.00    +0.000 C 
ATOM     17  O   UNL     1       7.566   7.343  17.041  0.00  0.00    +0.000 OA
ENDBRANCH   3  16
ENDBRANCH   2   4
ENDBRANCH   1   2
BRANCH   1  18
ATOM     18  C   UNL     1       3.092   4.087  19.832  0.00  0.00    +0.000 C 
BRANCH  18  19
ATOM     19  C   UNL     1       2.052   4.369  18.733  0.00  0.00    +0.000 C 
BRANCH  19  20
ATOM     20  C   UNL     1       1.522   5.819  18.729  0.00  0.00    +0.000 C 
BRANCH  20  21
ATOM     21  N   UNL     1       2.530   6.781  19.201  0.00  0.00    +0.000 NA
ATOM     22  C   UNL     1       2.945   7.718  18.128  0.00  0.00    +0.000 C 
ATOM     23  C   UNL     1       1.813   8.653  17.659  0.00  0.00    +0.000 C 
ATOM     24  N   UNL     1       1.293   9.417  18.799  0.00  0.00    +0.000 N 
ATOM     25  C   UNL     1       0.921   8.627  19.987  0.00  0.00    +0.000 C 
ATOM     26  C   UNL     1       2.026   7.595  20.336  0.00  0.00    +0.000 C 
BRANCH  24  27
ATOM     27  C   UNL     1       1.331  10.796  18.825  0.00  0.00    +0.000 A 
ATOM     28  C   UNL     1       0.345  11.543  19.489  0.00  0.00    +0.000 A 
ATOM     29  C   UNL     1       0.353  12.945  19.477  0.00  0.00    +0.000 A 
ATOM     30  C   UNL     1       1.354  13.624  18.800  0.00  0.00    +0.000 A 
ATOM     31 CL   UNL     1       1.356  15.342  18.758  0.00  0.00    +0.000 Cl
ATOM     32  C   UNL     1       2.354  12.918  18.146  0.00  0.00    +0.000 A 
ATOM     33  C   UNL     1       2.341  11.522  18.168  0.00  0.00    +0.000 A 
ENDBRANCH  24  27
ENDBRANCH  20  21
ENDBRANCH  19  20
ENDBRANCH  18  19
ENDBRANCH   1  18
TORSDOF 8
ENDMDL
MODEL 6
REMARK VINA RESULT:      -7.6      6.317      8.377
REMARK  Name = 
REMARK  10 active torsions:
REMARK  status: ('A' for Active; 'I' for Inactive)
REMARK    1  A    between atoms: C_1  and  C_2
REMARK    2  A    between atoms: C_2  and  C_4
REMARK    3  A    between atoms: C_5  and  O_6
REMARK    4  A    between atoms: O_6  and  C_7
REMARK    5  A    between atoms: C_7  and  C_8
REMARK    6  A    between atoms: C_8  and  C_9
REMARK    7  A    between atoms: C_9  and  C_10
REMARK    8  A    between atoms: C_10  and  N_11
REMARK    9  A    between atoms: N_14  and  C_15
REMARK   10  A    between atoms: C_27  and  C_28
REMARK                            x       y       z     vdW  Elec       q    Type
REMARK                         _______ _______ _______ _____ _____    ______ ____
ROOT
ATOM      1  C   UNL     1       3.176   5.107  18.996  0.00  0.00    +0.000 C 
ENDROOT
BRANCH   1   2
ATOM      2  O   UNL     1       4.548   5.386  18.702  0.00  0.00    +0.000 OA
BRANCH   2   4
ATOM      3  C   UNL     1       6.060   5.581  16.841  0.00  0.00    +0.000 A 
ATOM      4  C   UNL     1       4.881   5.072  17.399  0.00  0.00    +0.000 A 
ATOM      5  C   UNL     1       4.058   4.255  16.603  0.00  0.00    +0.000 A 
ATOM      6  C   UNL     1       4.426   3.878  15.314  0.00  0.00    +0.000 A 
ATOM      7  C   UNL     1       5.611   4.345  14.748  0.00  0.00    +0.000 A 
ATOM      8  C   UNL     1       6.051   3.962  13.401  0.00  0.00    +0.000 A 
ATOM      9  C   UNL     1       5.322   2.954  12.557  0.00  0.00    +0.000 C 
ATOM     10  C   UNL     1       7.161   4.535  12.917  0.00  0.00    +0.000 A 
ATOM     11  C   UNL     1       7.983   5.490  13.670  0.00  0.00    +0.000 A 
ATOM     12  O   UNL     1       8.979   5.989  13.160  0.00  0.00    +0.000 OA
ATOM     13  O   UNL     1       7.596   5.738  14.972  0.00  0.00    +0.000 OA
ATOM     14  C   UNL     1       6.398   5.217  15.520  0.00  0.00    +0.000 A 
BRANCH   3  16
ATOM     15  C   UNL     1       7.738   5.960  18.768  0.00  0.00    +0.000 C 
ATOM     16  C   UNL     1       6.955   6.497  17.599  0.00  0.00    +0.000 C 
ATOM     17  O   UNL     1       7.046   7.678  17.268  0.00  0.00    +0.000 OA
ENDBRANCH   3  16
ENDBRANCH   2   4
ENDBRANCH   1   2
BRANCH   1  18
ATOM     18  C   UNL     1       2.307   6.348  19.096  0.00  0.00    +0.000 C 
BRANCH  18  19
ATOM     19  C   UNL     1       1.888   6.563  20.561  0.00  0.00    +0.000 C 
BRANCH  19  20
ATOM     20  C   UNL     1       1.653   8.042  20.936  0.00  0.00    +0.000 C 
BRANCH  20  21
ATOM     21  N   UNL     1       0.332   8.522  20.506  0.00  0.00    +0.000 NA
ATOM     22  C   UNL     1      -0.637   8.555  21.630  0.00  0.00    +0.000 C 
ATOM     23  C   UNL     1      -0.272   9.578  22.723  0.00  0.00    +0.000 C 
ATOM     24  N   UNL     1      -0.160  10.919  22.136  0.00  0.00    +0.000 N 
ATOM     25  C   UNL     1       0.701  11.029  20.945  0.00  0.00    +0.000 C 
ATOM     26  C   UNL     1       0.401   9.891  19.934  0.00  0.00    +0.000 C 
BRANCH  24  27
ATOM     27  C   UNL     1      -0.960  11.962  22.556  0.00  0.00    +0.000 A 
ATOM     28  C   UNL     1      -0.579  13.299  22.361  0.00  0.00    +0.000 A 
ATOM     29  C   UNL     1      -1.364  14.362  22.829  0.00  0.00    +0.000 A 
ATOM     30  C   UNL     1      -2.549  14.102  23.499  0.00  0.00    +0.000 A 
ATOM     31 CL   UNL     1      -3.505  15.399  24.098  0.00  0.00    +0.000 Cl
ATOM     32  C   UNL     1      -2.965  12.792  23.695  0.00  0.00    +0.000 A 
ATOM     33  C   UNL     1      -2.179  11.740  23.221  0.00  0.00    +0.000 A 
ENDBRANCH  24  27
ENDBRANCH  20  21
ENDBRANCH  19  20
ENDBRANCH  18  19
ENDBRANCH   1  18
TORSDOF 8
ENDMDL
MODEL 7
REMARK VINA RESULT:      -7.6      6.378      8.534
REMARK  Name = 
REMARK  10 active torsions:
REMARK  status: ('A' for Active; 'I' for Inactive)
REMARK    1  A    between atoms: C_1  and  C_2
REMARK    2  A    between atoms: C_2  and  C_4
REMARK    3  A    between atoms: C_5  and  O_6
REMARK    4  A    between atoms: O_6  and  C_7
REMARK    5  A    between atoms: C_7  and  C_8
REMARK    6  A    between atoms: C_8  and  C_9
REMARK    7  A    between atoms: C_9  and  C_10
REMARK    8  A    between atoms: C_10  and  N_11
REMARK    9  A    between atoms: N_14  and  C_15
REMARK   10  A    between atoms: C_27  and  C_28
REMARK                            x       y       z     vdW  Elec       q    Type
REMARK                         _______ _______ _______ _____ _____    ______ ____
ROOT
ATOM      1  C   UNL     1       1.631   4.865  20.128  0.00  0.00    +0.000 C 
ENDROOT
BRANCH   1   2
ATOM      2  O   UNL     1       2.784   4.021  20.199  0.00  0.00    +0.000 OA
BRANCH   2   4
ATOM      3  C   UNL     1       3.943   3.876  18.096  0.00  0.00    +0.000 A 
ATOM      4  C   UNL     1       3.800   4.448  19.366  0.00  0.00    +0.000 A 
ATOM      5  C   UNL     1       4.711   5.443  19.762  0.00  0.00    +0.000 A 
ATOM      6  C   UNL     1       5.691   5.925  18.899  0.00  0.00    +0.000 A 
ATOM      7  C   UNL     1       5.833   5.395  17.618  0.00  0.00    +0.000 A 
ATOM      8  C   UNL     1       6.839   5.882  16.664  0.00  0.00    +0.000 A 
ATOM      9  C   UNL     1       7.728   7.061  16.945  0.00  0.00    +0.000 C 
ATOM     10  C   UNL     1       6.950   5.246  15.491  0.00  0.00    +0.000 A 
ATOM     11  C   UNL     1       6.100   4.120  15.087  0.00  0.00    +0.000 A 
ATOM     12  O   UNL     1       6.267   3.573  14.003  0.00  0.00    +0.000 OA
ATOM     13  O   UNL     1       5.095   3.765  15.966  0.00  0.00    +0.000 OA
ATOM     14  C   UNL     1       4.966   4.353  17.248  0.00  0.00    +0.000 A 
BRANCH   3  16
ATOM     15  C   UNL     1       3.370   1.358  18.017  0.00  0.00    +0.000 C 
ATOM     16  C   UNL     1       3.055   2.778  17.625  0.00  0.00    +0.000 C 
ATOM     17  O   UNL     1       2.079   3.037  16.923  0.00  0.00    +0.000 OA
ENDBRANCH   3  16
ENDBRANCH   2   4
ENDBRANCH   1   2
BRANCH   1  18
ATOM     18  C   UNL     1       1.712   6.089  21.025  0.00  0.00    +0.000 C 
BRANCH  18  19
ATOM     19  C   UNL     1       1.727   7.359  20.156  0.00  0.00    +0.000 C 
BRANCH  19  20
ATOM     20  C   UNL     1       1.310   8.640  20.912  0.00  0.00    +0.000 C 
BRANCH  20  21
ATOM     21  N   UNL     1      -0.143   8.857  20.879  0.00  0.00    +0.000 NA
ATOM     22  C   UNL     1      -0.729   8.889  22.243  0.00  0.00    +0.000 C 
ATOM     23  C   UNL     1      -0.252  10.086  23.086  0.00  0.00    +0.000 C 
ATOM     24  N   UNL     1      -0.562  11.343  22.393  0.00  0.00    +0.000 N 
ATOM     25  C   UNL     1      -0.123  11.427  20.988  0.00  0.00    +0.000 C 
ATOM     26  C   UNL     1      -0.495  10.136  20.211  0.00  0.00    +0.000 C 
BRANCH  24  27
ATOM     27  C   UNL     1      -1.379  12.300  22.959  0.00  0.00    +0.000 A 
ATOM     28  C   UNL     1      -2.716  12.022  23.283  0.00  0.00    +0.000 A 
ATOM     29  C   UNL     1      -3.563  13.005  23.812  0.00  0.00    +0.000 A 
ATOM     30  C   UNL     1      -3.083  14.286  24.030  0.00  0.00    +0.000 A 
ATOM     31 CL   UNL     1      -4.123  15.504  24.654  0.00  0.00    +0.000 Cl
ATOM     32  C   UNL     1      -1.761  14.593  23.736  0.00  0.00    +0.000 A 
ATOM     33  C   UNL     1      -0.924  13.606  23.214  0.00  0.00    +0.000 A 
ENDBRANCH  24  27
ENDBRANCH  20  21
ENDBRANCH  19  20
ENDBRANCH  18  19
ENDBRANCH   1  18
TORSDOF 8
ENDMDL
MODEL 8
REMARK VINA RESULT:      -7.5      5.996      8.142
REMARK  Name = 
REMARK  10 active torsions:
REMARK  status: ('A' for Active; 'I' for Inactive)
REMARK    1  A    between atoms: C_1  and  C_2
REMARK    2  A    between atoms: C_2  and  C_4
REMARK    3  A    between atoms: C_5  and  O_6
REMARK    4  A    between atoms: O_6  and  C_7
REMARK    5  A    between atoms: C_7  and  C_8
REMARK    6  A    between atoms: C_8  and  C_9
REMARK    7  A    between atoms: C_9  and  C_10
REMARK    8  A    between atoms: C_10  and  N_11
REMARK    9  A    between atoms: N_14  and  C_15
REMARK   10  A    between atoms: C_27  and  C_28
REMARK                            x       y       z     vdW  Elec       q    Type
REMARK                         _______ _______ _______ _____ _____    ______ ____
ROOT
ATOM      1  C   UNL     1       3.609   5.933  19.087  0.00  0.00    +0.000 C 
ENDROOT
BRANCH   1   2
ATOM      2  O   UNL     1       4.884   5.315  18.896  0.00  0.00    +0.000 OA
BRANCH   2   4
ATOM      3  C   UNL     1       6.315   5.542  16.975  0.00  0.00    +0.000 A 
ATOM      4  C   UNL     1       5.146   5.049  17.565  0.00  0.00    +0.000 A 
ATOM      5  C   UNL     1       4.259   4.296  16.776  0.00  0.00    +0.000 A 
ATOM      6  C   UNL     1       4.553   3.966  15.455  0.00  0.00    +0.000 A 
ATOM      7  C   UNL     1       5.726   4.418  14.855  0.00  0.00    +0.000 A 
ATOM      8  C   UNL     1       6.090   4.081  13.472  0.00  0.00    +0.000 A 
ATOM      9  C   UNL     1       5.288   3.136  12.622  0.00  0.00    +0.000 C 
ATOM     10  C   UNL     1       7.196   4.637  12.961  0.00  0.00    +0.000 A 
ATOM     11  C   UNL     1       8.086   5.529  13.715  0.00  0.00    +0.000 A 
ATOM     12  O   UNL     1       9.075   6.017  13.180  0.00  0.00    +0.000 OA
ATOM     13  O   UNL     1       7.768   5.732  15.044  0.00  0.00    +0.000 OA
ATOM     14  C   UNL     1       6.579   5.227  15.624  0.00  0.00    +0.000 A 
BRANCH   3  16
ATOM     15  C   UNL     1       7.340   7.869  17.433  0.00  0.00    +0.000 C 
ATOM     16  C   UNL     1       7.276   6.393  17.729  0.00  0.00    +0.000 C 
ATOM     17  O   UNL     1       8.006   5.888  18.579  0.00  0.00    +0.000 OA
ENDBRANCH   3  16
ENDBRANCH   2   4
ENDBRANCH   1   2
BRANCH   1  18
ATOM     18  C   UNL     1       3.413   7.198  18.269  0.00  0.00    +0.000 C 
BRANCH  18  19
ATOM     19  C   UNL     1       1.922   7.357  17.921  0.00  0.00    +0.000 C 
BRANCH  19  20
ATOM     20  C   UNL     1       1.445   8.824  17.863  0.00  0.00    +0.000 C 
BRANCH  20  21
ATOM     21  N   UNL     1       1.877   9.597  19.036  0.00  0.00    +0.000 NA
ATOM     22  C   UNL     1       1.604  11.047  18.875  0.00  0.00    +0.000 C 
ATOM     23  C   UNL     1       0.103  11.384  18.812  0.00  0.00    +0.000 C 
ATOM     24  N   UNL     1      -0.571  10.893  20.020  0.00  0.00    +0.000 N 
ATOM     25  C   UNL     1      -0.321   9.482  20.368  0.00  0.00    +0.000 C 
ATOM     26  C   UNL     1       1.192   9.148  20.275  0.00  0.00    +0.000 C 
BRANCH  24  27
ATOM     27  C   UNL     1      -1.237  11.746  20.876  0.00  0.00    +0.000 A 
ATOM     28  C   UNL     1      -2.368  12.465  20.460  0.00  0.00    +0.000 A 
ATOM     29  C   UNL     1      -3.018  13.369  21.311  0.00  0.00    +0.000 A 
ATOM     30  C   UNL     1      -2.546  13.567  22.598  0.00  0.00    +0.000 A 
ATOM     31 CL   UNL     1      -3.322  14.694  23.639  0.00  0.00    +0.000 Cl
ATOM     32  C   UNL     1      -1.439  12.862  23.050  0.00  0.00    +0.000 A 
ATOM     33  C   UNL     1      -0.802  11.959  22.197  0.00  0.00    +0.000 A 
ENDBRANCH  24  27
ENDBRANCH  20  21
ENDBRANCH  19  20
ENDBRANCH  18  19
ENDBRANCH   1  18
TORSDOF 8
ENDMDL
MODEL 9
REMARK VINA RESULT:      -7.5      7.670     11.046
REMARK  Name = 
REMARK  10 active torsions:
REMARK  status: ('A' for Active; 'I' for Inactive)
REMARK    1  A    between atoms: C_1  and  C_2
REMARK    2  A    between atoms: C_2  and  C_4
REMARK    3  A    between atoms: C_5  and  O_6
REMARK    4  A    between atoms: O_6  and  C_7
REMARK    5  A    between atoms: C_7  and  C_8
REMARK    6  A    between atoms: C_8  and  C_9
REMARK    7  A    between atoms: C_9  and  C_10
REMARK    8  A    between atoms: C_10  and  N_11
REMARK    9  A    between atoms: N_14  and  C_15
REMARK   10  A    between atoms: C_27  and  C_28
REMARK                            x       y       z     vdW  Elec       q    Type
REMARK                         _______ _______ _______ _____ _____    ______ ____
ROOT
ATOM      1  C   UNL     1       1.332   8.193  21.041  0.00  0.00    +0.000 C 
ENDROOT
BRANCH   1   2
ATOM      2  O   UNL     1       1.390   9.565  20.642  0.00  0.00    +0.000 OA
BRANCH   2   4
ATOM      3  C   UNL     1      -0.650  10.839  20.578  0.00  0.00    +0.000 A 
ATOM      4  C   UNL     1       0.255   9.965  19.964  0.00  0.00    +0.000 A 
ATOM      5  C   UNL     1      -0.026   9.508  18.664  0.00  0.00    +0.000 A 
ATOM      6  C   UNL     1      -1.132   9.964  17.950  0.00  0.00    +0.000 A 
ATOM      7  C   UNL     1      -2.030  10.859  18.528  0.00  0.00    +0.000 A 
ATOM      8  C   UNL     1      -3.199  11.384  17.810  0.00  0.00    +0.000 A 
ATOM      9  C   UNL     1      -3.471  11.087  16.361  0.00  0.00    +0.000 C 
ATOM     10  C   UNL     1      -4.048  12.171  18.484  0.00  0.00    +0.000 A 
ATOM     11  C   UNL     1      -3.855  12.572  19.882  0.00  0.00    +0.000 A 
ATOM     12  O   UNL     1      -4.681  13.283  20.444  0.00  0.00    +0.000 OA
ATOM     13  O   UNL     1      -2.688  12.149  20.486  0.00  0.00    +0.000 OA
ATOM     14  C   UNL     1      -1.784  11.262  19.851  0.00  0.00    +0.000 A 
BRANCH   3  16
ATOM     15  C   UNL     1      -0.962  10.489  23.118  0.00  0.00    +0.000 C 
ATOM     16  C   UNL     1      -0.452  11.322  21.971  0.00  0.00    +0.000 C 
ATOM     17  O   UNL     1       0.122  12.390  22.175  0.00  0.00    +0.000 OA
ENDBRANCH   3  16
ENDBRANCH   2   4
ENDBRANCH   1   2
BRANCH   1  18
ATOM     18  C   UNL     1       2.079   7.253  20.110  0.00  0.00    +0.000 C 
BRANCH  18  19
ATOM     19  C   UNL     1       1.616   5.807  20.365  0.00  0.00    +0.000 C 
BRANCH  19  20
ATOM     20  C   UNL     1       2.772   4.811  20.603  0.00  0.00    +0.000 C 
BRANCH  20  21
ATOM     21  N   UNL     1       2.839   3.778  19.560  0.00  0.00    +0.000 NA
ATOM     22  C   UNL     1       2.452   4.308  18.229  0.00  0.00    +0.000 C 
ATOM     23  C   UNL     1       3.429   5.367  17.684  0.00  0.00    +0.000 C 
ATOM     24  N   UNL     1       4.784   4.807  17.610  0.00  0.00    +0.000 N 
ATOM     25  C   UNL     1       5.278   4.156  18.837  0.00  0.00    +0.000 C 
ATOM     26  C   UNL     1       4.205   3.208  19.435  0.00  0.00    +0.000 C 
BRANCH  24  27
ATOM     27  C   UNL     1       5.470   4.725  16.416  0.00  0.00    +0.000 A 
ATOM     28  C   UNL     1       6.793   5.178  16.300  0.00  0.00    +0.000 A 
ATOM     29  C   UNL     1       7.477   5.141  15.077  0.00  0.00    +0.000 A 
ATOM     30  C   UNL     1       6.846   4.646  13.947  0.00  0.00    +0.000 A 
ATOM     31 CL   UNL     1       7.669   4.621  12.439  0.00  0.00    +0.000 Cl
ATOM     32  C   UNL     1       5.543   4.173  14.028  0.00  0.00    +0.000 A 
ATOM     33  C   UNL     1       4.872   4.209  15.251  0.00  0.00    +0.000 A 
ENDBRANCH  24  27
ENDBRANCH  20  21
ENDBRANCH  19  20
ENDBRANCH  18  19
ENDBRANCH   1  18
TORSDOF 8
ENDMDL
