MODEL 1
REMARK VINA RESULT:      -7.4      0.000      0.000
REMARK  Name = 
REMARK  8 active torsions:
REMARK  status: ('A' for Active; 'I' for Inactive)
REMARK    1  A    between atoms: C_2  and  C_10
REMARK    2  A    between atoms: N_3  and  C_4
REMARK    3  A    between atoms: C_4  and  C_5
REMARK    4  A    between atoms: C_5  and  C_6
REMARK    5  A    between atoms: C_6  and  C_7
REMARK    6  A    between atoms: C_7  and  C_8
REMARK    7  A    between atoms: C_8  and  S_9
REMARK    8  A    between atoms: C_12  and  C_13
REMARK                            x       y       z     vdW  Elec       q    Type
REMARK                         _______ _______ _______ _____ _____    ______ ____
ROOT
ATOM      1  C   UNL     1       6.251   4.334  16.203  0.00  0.00    +0.000 A 
ATOM      2  C   UNL     1       4.931   3.912  16.472  0.00  0.00    +0.000 A 
ATOM      3  C   UNL     1       4.829   3.876  17.839  0.00  0.00    +0.000 A 
ATOM      4  O   UNL     1       6.033   4.242  18.370  0.00  0.00    +0.000 OA
ATOM      5  N   UNL     1       6.934   4.527  17.345  0.00  0.00    +0.000 NA
ENDROOT
BRANCH   3   6
ATOM      6  C   UNL     1       3.738   3.556  18.755  0.00  0.00    +0.000 A 
ATOM      7  C   UNL     1       3.576   4.314  19.931  0.00  0.00    +0.000 A 
ATOM      8  C   UNL     1       2.576   4.009  20.857  0.00  0.00    +0.000 A 
ATOM      9  C   UNL     1       1.723   2.942  20.610  0.00  0.00    +0.000 A 
ATOM     10  F   UNL     1       0.775   2.639  21.504  0.00  0.00    +0.000 F 
ATOM     11  C   UNL     1       1.850   2.186  19.453  0.00  0.00    +0.000 A 
ATOM     12  C   UNL     1       2.853   2.491  18.524  0.00  0.00    +0.000 A 
ENDBRANCH   3   6
BRANCH   1  14
ATOM     13  O   UNL     1       7.664   5.391  14.648  0.00  0.00    +0.000 OA
ATOM     14  C   UNL     1       6.808   4.535  14.865  0.00  0.00    +0.000 C 
ATOM     15  N   UNL     1       6.302   3.722  13.867  0.00  0.00    +0.000 N 
ATOM     16  H   UNL     1       5.609   3.029  14.127  0.00  0.00    +0.000 HD
BRANCH  15  17
ATOM     17  C   UNL     1       6.727   3.875  12.493  0.00  0.00    +0.000 C 
BRANCH  17  18
ATOM     18  C   UNL     1       6.715   2.550  11.732  0.00  0.00    +0.000 C 
BRANCH  18  19
ATOM     19  C   UNL     1       5.289   2.156  11.335  0.00  0.00    +0.000 C 
BRANCH  19  20
ATOM     20  C   UNL     1       4.350   3.365  11.317  0.00  0.00    +0.000 C 
BRANCH  20  21
ATOM     21  C   UNL     1       3.134   3.101  10.430  0.00  0.00    +0.000 C 
BRANCH  21  22
ATOM     22  S   UNL     1       2.886   4.466   9.258  0.00  0.00    +0.000 S 
ATOM     23  H   UNL     1       1.547   4.406   9.229  0.00  0.00    +0.000 HD
ENDBRANCH  21  22
ENDBRANCH  20  21
ENDBRANCH  19  20
ENDBRANCH  18  19
ENDBRANCH  17  18
ENDBRANCH  15  17
ENDBRANCH   1  14
TORSDOF 8
ENDMDL
MODEL 2
REMARK VINA RESULT:      -7.1      1.100      1.139
REMARK  Name = 
REMARK  8 active torsions:
REMARK  status: ('A' for Active; 'I' for Inactive)
REMARK    1  A    between atoms: C_2  and  C_10
REMARK    2  A    between atoms: N_3  and  C_4
REMARK    3  A    between atoms: C_4  and  C_5
REMARK    4  A    between atoms: C_5  and  C_6
REMARK    5  A    between atoms: C_6  and  C_7
REMARK    6  A    between atoms: C_7  and  C_8
REMARK    7  A    between atoms: C_8  and  S_9
REMARK    8  A    between atoms: C_12  and  C_13
REMARK                            x       y       z     vdW  Elec       q    Type
REMARK                         _______ _______ _______ _____ _____    ______ ____
ROOT
ATOM      1  C   UNL     1       5.355   4.832  15.717  0.00  0.00    +0.000 A 
ATOM      2  C   UNL     1       4.787   3.817  16.519  0.00  0.00    +0.000 A 
ATOM      3  C   UNL     1       3.994   4.470  17.428  0.00  0.00    +0.000 A 
ATOM      4  O   UNL     1       4.091   5.812  17.198  0.00  0.00    +0.000 OA
ATOM      5  N   UNL     1       4.950   6.047  16.126  0.00  0.00    +0.000 NA
ENDROOT
BRANCH   3   6
ATOM      6  C   UNL     1       3.119   4.014  18.504  0.00  0.00    +0.000 A 
ATOM      7  C   UNL     1       3.282   4.541  19.800  0.00  0.00    +0.000 A 
ATOM      8  C   UNL     1       2.499   4.095  20.867  0.00  0.00    +0.000 A 
ATOM      9  C   UNL     1       1.538   3.118  20.644  0.00  0.00    +0.000 A 
ATOM     10  F   UNL     1       0.798   2.679  21.668  0.00  0.00    +0.000 F 
ATOM     11  C   UNL     1       1.344   2.590  19.375  0.00  0.00    +0.000 A 
ATOM     12  C   UNL     1       2.130   3.037  18.304  0.00  0.00    +0.000 A 
ENDBRANCH   3   6
BRANCH   1  14
ATOM     13  O   UNL     1       7.323   5.214  14.488  0.00  0.00    +0.000 OA
ATOM     14  C   UNL     1       6.263   4.600  14.594  0.00  0.00    +0.000 C 
ATOM     15  N   UNL     1       5.849   3.668  13.660  0.00  0.00    +0.000 N 
ATOM     16  H   UNL     1       4.969   3.191  13.825  0.00  0.00    +0.000 HD
BRANCH  15  17
ATOM     17  C   UNL     1       6.631   3.404  12.472  0.00  0.00    +0.000 C 
BRANCH  17  18
ATOM     18  C   UNL     1       5.805   2.741  11.370  0.00  0.00    +0.000 C 
BRANCH  18  19
ATOM     19  C   UNL     1       4.307   2.958  11.599  0.00  0.00    +0.000 C 
BRANCH  19  20
ATOM     20  C   UNL     1       3.778   4.155  10.802  0.00  0.00    +0.000 C 
BRANCH  20  21
ATOM     21  C   UNL     1       2.974   3.692   9.588  0.00  0.00    +0.000 C 
BRANCH  21  22
ATOM     22  S   UNL     1       2.234   5.111   8.729  0.00  0.00    +0.000 S 
ATOM     23  H   UNL     1       1.841   4.444   7.635  0.00  0.00    +0.000 HD
ENDBRANCH  21  22
ENDBRANCH  20  21
ENDBRANCH  19  20
ENDBRANCH  18  19
ENDBRANCH  17  18
ENDBRANCH  15  17
ENDBRANCH   1  14
TORSDOF 8
ENDMDL
MODEL 3
REMARK VINA RESULT:      -7.0      1.026      1.351
REMARK  Name = 
REMARK  8 active torsions:
REMARK  status: ('A' for Active; 'I' for Inactive)
REMARK    1  A    between atoms: C_2  and  C_10
REMARK    2  A    between atoms: N_3  and  C_4
REMARK    3  A    between atoms: C_4  and  C_5
REMARK    4  A    between atoms: C_5  and  C_6
REMARK    5  A    between atoms: C_6  and  C_7
REMARK    6  A    between atoms: C_7  and  C_8
REMARK    7  A    between atoms: C_8  and  S_9
REMARK    8  A    between atoms: C_12  and  C_13
REMARK                            x       y       z     vdW  Elec       q    Type
REMARK                         _______ _______ _______ _____ _____    ______ ____
ROOT
ATOM      1  C   UNL     1       6.152   4.366  16.813  0.00  0.00    +0.000 A 
ATOM      2  C   UNL     1       4.889   3.896  17.234  0.00  0.00    +0.000 A 
ATOM      3  C   UNL     1       4.888   4.018  18.600  0.00  0.00    +0.000 A 
ATOM      4  O   UNL     1       6.097   4.522  18.987  0.00  0.00    +0.000 OA
ATOM      5  N   UNL     1       6.899   4.738  17.868  0.00  0.00    +0.000 NA
ENDROOT
BRANCH   3   6
ATOM      6  C   UNL     1       3.892   3.742  19.631  0.00  0.00    +0.000 A 
ATOM      7  C   UNL     1       3.929   2.513  20.318  0.00  0.00    +0.000 A 
ATOM      8  C   UNL     1       2.965   2.190  21.276  0.00  0.00    +0.000 A 
ATOM      9  C   UNL     1       1.956   3.099  21.559  0.00  0.00    +0.000 A 
ATOM     10  F   UNL     1       1.023   2.785  22.465  0.00  0.00    +0.000 F 
ATOM     11  C   UNL     1       1.902   4.325  20.908  0.00  0.00    +0.000 A 
ATOM     12  C   UNL     1       2.869   4.650  19.947  0.00  0.00    +0.000 A 
ENDBRANCH   3   6
BRANCH   1  14
ATOM     13  O   UNL     1       7.463   5.234  15.065  0.00  0.00    +0.000 OA
ATOM     14  C   UNL     1       6.595   4.439  15.421  0.00  0.00    +0.000 C 
ATOM     15  N   UNL     1       5.970   3.579  14.538  0.00  0.00    +0.000 N 
ATOM     16  H   UNL     1       5.274   2.942  14.910  0.00  0.00    +0.000 HD
BRANCH  15  17
ATOM     17  C   UNL     1       6.276   3.608  13.124  0.00  0.00    +0.000 C 
BRANCH  17  18
ATOM     18  C   UNL     1       5.092   4.084  12.283  0.00  0.00    +0.000 C 
BRANCH  18  19
ATOM     19  C   UNL     1       4.641   2.997  11.303  0.00  0.00    +0.000 C 
BRANCH  19  20
ATOM     20  C   UNL     1       3.235   3.270  10.760  0.00  0.00    +0.000 C 
BRANCH  20  21
ATOM     21  C   UNL     1       3.292   3.748   9.310  0.00  0.00    +0.000 C 
BRANCH  21  22
ATOM     22  S   UNL     1       2.088   5.078   9.026  0.00  0.00    +0.000 S 
ATOM     23  H   UNL     1       1.560   5.078  10.258  0.00  0.00    +0.000 HD
ENDBRANCH  21  22
ENDBRANCH  20  21
ENDBRANCH  19  20
ENDBRANCH  18  19
ENDBRANCH  17  18
ENDBRANCH  15  17
ENDBRANCH   1  14
TORSDOF 8
ENDMDL
MODEL 4
REMARK VINA RESULT:      -6.9      6.507      8.380
REMARK  Name = 
REMARK  8 active torsions:
REMARK  status: ('A' for Active; 'I' for Inactive)
REMARK    1  A    between atoms: C_2  and  C_10
REMARK    2  A    between atoms: N_3  and  C_4
REMARK    3  A    between atoms: C_4  and  C_5
REMARK    4  A    between atoms: C_5  and  C_6
REMARK    5  A    between atoms: C_6  and  C_7
REMARK    6  A    between atoms: C_7  and  C_8
REMARK    7  A    between atoms: C_8  and  S_9
REMARK    8  A    between atoms: C_12  and  C_13
REMARK                            x       y       z     vdW  Elec       q    Type
REMARK                         _______ _______ _______ _____ _____    ______ ____
ROOT
ATOM      1  C   UNL     1       7.511   6.839  18.027  0.00  0.00    +0.000 A 
ATOM      2  C   UNL     1       8.352   7.558  18.905  0.00  0.00    +0.000 A 
ATOM      3  C   UNL     1       8.487   8.803  18.346  0.00  0.00    +0.000 A 
ATOM      4  O   UNL     1       7.777   8.830  17.180  0.00  0.00    +0.000 OA
ATOM      5  N   UNL     1       7.164   7.596  16.971  0.00  0.00    +0.000 NA
ENDROOT
BRANCH   3   6
ATOM      6  C   UNL     1       9.189  10.015  18.757  0.00  0.00    +0.000 A 
ATOM      7  C   UNL     1       9.290  10.326  20.127  0.00  0.00    +0.000 A 
ATOM      8  C   UNL     1       9.911  11.501  20.559  0.00  0.00    +0.000 A 
ATOM      9  C   UNL     1      10.441  12.375  19.620  0.00  0.00    +0.000 A 
ATOM     10  F   UNL     1      11.021  13.508  20.031  0.00  0.00    +0.000 F 
ATOM     11  C   UNL     1      10.370  12.088  18.263  0.00  0.00    +0.000 A 
ATOM     12  C   UNL     1       9.748  10.909  17.829  0.00  0.00    +0.000 A 
ENDBRANCH   3   6
BRANCH   1  14
ATOM     13  O   UNL     1       7.821   4.508  18.008  0.00  0.00    +0.000 OA
ATOM     14  C   UNL     1       7.074   5.458  18.232  0.00  0.00    +0.000 C 
ATOM     15  N   UNL     1       5.773   5.292  18.671  0.00  0.00    +0.000 N 
ATOM     16  H   UNL     1       5.222   6.125  18.848  0.00  0.00    +0.000 HD
BRANCH  15  17
ATOM     17  C   UNL     1       5.207   3.972  18.844  0.00  0.00    +0.000 C 
BRANCH  17  18
ATOM     18  C   UNL     1       4.134   3.659  17.801  0.00  0.00    +0.000 C 
BRANCH  18  19
ATOM     19  C   UNL     1       3.152   4.825  17.656  0.00  0.00    +0.000 C 
BRANCH  19  20
ATOM     20  C   UNL     1       1.697   4.359  17.760  0.00  0.00    +0.000 C 
BRANCH  20  21
ATOM     21  C   UNL     1       1.613   2.960  18.370  0.00  0.00    +0.000 C 
BRANCH  21  22
ATOM     22  S   UNL     1       1.150   3.051  20.123  0.00  0.00    +0.000 S 
ATOM     23  H   UNL     1       0.290   4.073  20.006  0.00  0.00    +0.000 HD
ENDBRANCH  21  22
ENDBRANCH  20  21
ENDBRANCH  19  20
ENDBRANCH  18  19
ENDBRANCH  17  18
ENDBRANCH  15  17
ENDBRANCH   1  14
TORSDOF 8
ENDMDL
MODEL 5
REMARK VINA RESULT:      -6.9      5.465      7.080
REMARK  Name = 
REMARK  8 active torsions:
REMARK  status: ('A' for Active; 'I' for Inactive)
REMARK    1  A    between atoms: C_2  and  C_10
REMARK    2  A    between atoms: N_3  and  C_4
REMARK    3  A    between atoms: C_4  and  C_5
REMARK    4  A    between atoms: C_5  and  C_6
REMARK    5  A    between atoms: C_6  and  C_7
REMARK    6  A    between atoms: C_7  and  C_8
REMARK    7  A    between atoms: C_8  and  S_9
REMARK    8  A    between atoms: C_12  and  C_13
REMARK                            x       y       z     vdW  Elec       q    Type
REMARK                         _______ _______ _______ _____ _____    ______ ____
ROOT
ATOM      1  C   UNL     1       6.767   6.212  18.142  0.00  0.00    +0.000 A 
ATOM      2  C   UNL     1       5.455   5.939  17.696  0.00  0.00    +0.000 A 
ATOM      3  C   UNL     1       5.052   4.831  18.399  0.00  0.00    +0.000 A 
ATOM      4  O   UNL     1       6.075   4.445  19.216  0.00  0.00    +0.000 OA
ATOM      5  N   UNL     1       7.159   5.307  19.056  0.00  0.00    +0.000 NA
ENDROOT
BRANCH   3   6
ATOM      6  C   UNL     1       3.810   4.064  18.435  0.00  0.00    +0.000 A 
ATOM      7  C   UNL     1       2.630   4.632  17.916  0.00  0.00    +0.000 A 
ATOM      8  C   UNL     1       1.412   3.951  17.976  0.00  0.00    +0.000 A 
ATOM      9  C   UNL     1       1.366   2.690  18.553  0.00  0.00    +0.000 A 
ATOM     10  F   UNL     1       0.197   2.043  18.625  0.00  0.00    +0.000 F 
ATOM     11  C   UNL     1       2.515   2.099  19.059  0.00  0.00    +0.000 A 
ATOM     12  C   UNL     1       3.738   2.781  18.999  0.00  0.00    +0.000 A 
ENDBRANCH   3   6
BRANCH   1  14
ATOM     13  O   UNL     1       8.048   7.353  16.534  0.00  0.00    +0.000 OA
ATOM     14  C   UNL     1       7.593   7.325  17.676  0.00  0.00    +0.000 C 
ATOM     15  N   UNL     1       7.842   8.324  18.598  0.00  0.00    +0.000 N 
ATOM     16  H   UNL     1       7.419   8.238  19.517  0.00  0.00    +0.000 HD
BRANCH  15  17
ATOM     17  C   UNL     1       8.702   9.442  18.274  0.00  0.00    +0.000 C 
BRANCH  17  18
ATOM     18  C   UNL     1       9.274  10.115  19.522  0.00  0.00    +0.000 C 
BRANCH  18  19
ATOM     19  C   UNL     1       9.895  11.472  19.179  0.00  0.00    +0.000 C 
BRANCH  19  20
ATOM     20  C   UNL     1      10.313  11.551  17.708  0.00  0.00    +0.000 C 
BRANCH  20  21
ATOM     21  C   UNL     1      10.496  13.003  17.268  0.00  0.00    +0.000 C 
BRANCH  21  22
ATOM     22  S   UNL     1      12.258  13.400  17.083  0.00  0.00    +0.000 S 
ATOM     23  H   UNL     1      12.726  12.177  17.370  0.00  0.00    +0.000 HD
ENDBRANCH  21  22
ENDBRANCH  20  21
ENDBRANCH  19  20
ENDBRANCH  18  19
ENDBRANCH  17  18
ENDBRANCH  15  17
ENDBRANCH   1  14
TORSDOF 8
ENDMDL
MODEL 6
REMARK VINA RESULT:      -6.8      1.247      1.340
REMARK  Name = 
REMARK  8 active torsions:
REMARK  status: ('A' for Active; 'I' for Inactive)
REMARK    1  A    between atoms: C_2  and  C_10
REMARK    2  A    between atoms: N_3  and  C_4
REMARK    3  A    between atoms: C_4  and  C_5
REMARK    4  A    between atoms: C_5  and  C_6
REMARK    5  A    between atoms: C_6  and  C_7
REMARK    6  A    between atoms: C_7  and  C_8
REMARK    7  A    between atoms: C_8  and  S_9
REMARK    8  A    between atoms: C_12  and  C_13
REMARK                            x       y       z     vdW  Elec       q    Type
REMARK                         _______ _______ _______ _____ _____    ______ ____
ROOT
ATOM      1  C   UNL     1       5.355   5.042  16.454  0.00  0.00    +0.000 A 
ATOM      2  C   UNL     1       4.802   3.959  17.172  0.00  0.00    +0.000 A 
ATOM      3  C   UNL     1       4.045   4.526  18.166  0.00  0.00    +0.000 A 
ATOM      4  O   UNL     1       4.150   5.883  18.065  0.00  0.00    +0.000 OA
ATOM      5  N   UNL     1       4.976   6.215  16.992  0.00  0.00    +0.000 NA
ENDROOT
BRANCH   3   6
ATOM      6  C   UNL     1       3.201   3.974  19.221  0.00  0.00    +0.000 A 
ATOM      7  C   UNL     1       1.885   4.452  19.375  0.00  0.00    +0.000 A 
ATOM      8  C   UNL     1       1.061   3.985  20.402  0.00  0.00    +0.000 A 
ATOM      9  C   UNL     1       1.548   3.029  21.283  0.00  0.00    +0.000 A 
ATOM     10  F   UNL     1       0.765   2.593  22.277  0.00  0.00    +0.000 F 
ATOM     11  C   UNL     1       2.835   2.529  21.147  0.00  0.00    +0.000 A 
ATOM     12  C   UNL     1       3.662   2.996  20.117  0.00  0.00    +0.000 A 
ENDBRANCH   3   6
BRANCH   1  14
ATOM     13  O   UNL     1       7.266   5.560  15.185  0.00  0.00    +0.000 OA
ATOM     14  C   UNL     1       6.224   4.914  15.285  0.00  0.00    +0.000 C 
ATOM     15  N   UNL     1       5.794   4.043  14.301  0.00  0.00    +0.000 N 
ATOM     16  H   UNL     1       4.932   3.534  14.463  0.00  0.00    +0.000 HD
BRANCH  15  17
ATOM     17  C   UNL     1       6.535   3.884  13.069  0.00  0.00    +0.000 C 
BRANCH  17  18
ATOM     18  C   UNL     1       5.872   2.888  12.118  0.00  0.00    +0.000 C 
BRANCH  18  19
ATOM     19  C   UNL     1       5.051   3.614  11.048  0.00  0.00    +0.000 C 
BRANCH  19  20
ATOM     20  C   UNL     1       3.556   3.308  11.175  0.00  0.00    +0.000 C 
BRANCH  20  21
ATOM     21  C   UNL     1       2.904   3.182   9.799  0.00  0.00    +0.000 C 
BRANCH  21  22
ATOM     22  S   UNL     1       2.485   4.820   9.134  0.00  0.00    +0.000 S 
ATOM     23  H   UNL     1       1.457   5.065   9.958  0.00  0.00    +0.000 HD
ENDBRANCH  21  22
ENDBRANCH  20  21
ENDBRANCH  19  20
ENDBRANCH  18  19
ENDBRANCH  17  18
ENDBRANCH  15  17
ENDBRANCH   1  14
TORSDOF 8
ENDMDL
MODEL 7
REMARK VINA RESULT:      -6.8      1.075      1.258
REMARK  Name = 
REMARK  8 active torsions:
REMARK  status: ('A' for Active; 'I' for Inactive)
REMARK    1  A    between atoms: C_2  and  C_10
REMARK    2  A    between atoms: N_3  and  C_4
REMARK    3  A    between atoms: C_4  and  C_5
REMARK    4  A    between atoms: C_5  and  C_6
REMARK    5  A    between atoms: C_6  and  C_7
REMARK    6  A    between atoms: C_7  and  C_8
REMARK    7  A    between atoms: C_8  and  S_9
REMARK    8  A    between atoms: C_12  and  C_13
REMARK                            x       y       z     vdW  Elec       q    Type
REMARK                         _______ _______ _______ _____ _____    ______ ____
ROOT
ATOM      1  C   UNL     1       6.488   4.845  16.953  0.00  0.00    +0.000 A 
ATOM      2  C   UNL     1       5.107   4.640  17.168  0.00  0.00    +0.000 A 
ATOM      3  C   UNL     1       4.995   4.244  18.477  0.00  0.00    +0.000 A 
ATOM      4  O   UNL     1       6.247   4.196  19.020  0.00  0.00    +0.000 OA
ATOM      5  N   UNL     1       7.191   4.568  18.065  0.00  0.00    +0.000 NA
ENDROOT
BRANCH   3   6
ATOM      6  C   UNL     1       3.858   3.907  19.328  0.00  0.00    +0.000 A 
ATOM      7  C   UNL     1       3.909   2.746  20.124  0.00  0.00    +0.000 A 
ATOM      8  C   UNL     1       2.823   2.363  20.914  0.00  0.00    +0.000 A 
ATOM      9  C   UNL     1       1.675   3.143  20.918  0.00  0.00    +0.000 A 
ATOM     10  F   UNL     1       0.628   2.768  21.663  0.00  0.00    +0.000 F 
ATOM     11  C   UNL     1       1.602   4.300  20.155  0.00  0.00    +0.000 A 
ATOM     12  C   UNL     1       2.691   4.686  19.362  0.00  0.00    +0.000 A 
ENDBRANCH   3   6
BRANCH   1  14
ATOM     13  O   UNL     1       7.707   6.350  15.620  0.00  0.00    +0.000 OA
ATOM     14  C   UNL     1       7.080   5.296  15.693  0.00  0.00    +0.000 C 
ATOM     15  N   UNL     1       6.874   4.478  14.598  0.00  0.00    +0.000 N 
ATOM     16  H   UNL     1       6.358   3.616  14.741  0.00  0.00    +0.000 HD
BRANCH  15  17
ATOM     17  C   UNL     1       7.353   4.853  13.286  0.00  0.00    +0.000 C 
BRANCH  17  18
ATOM     18  C   UNL     1       6.877   3.891  12.197  0.00  0.00    +0.000 C 
BRANCH  18  19
ATOM     19  C   UNL     1       5.583   3.185  12.615  0.00  0.00    +0.000 C 
BRANCH  19  20
ATOM     20  C   UNL     1       4.349   3.849  11.997  0.00  0.00    +0.000 C 
BRANCH  20  21
ATOM     21  C   UNL     1       3.792   3.007  10.850  0.00  0.00    +0.000 C 
BRANCH  21  22
ATOM     22  S   UNL     1       3.013   4.065   9.596  0.00  0.00    +0.000 S 
ATOM     23  H   UNL     1       3.116   5.216  10.277  0.00  0.00    +0.000 HD
ENDBRANCH  21  22
ENDBRANCH  20  21
ENDBRANCH  19  20
ENDBRANCH  18  19
ENDBRANCH  17  18
ENDBRANCH  15  17
ENDBRANCH   1  14
TORSDOF 8
ENDMDL
MODEL 8
REMARK VINA RESULT:      -6.8      1.441      1.728
REMARK  Name = 
REMARK  8 active torsions:
REMARK  status: ('A' for Active; 'I' for Inactive)
REMARK    1  A    between atoms: C_2  and  C_10
REMARK    2  A    between atoms: N_3  and  C_4
REMARK    3  A    between atoms: C_4  and  C_5
REMARK    4  A    between atoms: C_5  and  C_6
REMARK    5  A    between atoms: C_6  and  C_7
REMARK    6  A    between atoms: C_7  and  C_8
REMARK    7  A    between atoms: C_8  and  S_9
REMARK    8  A    between atoms: C_12  and  C_13
REMARK                            x       y       z     vdW  Elec       q    Type
REMARK                         _______ _______ _______ _____ _____    ______ ____
ROOT
ATOM      1  C   UNL     1       5.471   5.612  16.568  0.00  0.00    +0.000 A 
ATOM      2  C   UNL     1       5.163   4.573  17.473  0.00  0.00    +0.000 A 
ATOM      3  C   UNL     1       4.050   4.997  18.154  0.00  0.00    +0.000 A 
ATOM      4  O   UNL     1       3.713   6.238  17.696  0.00  0.00    +0.000 OA
ATOM      5  N   UNL     1       4.605   6.633  16.701  0.00  0.00    +0.000 NA
ENDROOT
BRANCH   3   6
ATOM      6  C   UNL     1       3.219   4.393  19.191  0.00  0.00    +0.000 A 
ATOM      7  C   UNL     1       3.454   3.058  19.576  0.00  0.00    +0.000 A 
ATOM      8  C   UNL     1       2.650   2.428  20.529  0.00  0.00    +0.000 A 
ATOM      9  C   UNL     1       1.604   3.132  21.109  0.00  0.00    +0.000 A 
ATOM     10  F   UNL     1       0.823   2.525  22.010  0.00  0.00    +0.000 F 
ATOM     11  C   UNL     1       1.358   4.453  20.761  0.00  0.00    +0.000 A 
ATOM     12  C   UNL     1       2.164   5.086  19.805  0.00  0.00    +0.000 A 
ENDBRANCH   3   6
BRANCH   1  14
ATOM     13  O   UNL     1       7.634   6.181  15.841  0.00  0.00    +0.000 OA
ATOM     14  C   UNL     1       6.580   5.589  15.614  0.00  0.00    +0.000 C 
ATOM     15  N   UNL     1       6.362   4.883  14.446  0.00  0.00    +0.000 N 
ATOM     16  H   UNL     1       5.471   4.409  14.338  0.00  0.00    +0.000 HD
BRANCH  15  17
ATOM     17  C   UNL     1       7.359   4.846  13.399  0.00  0.00    +0.000 C 
BRANCH  17  18
ATOM     18  C   UNL     1       6.885   4.067  12.173  0.00  0.00    +0.000 C 
BRANCH  18  19
ATOM     19  C   UNL     1       5.689   3.175  12.517  0.00  0.00    +0.000 C 
BRANCH  19  20
ATOM     20  C   UNL     1       4.948   2.707  11.260  0.00  0.00    +0.000 C 
BRANCH  20  21
ATOM     21  C   UNL     1       3.512   3.227  11.246  0.00  0.00    +0.000 C 
BRANCH  21  22
ATOM     22  S   UNL     1       3.150   4.072   9.680  0.00  0.00    +0.000 S 
ATOM     23  H   UNL     1       2.830   2.974   8.980  0.00  0.00    +0.000 HD
ENDBRANCH  21  22
ENDBRANCH  20  21
ENDBRANCH  19  20
ENDBRANCH  18  19
ENDBRANCH  17  18
ENDBRANCH  15  17
ENDBRANCH   1  14
TORSDOF 8
ENDMDL
MODEL 9
REMARK VINA RESULT:      -6.8      5.478      7.134
REMARK  Name = 
REMARK  8 active torsions:
REMARK  status: ('A' for Active; 'I' for Inactive)
REMARK    1  A    between atoms: C_2  and  C_10
REMARK    2  A    between atoms: N_3  and  C_4
REMARK    3  A    between atoms: C_4  and  C_5
REMARK    4  A    between atoms: C_5  and  C_6
REMARK    5  A    between atoms: C_6  and  C_7
REMARK    6  A    between atoms: C_7  and  C_8
REMARK    7  A    between atoms: C_8  and  S_9
REMARK    8  A    between atoms: C_12  and  C_13
REMARK                            x       y       z     vdW  Elec       q    Type
REMARK                         _______ _______ _______ _____ _____    ______ ____
ROOT
ATOM      1  C   UNL     1       6.878   6.222  18.234  0.00  0.00    +0.000 A 
ATOM      2  C   UNL     1       5.543   6.015  17.822  0.00  0.00    +0.000 A 
ATOM      3  C   UNL     1       5.132   4.878  18.471  0.00  0.00    +0.000 A 
ATOM      4  O   UNL     1       6.172   4.413  19.224  0.00  0.00    +0.000 OA
ATOM      5  N   UNL     1       7.275   5.252  19.076  0.00  0.00    +0.000 NA
ENDROOT
BRANCH   3   6
ATOM      6  C   UNL     1       3.870   4.146  18.507  0.00  0.00    +0.000 A 
ATOM      7  C   UNL     1       3.845   2.833  19.019  0.00  0.00    +0.000 A 
ATOM      8  C   UNL     1       2.668   2.081  19.026  0.00  0.00    +0.000 A 
ATOM      9  C   UNL     1       1.501   2.640  18.523  0.00  0.00    +0.000 A 
ATOM     10  F   UNL     1       0.377   1.915  18.514  0.00  0.00    +0.000 F 
ATOM     11  C   UNL     1       1.492   3.936  18.026  0.00  0.00    +0.000 A 
ATOM     12  C   UNL     1       2.672   4.691  18.019  0.00  0.00    +0.000 A 
ENDBRANCH   3   6
BRANCH   1  14
ATOM     13  O   UNL     1       8.066   7.469  16.633  0.00  0.00    +0.000 OA
ATOM     14  C   UNL     1       7.721   7.339  17.806  0.00  0.00    +0.000 C 
ATOM     15  N   UNL     1       8.115   8.218  18.797  0.00  0.00    +0.000 N 
ATOM     16  H   UNL     1       7.776   8.052  19.739  0.00  0.00    +0.000 HD
BRANCH  15  17
ATOM     17  C   UNL     1       9.004   9.321  18.507  0.00  0.00    +0.000 C 
BRANCH  17  18
ATOM     18  C   UNL     1       9.272  10.190  19.735  0.00  0.00    +0.000 C 
BRANCH  18  19
ATOM     19  C   UNL     1       9.999  11.481  19.348  0.00  0.00    +0.000 C 
BRANCH  19  20
ATOM     20  C   UNL     1      10.432  11.471  17.879  0.00  0.00    +0.000 C 
BRANCH  20  21
ATOM     21  C   UNL     1      10.424  12.883  17.296  0.00  0.00    +0.000 C 
BRANCH  21  22
ATOM     22  S   UNL     1      12.115  13.438  16.932  0.00  0.00    +0.000 S 
ATOM     23  H   UNL     1      12.331  14.057  18.101  0.00  0.00    +0.000 HD
ENDBRANCH  21  22
ENDBRANCH  20  21
ENDBRANCH  19  20
ENDBRANCH  18  19
ENDBRANCH  17  18
ENDBRANCH  15  17
ENDBRANCH   1  14
TORSDOF 8
ENDMDL
