MODEL 1
REMARK VINA RESULT:      -7.9      0.000      0.000
REMARK  Name = 
REMARK  8 active torsions:
REMARK  status: ('A' for Active; 'I' for Inactive)
REMARK    1  A    between atoms: C_1  and  C_2
REMARK    2  A    between atoms: C_4  and  C_5
REMARK    3  A    between atoms: C_5  and  N_6
REMARK    4  A    between atoms: N_6  and  C_7
REMARK    5  A    between atoms: C_7  and  C_8
REMARK    6  A    between atoms: C_8  and  C_9
REMARK    7  A    between atoms: C_9  and  N_10
REMARK    8  A    between atoms: C_17  and  C_18
REMARK                            x       y       z     vdW  Elec       q    Type
REMARK                         _______ _______ _______ _____ _____    ______ ____
ROOT
ATOM      1  N   UNL     1       3.121   5.830  19.106  0.00  0.00    +0.000 N 
ATOM      2  C   UNL     1       2.505   7.038  19.317  0.00  0.00    +0.000 A 
ATOM      3  N   UNL     1       2.607   7.963  18.299  0.00  0.00    +0.000 NA
ATOM      4  C   UNL     1       1.942   9.071  18.395  0.00  0.00    +0.000 A 
ATOM      5  N   UNL     1       2.002  10.058  17.445  0.00  0.00    +0.000 N 
ATOM      6  N   UNL     1       1.154   9.277  19.522  0.00  0.00    +0.000 N 
ATOM      7  N   UNL     1       0.328  10.317  19.738  0.00  0.00    +0.000 NA
ATOM      8  C   UNL     1      -0.033  10.071  21.009  0.00  0.00    +0.000 A 
ATOM      9  N   UNL     1       0.495   8.914  21.551  0.00  0.00    +0.000 NA
ATOM     10  C   UNL     1       1.181   8.394  20.558  0.00  0.00    +0.000 A 
ATOM     11  N   UNL     1       1.836   7.225  20.428  0.00  0.00    +0.000 NA
ATOM     12  H   UNL     1       3.412   5.720  18.141  0.00  0.00    +0.000 HD
ATOM     13  H   UNL     1       2.412   9.828  16.549  0.00  0.00    +0.000 HD
ATOM     14  H   UNL     1       1.308  10.802  17.472  0.00  0.00    +0.000 HD
ENDROOT
BRANCH   8  15
ATOM     15  C   UNL     1      -0.950  10.959  21.779  0.00  0.00    +0.000 A 
ATOM     16  C   UNL     1      -1.254  10.835  23.122  0.00  0.00    +0.000 A 
ATOM     17  C   UNL     1      -2.160  11.876  23.436  0.00  0.00    +0.000 A 
ATOM     18  C   UNL     1      -2.383  12.553  22.260  0.00  0.00    +0.000 A 
ATOM     19  O   UNL     1      -1.635  12.024  21.258  0.00  0.00    +0.000 OA
ENDBRANCH   8  15
BRANCH   1  20
ATOM     20  C   UNL     1       2.580   4.629  19.730  0.00  0.00    +0.000 C 
BRANCH  20  21
ATOM     21  C   UNL     1       3.566   3.468  19.642  0.00  0.00    +0.000 C 
BRANCH  21  22
ATOM     22  C   UNL     1       4.983   3.982  19.359  0.00  0.00    +0.000 C 
BRANCH  22  23
ATOM     23  N   UNL     1       5.239   3.949  17.918  0.00  0.00    +0.000 NA
ATOM     24  H   UNL     1       5.637   3.043  17.663  0.00  0.00    +0.000 HD
BRANCH  23  25
ATOM     25  C   UNL     1       6.198   4.986  17.513  0.00  0.00    +0.000 C 
BRANCH  25  29
ATOM     26  C   UNL     1       6.439   3.712  12.563  0.00  0.00    +0.000 C 
ATOM     27  C   UNL     1       6.552   4.241  13.934  0.00  0.00    +0.000 A 
ATOM     28  C   UNL     1       5.869   4.010  15.103  0.00  0.00    +0.000 A 
ATOM     29  C   UNL     1       6.512   4.833  16.057  0.00  0.00    +0.000 A 
ATOM     30  N   UNL     1       7.509   5.534  15.496  0.00  0.00    +0.000 NA
ATOM     31  O   UNL     1       7.530   5.156  14.162  0.00  0.00    +0.000 OA
ENDBRANCH  25  29
ENDBRANCH  23  25
ENDBRANCH  22  23
ENDBRANCH  21  22
ENDBRANCH  20  21
ENDBRANCH   1  20
TORSDOF 7
ENDMDL
MODEL 2
REMARK VINA RESULT:      -7.8      2.231      2.683
REMARK  Name = 
REMARK  8 active torsions:
REMARK  status: ('A' for Active; 'I' for Inactive)
REMARK    1  A    between atoms: C_1  and  C_2
REMARK    2  A    between atoms: C_4  and  C_5
REMARK    3  A    between atoms: C_5  and  N_6
REMARK    4  A    between atoms: N_6  and  C_7
REMARK    5  A    between atoms: C_7  and  C_8
REMARK    6  A    between atoms: C_8  and  C_9
REMARK    7  A    between atoms: C_9  and  N_10
REMARK    8  A    between atoms: C_17  and  C_18
REMARK                            x       y       z     vdW  Elec       q    Type
REMARK                         _______ _______ _______ _____ _____    ______ ____
ROOT
ATOM      1  N   UNL     1       2.787   5.273  20.366  0.00  0.00    +0.000 N 
ATOM      2  C   UNL     1       2.281   6.543  20.246  0.00  0.00    +0.000 A 
ATOM      3  N   UNL     1       2.514   7.184  19.047  0.00  0.00    +0.000 NA
ATOM      4  C   UNL     1       1.954   8.334  18.837  0.00  0.00    +0.000 A 
ATOM      5  N   UNL     1       2.148   9.055  17.687  0.00  0.00    +0.000 N 
ATOM      6  N   UNL     1       1.143   8.869  19.831  0.00  0.00    +0.000 N 
ATOM      7  N   UNL     1       0.411   9.995  19.743  0.00  0.00    +0.000 NA
ATOM      8  C   UNL     1      -0.024  10.092  21.011  0.00  0.00    +0.000 A 
ATOM      9  N   UNL     1       0.367   9.060  21.842  0.00  0.00    +0.000 NA
ATOM     10  C   UNL     1       1.042   8.262  21.046  0.00  0.00    +0.000 A 
ATOM     11  N   UNL     1       1.586   7.046  21.237  0.00  0.00    +0.000 NA
ATOM     12  H   UNL     1       3.107   4.910  19.474  0.00  0.00    +0.000 HD
ATOM     13  H   UNL     1       2.571   8.583  16.898  0.00  0.00    +0.000 HD
ATOM     14  H   UNL     1       1.528   9.839  17.494  0.00  0.00    +0.000 HD
ENDROOT
BRANCH   8  15
ATOM     15  C   UNL     1      -0.884  11.213  21.489  0.00  0.00    +0.000 A 
ATOM     16  C   UNL     1      -1.084  11.568  22.810  0.00  0.00    +0.000 A 
ATOM     17  C   UNL     1      -1.968  12.673  22.809  0.00  0.00    +0.000 A 
ATOM     18  C   UNL     1      -2.283  12.906  21.492  0.00  0.00    +0.000 A 
ATOM     19  O   UNL     1      -1.611  12.047  20.683  0.00  0.00    +0.000 OA
ENDBRANCH   8  15
BRANCH   1  20
ATOM     20  C   UNL     1       2.108   4.306  21.219  0.00  0.00    +0.000 C 
BRANCH  20  21
ATOM     21  C   UNL     1       1.080   3.500  20.432  0.00  0.00    +0.000 C 
BRANCH  21  22
ATOM     22  C   UNL     1       1.582   3.224  19.009  0.00  0.00    +0.000 C 
BRANCH  22  23
ATOM     23  N   UNL     1       2.265   1.931  18.972  0.00  0.00    +0.000 NA
ATOM     24  H   UNL     1       2.683   1.738  19.884  0.00  0.00    +0.000 HD
BRANCH  23  25
ATOM     25  C   UNL     1       3.346   1.916  17.976  0.00  0.00    +0.000 C 
BRANCH  25  29
ATOM     26  C   UNL     1       6.254   6.125  17.820  0.00  0.00    +0.000 C 
ATOM     27  C   UNL     1       5.498   4.891  18.100  0.00  0.00    +0.000 A 
ATOM     28  C   UNL     1       4.598   4.142  17.383  0.00  0.00    +0.000 A 
ATOM     29  C   UNL     1       4.277   3.061  18.236  0.00  0.00    +0.000 A 
ATOM     30  N   UNL     1       4.927   3.160  19.406  0.00  0.00    +0.000 NA
ATOM     31  O   UNL     1       5.694   4.312  19.314  0.00  0.00    +0.000 OA
ENDBRANCH  25  29
ENDBRANCH  23  25
ENDBRANCH  22  23
ENDBRANCH  21  22
ENDBRANCH  20  21
ENDBRANCH   1  20
TORSDOF 7
ENDMDL
MODEL 3
REMARK VINA RESULT:      -7.8      2.038      2.562
REMARK  Name = 
REMARK  8 active torsions:
REMARK  status: ('A' for Active; 'I' for Inactive)
REMARK    1  A    between atoms: C_1  and  C_2
REMARK    2  A    between atoms: C_4  and  C_5
REMARK    3  A    between atoms: C_5  and  N_6
REMARK    4  A    between atoms: N_6  and  C_7
REMARK    5  A    between atoms: C_7  and  C_8
REMARK    6  A    between atoms: C_8  and  C_9
REMARK    7  A    between atoms: C_9  and  N_10
REMARK    8  A    between atoms: C_17  and  C_18
REMARK                            x       y       z     vdW  Elec       q    Type
REMARK                         _______ _______ _______ _____ _____    ______ ____
ROOT
ATOM      1  N   UNL     1       2.480   6.303  19.933  0.00  0.00    +0.000 N 
ATOM      2  C   UNL     1       1.971   7.573  20.043  0.00  0.00    +0.000 A 
ATOM      3  N   UNL     1       1.957   8.329  18.890  0.00  0.00    +0.000 NA
ATOM      4  C   UNL     1       1.376   9.487  18.911  0.00  0.00    +0.000 A 
ATOM      5  N   UNL     1       1.335  10.317  17.820  0.00  0.00    +0.000 N 
ATOM      6  N   UNL     1       0.792   9.916  20.098  0.00  0.00    +0.000 N 
ATOM      7  N   UNL     1       0.068  11.036  20.271  0.00  0.00    +0.000 NA
ATOM      8  C   UNL     1      -0.095  11.007  21.604  0.00  0.00    +0.000 A 
ATOM      9  N   UNL     1       0.450   9.904  22.235  0.00  0.00    +0.000 NA
ATOM     10  C   UNL     1       0.939   9.193  21.243  0.00  0.00    +0.000 A 
ATOM     11  N   UNL     1       1.500   7.971  21.200  0.00  0.00    +0.000 NA
ATOM     12  H   UNL     1       2.605   6.031  18.965  0.00  0.00    +0.000 HD
ATOM     13  H   UNL     1       1.582   9.927  16.920  0.00  0.00    +0.000 HD
ATOM     14  H   UNL     1       0.695  11.109  17.835  0.00  0.00    +0.000 HD
ENDROOT
BRANCH   8  15
ATOM     15  C   UNL     1      -0.828  12.066  22.356  0.00  0.00    +0.000 A 
ATOM     16  C   UNL     1      -2.201  12.160  22.485  0.00  0.00    +0.000 A 
ATOM     17  C   UNL     1      -2.462  13.310  23.268  0.00  0.00    +0.000 A 
ATOM     18  C   UNL     1      -1.237  13.869  23.542  0.00  0.00    +0.000 A 
ATOM     19  O   UNL     1      -0.240  13.110  23.019  0.00  0.00    +0.000 OA
ENDBRANCH   8  15
BRANCH   1  20
ATOM     20  C   UNL     1       1.983   5.251  20.812  0.00  0.00    +0.000 C 
BRANCH  20  21
ATOM     21  C   UNL     1       1.318   4.133  20.015  0.00  0.00    +0.000 C 
BRANCH  21  22
ATOM     22  C   UNL     1       1.508   4.356  18.509  0.00  0.00    +0.000 C 
BRANCH  22  23
ATOM     23  N   UNL     1       1.890   3.096  17.870  0.00  0.00    +0.000 NA
ATOM     24  H   UNL     1       1.105   2.442  17.907  0.00  0.00    +0.000 HD
BRANCH  23  25
ATOM     25  C   UNL     1       3.027   2.463  18.555  0.00  0.00    +0.000 C 
BRANCH  25  29
ATOM     26  C   UNL     1       6.896   5.227  16.661  0.00  0.00    +0.000 C 
ATOM     27  C   UNL     1       5.895   4.462  17.427  0.00  0.00    +0.000 A 
ATOM     28  C   UNL     1       4.711   3.848  17.099  0.00  0.00    +0.000 A 
ATOM     29  C   UNL     1       4.265   3.269  18.311  0.00  0.00    +0.000 A 
ATOM     30  N   UNL     1       5.116   3.534  19.314  0.00  0.00    +0.000 NA
ATOM     31  O   UNL     1       6.139   4.283  18.751  0.00  0.00    +0.000 OA
ENDBRANCH  25  29
ENDBRANCH  23  25
ENDBRANCH  22  23
ENDBRANCH  21  22
ENDBRANCH  20  21
ENDBRANCH   1  20
TORSDOF 7
ENDMDL
MODEL 4
REMARK VINA RESULT:      -7.7      2.008      2.393
REMARK  Name = 
REMARK  8 active torsions:
REMARK  status: ('A' for Active; 'I' for Inactive)
REMARK    1  A    between atoms: C_1  and  C_2
REMARK    2  A    between atoms: C_4  and  C_5
REMARK    3  A    between atoms: C_5  and  N_6
REMARK    4  A    between atoms: N_6  and  C_7
REMARK    5  A    between atoms: C_7  and  C_8
REMARK    6  A    between atoms: C_8  and  C_9
REMARK    7  A    between atoms: C_9  and  N_10
REMARK    8  A    between atoms: C_17  and  C_18
REMARK                            x       y       z     vdW  Elec       q    Type
REMARK                         _______ _______ _______ _____ _____    ______ ____
ROOT
ATOM      1  N   UNL     1       2.533   6.035  20.119  0.00  0.00    +0.000 N 
ATOM      2  C   UNL     1       2.006   7.302  20.081  0.00  0.00    +0.000 A 
ATOM      3  N   UNL     1       2.149   7.989  18.894  0.00  0.00    +0.000 NA
ATOM      4  C   UNL     1       1.564   9.138  18.765  0.00  0.00    +0.000 A 
ATOM      5  N   UNL     1       1.671   9.902  17.632  0.00  0.00    +0.000 N 
ATOM      6  N   UNL     1       0.818   9.627  19.832  0.00  0.00    +0.000 N 
ATOM      7  N   UNL     1       0.071  10.746  19.836  0.00  0.00    +0.000 NA
ATOM      8  C   UNL     1      -0.276  10.792  21.133  0.00  0.00    +0.000 A 
ATOM      9  N   UNL     1       0.182   9.736  21.897  0.00  0.00    +0.000 NA
ATOM     10  C   UNL     1       0.808   8.975  21.027  0.00  0.00    +0.000 A 
ATOM     11  N   UNL     1       1.377   7.760  21.136  0.00  0.00    +0.000 NA
ATOM     12  H   UNL     1       2.793   5.708  19.195  0.00  0.00    +0.000 HD
ATOM     13  H   UNL     1       2.043   9.464  16.799  0.00  0.00    +0.000 HD
ATOM     14  H   UNL     1       1.031  10.685  17.511  0.00  0.00    +0.000 HD
ENDROOT
BRANCH   8  15
ATOM     15  C   UNL     1      -1.112  11.883  21.711  0.00  0.00    +0.000 A 
ATOM     16  C   UNL     1      -1.411  12.047  23.050  0.00  0.00    +0.000 A 
ATOM     17  C   UNL     1      -2.228  13.198  23.152  0.00  0.00    +0.000 A 
ATOM     18  C   UNL     1      -2.409  13.650  21.866  0.00  0.00    +0.000 A 
ATOM     19  O   UNL     1      -1.715  12.879  20.990  0.00  0.00    +0.000 OA
ENDBRANCH   8  15
BRANCH   1  20
ATOM     20  C   UNL     1       1.924   5.029  20.981  0.00  0.00    +0.000 C 
BRANCH  20  21
ATOM     21  C   UNL     1       1.294   3.907  20.162  0.00  0.00    +0.000 C 
BRANCH  21  22
ATOM     22  C   UNL     1       1.968   2.565  20.475  0.00  0.00    +0.000 C 
BRANCH  22  23
ATOM     23  N   UNL     1       3.417   2.695  20.317  0.00  0.00    +0.000 NA
ATOM     24  H   UNL     1       3.708   3.635  20.592  0.00  0.00    +0.000 HD
BRANCH  23  25
ATOM     25  C   UNL     1       3.831   2.492  18.921  0.00  0.00    +0.000 C 
BRANCH  25  29
ATOM     26  C   UNL     1       5.120   6.508  16.023  0.00  0.00    +0.000 C 
ATOM     27  C   UNL     1       4.842   5.485  17.047  0.00  0.00    +0.000 A 
ATOM     28  C   UNL     1       4.225   4.258  17.025  0.00  0.00    +0.000 A 
ATOM     29  C   UNL     1       4.325   3.787  18.355  0.00  0.00    +0.000 A 
ATOM     30  N   UNL     1       4.944   4.683  19.139  0.00  0.00    +0.000 NA
ATOM     31  O   UNL     1       5.268   5.747  18.310  0.00  0.00    +0.000 OA
ENDBRANCH  25  29
ENDBRANCH  23  25
ENDBRANCH  22  23
ENDBRANCH  21  22
ENDBRANCH  20  21
ENDBRANCH   1  20
TORSDOF 7
ENDMDL
MODEL 5
REMARK VINA RESULT:      -7.6      4.161      8.624
REMARK  Name = 
REMARK  8 active torsions:
REMARK  status: ('A' for Active; 'I' for Inactive)
REMARK    1  A    between atoms: C_1  and  C_2
REMARK    2  A    between atoms: C_4  and  C_5
REMARK    3  A    between atoms: C_5  and  N_6
REMARK    4  A    between atoms: N_6  and  C_7
REMARK    5  A    between atoms: C_7  and  C_8
REMARK    6  A    between atoms: C_8  and  C_9
REMARK    7  A    between atoms: C_9  and  N_10
REMARK    8  A    between atoms: C_17  and  C_18
REMARK                            x       y       z     vdW  Elec       q    Type
REMARK                         _______ _______ _______ _____ _____    ______ ____
ROOT
ATOM      1  N   UNL     1       4.753   3.531  20.415  0.00  0.00    +0.000 N 
ATOM      2  C   UNL     1       5.352   4.088  19.313  0.00  0.00    +0.000 A 
ATOM      3  N   UNL     1       6.276   5.083  19.555  0.00  0.00    +0.000 NA
ATOM      4  C   UNL     1       6.959   5.556  18.560  0.00  0.00    +0.000 A 
ATOM      5  N   UNL     1       7.879   6.561  18.703  0.00  0.00    +0.000 N 
ATOM      6  N   UNL     1       6.728   5.037  17.291  0.00  0.00    +0.000 N 
ATOM      7  N   UNL     1       7.409   5.338  16.171  0.00  0.00    +0.000 NA
ATOM      8  C   UNL     1       6.670   4.680  15.262  0.00  0.00    +0.000 A 
ATOM      9  N   UNL     1       5.610   3.961  15.782  0.00  0.00    +0.000 NA
ATOM     10  C   UNL     1       5.720   4.146  17.079  0.00  0.00    +0.000 A 
ATOM     11  N   UNL     1       5.051   3.625  18.124  0.00  0.00    +0.000 NA
ATOM     12  H   UNL     1       5.217   3.806  21.274  0.00  0.00    +0.000 HD
ATOM     13  H   UNL     1       8.183   6.796  19.639  0.00  0.00    +0.000 HD
ATOM     14  H   UNL     1       8.523   6.744  17.936  0.00  0.00    +0.000 HD
ENDROOT
BRANCH   8  15
ATOM     15  C   UNL     1       6.974   4.698  13.802  0.00  0.00    +0.000 A 
ATOM     16  C   UNL     1       6.478   3.812  12.864  0.00  0.00    +0.000 A 
ATOM     17  C   UNL     1       7.023   4.189  11.614  0.00  0.00    +0.000 A 
ATOM     18  C   UNL     1       7.847   5.260  11.866  0.00  0.00    +0.000 A 
ATOM     19  O   UNL     1       7.803   5.594  13.182  0.00  0.00    +0.000 OA
ENDBRANCH   8  15
BRANCH   1  20
ATOM     20  C   UNL     1       4.311   2.143  20.368  0.00  0.00    +0.000 C 
BRANCH  20  21
ATOM     21  C   UNL     1       2.804   2.049  20.150  0.00  0.00    +0.000 C 
BRANCH  21  22
ATOM     22  C   UNL     1       2.047   2.567  21.380  0.00  0.00    +0.000 C 
BRANCH  22  23
ATOM     23  N   UNL     1       0.923   3.399  20.949  0.00  0.00    +0.000 NA
ATOM     24  H   UNL     1       0.044   2.923  21.163  0.00  0.00    +0.000 HD
BRANCH  23  25
ATOM     25  C   UNL     1       0.954   3.646  19.500  0.00  0.00    +0.000 C 
BRANCH  25  29
ATOM     26  C   UNL     1       3.557   7.565  17.487  0.00  0.00    +0.000 C 
ATOM     27  C   UNL     1       2.849   6.549  18.286  0.00  0.00    +0.000 A 
ATOM     28  C   UNL     1       2.137   5.418  17.972  0.00  0.00    +0.000 A 
ATOM     29  C   UNL     1       1.748   4.886  19.224  0.00  0.00    +0.000 A 
ATOM     30  N   UNL     1       2.179   5.660  20.232  0.00  0.00    +0.000 NA
ATOM     31  O   UNL     1       2.872   6.703  19.636  0.00  0.00    +0.000 OA
ENDBRANCH  25  29
ENDBRANCH  23  25
ENDBRANCH  22  23
ENDBRANCH  21  22
ENDBRANCH  20  21
ENDBRANCH   1  20
TORSDOF 7
ENDMDL
MODEL 6
REMARK VINA RESULT:      -7.6      3.125      8.698
REMARK  Name = 
REMARK  8 active torsions:
REMARK  status: ('A' for Active; 'I' for Inactive)
REMARK    1  A    between atoms: C_1  and  C_2
REMARK    2  A    between atoms: C_4  and  C_5
REMARK    3  A    between atoms: C_5  and  N_6
REMARK    4  A    between atoms: N_6  and  C_7
REMARK    5  A    between atoms: C_7  and  C_8
REMARK    6  A    between atoms: C_8  and  C_9
REMARK    7  A    between atoms: C_9  and  N_10
REMARK    8  A    between atoms: C_17  and  C_18
REMARK                            x       y       z     vdW  Elec       q    Type
REMARK                         _______ _______ _______ _____ _____    ______ ____
ROOT
ATOM      1  N   UNL     1       4.260   3.575  20.459  0.00  0.00    +0.000 N 
ATOM      2  C   UNL     1       4.958   4.063  19.382  0.00  0.00    +0.000 A 
ATOM      3  N   UNL     1       6.000   4.921  19.667  0.00  0.00    +0.000 NA
ATOM      4  C   UNL     1       6.767   5.312  18.698  0.00  0.00    +0.000 A 
ATOM      5  N   UNL     1       7.810   6.182  18.882  0.00  0.00    +0.000 N 
ATOM      6  N   UNL     1       6.503   4.847  17.414  0.00  0.00    +0.000 N 
ATOM      7  N   UNL     1       7.249   5.071  16.317  0.00  0.00    +0.000 NA
ATOM      8  C   UNL     1       6.453   4.532  15.377  0.00  0.00    +0.000 A 
ATOM      9  N   UNL     1       5.293   3.955  15.858  0.00  0.00    +0.000 NA
ATOM     10  C   UNL     1       5.391   4.104  17.160  0.00  0.00    +0.000 A 
ATOM     11  N   UNL     1       4.630   3.663  18.178  0.00  0.00    +0.000 NA
ATOM     12  H   UNL     1       4.732   3.773  21.334  0.00  0.00    +0.000 HD
ATOM     13  H   UNL     1       8.116   6.360  19.829  0.00  0.00    +0.000 HD
ATOM     14  H   UNL     1       8.493   6.287  18.134  0.00  0.00    +0.000 HD
ENDROOT
BRANCH   8  15
ATOM     15  C   UNL     1       6.797   4.530  13.927  0.00  0.00    +0.000 A 
ATOM     16  C   UNL     1       6.347   3.616  12.992  0.00  0.00    +0.000 A 
ATOM     17  C   UNL     1       6.918   3.983  11.750  0.00  0.00    +0.000 A 
ATOM     18  C   UNL     1       7.709   5.078  12.005  0.00  0.00    +0.000 A 
ATOM     19  O   UNL     1       7.621   5.434  13.312  0.00  0.00    +0.000 OA
ENDBRANCH   8  15
BRANCH   1  20
ATOM     20  C   UNL     1       3.636   2.260  20.376  0.00  0.00    +0.000 C 
BRANCH  20  21
ATOM     21  C   UNL     1       2.148   2.373  20.060  0.00  0.00    +0.000 C 
BRANCH  21  22
ATOM     22  C   UNL     1       1.507   3.505  20.872  0.00  0.00    +0.000 C 
BRANCH  22  23
ATOM     23  N   UNL     1       1.361   4.692  20.028  0.00  0.00    +0.000 NA
ATOM     24  H   UNL     1       1.862   4.550  19.148  0.00  0.00    +0.000 HD
BRANCH  23  25
ATOM     25  C   UNL     1       1.924   5.888  20.671  0.00  0.00    +0.000 C 
BRANCH  25  29
ATOM     26  C   UNL     1       1.933  10.199  17.914  0.00  0.00    +0.000 C 
ATOM     27  C   UNL     1       2.067   8.863  18.522  0.00  0.00    +0.000 A 
ATOM     28  C   UNL     1       1.668   8.315  19.716  0.00  0.00    +0.000 A 
ATOM     29  C   UNL     1       2.096   6.969  19.649  0.00  0.00    +0.000 A 
ATOM     30  N   UNL     1       2.734   6.722  18.495  0.00  0.00    +0.000 NA
ATOM     31  O   UNL     1       2.711   7.916  17.790  0.00  0.00    +0.000 OA
ENDBRANCH  25  29
ENDBRANCH  23  25
ENDBRANCH  22  23
ENDBRANCH  21  22
ENDBRANCH  20  21
ENDBRANCH   1  20
TORSDOF 7
ENDMDL
MODEL 7
REMARK VINA RESULT:      -7.6      2.163      9.539
REMARK  Name = 
REMARK  8 active torsions:
REMARK  status: ('A' for Active; 'I' for Inactive)
REMARK    1  A    between atoms: C_1  and  C_2
REMARK    2  A    between atoms: C_4  and  C_5
REMARK    3  A    between atoms: C_5  and  N_6
REMARK    4  A    between atoms: N_6  and  C_7
REMARK    5  A    between atoms: C_7  and  C_8
REMARK    6  A    between atoms: C_8  and  C_9
REMARK    7  A    between atoms: C_9  and  N_10
REMARK    8  A    between atoms: C_17  and  C_18
REMARK                            x       y       z     vdW  Elec       q    Type
REMARK                         _______ _______ _______ _____ _____    ______ ____
ROOT
ATOM      1  N   UNL     1       2.635   6.306  20.452  0.00  0.00    +0.000 N 
ATOM      2  C   UNL     1       3.397   5.637  19.526  0.00  0.00    +0.000 A 
ATOM      3  N   UNL     1       3.544   4.280  19.721  0.00  0.00    +0.000 NA
ATOM      4  C   UNL     1       4.149   3.582  18.811  0.00  0.00    +0.000 A 
ATOM      5  N   UNL     1       4.363   2.233  18.930  0.00  0.00    +0.000 N 
ATOM      6  N   UNL     1       4.623   4.236  17.679  0.00  0.00    +0.000 N 
ATOM      7  N   UNL     1       5.183   3.658  16.601  0.00  0.00    +0.000 NA
ATOM      8  C   UNL     1       5.573   4.751  15.924  0.00  0.00    +0.000 A 
ATOM      9  N   UNL     1       5.235   5.954  16.515  0.00  0.00    +0.000 NA
ATOM     10  C   UNL     1       4.567   5.593  17.588  0.00  0.00    +0.000 A 
ATOM     11  N   UNL     1       3.894   6.303  18.513  0.00  0.00    +0.000 NA
ATOM     12  H   UNL     1       2.128   5.666  21.054  0.00  0.00    +0.000 HD
ATOM     13  H   UNL     1       3.853   1.735  19.648  0.00  0.00    +0.000 HD
ATOM     14  H   UNL     1       4.653   1.712  18.105  0.00  0.00    +0.000 HD
ENDROOT
BRANCH   8  15
ATOM     15  C   UNL     1       6.296   4.685  14.622  0.00  0.00    +0.000 A 
ATOM     16  C   UNL     1       5.995   3.834  13.574  0.00  0.00    +0.000 A 
ATOM     17  C   UNL     1       6.929   4.102  12.546  0.00  0.00    +0.000 A 
ATOM     18  C   UNL     1       7.768   5.074  13.038  0.00  0.00    +0.000 A 
ATOM     19  O   UNL     1       7.377   5.453  14.282  0.00  0.00    +0.000 OA
ENDBRANCH   8  15
BRANCH   1  20
ATOM     20  C   UNL     1       1.894   7.495  20.049  0.00  0.00    +0.000 C 
BRANCH  20  21
ATOM     21  C   UNL     1       1.346   8.242  21.261  0.00  0.00    +0.000 C 
BRANCH  21  22
ATOM     22  C   UNL     1       0.251   9.229  20.838  0.00  0.00    +0.000 C 
BRANCH  22  23
ATOM     23  N   UNL     1       0.842  10.308  20.045  0.00  0.00    +0.000 NA
ATOM     24  H   UNL     1       1.696  10.637  20.499  0.00  0.00    +0.000 HD
BRANCH  23  25
ATOM     25  C   UNL     1      -0.070  11.455  19.925  0.00  0.00    +0.000 C 
BRANCH  25  29
ATOM     26  C   UNL     1      -2.917   9.798  16.008  0.00  0.00    +0.000 C 
ATOM     27  C   UNL     1      -2.308  10.379  17.218  0.00  0.00    +0.000 A 
ATOM     28  C   UNL     1      -1.053  10.327  17.772  0.00  0.00    +0.000 A 
ATOM     29  C   UNL     1      -1.142  11.136  18.929  0.00  0.00    +0.000 A 
ATOM     30  N   UNL     1      -2.381  11.631  19.078  0.00  0.00    +0.000 NA
ATOM     31  O   UNL     1      -3.108  11.152  17.998  0.00  0.00    +0.000 OA
ENDBRANCH  25  29
ENDBRANCH  23  25
ENDBRANCH  22  23
ENDBRANCH  21  22
ENDBRANCH  20  21
ENDBRANCH   1  20
TORSDOF 7
ENDMDL
MODEL 8
REMARK VINA RESULT:      -7.6      6.666     10.708
REMARK  Name = 
REMARK  8 active torsions:
REMARK  status: ('A' for Active; 'I' for Inactive)
REMARK    1  A    between atoms: C_1  and  C_2
REMARK    2  A    between atoms: C_4  and  C_5
REMARK    3  A    between atoms: C_5  and  N_6
REMARK    4  A    between atoms: N_6  and  C_7
REMARK    5  A    between atoms: C_7  and  C_8
REMARK    6  A    between atoms: C_8  and  C_9
REMARK    7  A    between atoms: C_9  and  N_10
REMARK    8  A    between atoms: C_17  and  C_18
REMARK                            x       y       z     vdW  Elec       q    Type
REMARK                         _______ _______ _______ _____ _____    ______ ____
ROOT
ATOM      1  N   UNL     1       8.232   7.703  18.652  0.00  0.00    +0.000 N 
ATOM      2  C   UNL     1       7.702   6.663  17.929  0.00  0.00    +0.000 A 
ATOM      3  N   UNL     1       7.085   5.665  18.653  0.00  0.00    +0.000 NA
ATOM      4  C   UNL     1       6.462   4.726  18.013  0.00  0.00    +0.000 A 
ATOM      5  N   UNL     1       5.841   3.681  18.648  0.00  0.00    +0.000 N 
ATOM      6  N   UNL     1       6.445   4.767  16.623  0.00  0.00    +0.000 N 
ATOM      7  N   UNL     1       5.770   3.936  15.809  0.00  0.00    +0.000 NA
ATOM      8  C   UNL     1       6.239   4.342  14.617  0.00  0.00    +0.000 A 
ATOM      9  N   UNL     1       7.122   5.404  14.669  0.00  0.00    +0.000 NA
ATOM     10  C   UNL     1       7.173   5.700  15.949  0.00  0.00    +0.000 A 
ATOM     11  N   UNL     1       7.775   6.699  16.621  0.00  0.00    +0.000 NA
ATOM     12  H   UNL     1       7.928   7.681  19.620  0.00  0.00    +0.000 HD
ATOM     13  H   UNL     1       5.687   3.757  19.645  0.00  0.00    +0.000 HD
ATOM     14  H   UNL     1       5.202   3.097  18.113  0.00  0.00    +0.000 HD
ENDROOT
BRANCH   8  15
ATOM     15  C   UNL     1       5.826   3.717  13.328  0.00  0.00    +0.000 A 
ATOM     16  C   UNL     1       6.668   3.082  12.434  0.00  0.00    +0.000 A 
ATOM     17  C   UNL     1       5.866   2.646  11.352  0.00  0.00    +0.000 A 
ATOM     18  C   UNL     1       4.589   3.069  11.633  0.00  0.00    +0.000 A 
ATOM     19  O   UNL     1       4.548   3.693  12.838  0.00  0.00    +0.000 OA
ENDBRANCH   8  15
BRANCH   1  20
ATOM     20  C   UNL     1       8.303   9.031  18.057  0.00  0.00    +0.000 C 
BRANCH  20  21
ATOM     21  C   UNL     1       9.154   9.972  18.903  0.00  0.00    +0.000 C 
BRANCH  21  22
ATOM     22  C   UNL     1       9.402  11.291  18.161  0.00  0.00    +0.000 C 
BRANCH  22  23
ATOM     23  N   UNL     1      10.840  11.555  18.095  0.00  0.00    +0.000 NA
ATOM     24  H   UNL     1      11.244  11.484  19.031  0.00  0.00    +0.000 HD
BRANCH  23  25
ATOM     25  C   UNL     1      11.121  12.906  17.589  0.00  0.00    +0.000 C 
BRANCH  25  29
ATOM     26  C   UNL     1      10.544  15.669  21.858  0.00  0.00    +0.000 C 
ATOM     27  C   UNL     1      10.580  15.056  20.518  0.00  0.00    +0.000 A 
ATOM     28  C   UNL     1      11.171  13.929  20.002  0.00  0.00    +0.000 A 
ATOM     29  C   UNL     1      10.779  13.913  18.643  0.00  0.00    +0.000 A 
ATOM     30  N   UNL     1      10.015  14.976  18.349  0.00  0.00    +0.000 NA
ATOM     31  O   UNL     1       9.892  15.690  19.532  0.00  0.00    +0.000 OA
ENDBRANCH  25  29
ENDBRANCH  23  25
ENDBRANCH  22  23
ENDBRANCH  21  22
ENDBRANCH  20  21
ENDBRANCH   1  20
TORSDOF 7
ENDMDL
MODEL 9
REMARK VINA RESULT:      -7.5      1.650      2.081
REMARK  Name = 
REMARK  8 active torsions:
REMARK  status: ('A' for Active; 'I' for Inactive)
REMARK    1  A    between atoms: C_1  and  C_2
REMARK    2  A    between atoms: C_4  and  C_5
REMARK    3  A    between atoms: C_5  and  N_6
REMARK    4  A    between atoms: N_6  and  C_7
REMARK    5  A    between atoms: C_7  and  C_8
REMARK    6  A    between atoms: C_8  and  C_9
REMARK    7  A    between atoms: C_9  and  N_10
REMARK    8  A    between atoms: C_17  and  C_18
REMARK                            x       y       z     vdW  Elec       q    Type
REMARK                         _______ _______ _______ _____ _____    ______ ____
ROOT
ATOM      1  N   UNL     1       2.909   6.183  19.700  0.00  0.00    +0.000 N 
ATOM      2  C   UNL     1       2.236   7.375  19.800  0.00  0.00    +0.000 A 
ATOM      3  N   UNL     1       2.276   8.195  18.691  0.00  0.00    +0.000 NA
ATOM      4  C   UNL     1       1.557   9.274  18.689  0.00  0.00    +0.000 A 
ATOM      5  N   UNL     1       1.552  10.159  17.642  0.00  0.00    +0.000 N 
ATOM      6  N   UNL     1       0.777   9.555  19.805  0.00  0.00    +0.000 N 
ATOM      7  N   UNL     1      -0.097  10.570  19.932  0.00  0.00    +0.000 NA
ATOM      8  C   UNL     1      -0.424  10.438  21.228  0.00  0.00    +0.000 A 
ATOM      9  N   UNL     1       0.170   9.369  21.874  0.00  0.00    +0.000 NA
ATOM     10  C   UNL     1       0.866   8.784  20.924  0.00  0.00    +0.000 A 
ATOM     11  N   UNL     1       1.576   7.641  20.900  0.00  0.00    +0.000 NA
ATOM     12  H   UNL     1       3.190   5.989  18.745  0.00  0.00    +0.000 HD
ATOM     13  H   UNL     1       1.958   9.859  16.766  0.00  0.00    +0.000 HD
ATOM     14  H   UNL     1       0.822  10.868  17.609  0.00  0.00    +0.000 HD
ENDROOT
BRANCH   8  15
ATOM     15  C   UNL     1      -1.372  11.355  21.923  0.00  0.00    +0.000 A 
ATOM     16  C   UNL     1      -1.940  12.492  21.379  0.00  0.00    +0.000 A 
ATOM     17  C   UNL     1      -2.766  13.058  22.379  0.00  0.00    +0.000 A 
ATOM     18  C   UNL     1      -2.628  12.254  23.486  0.00  0.00    +0.000 A 
ATOM     19  O   UNL     1      -1.809  11.206  23.212  0.00  0.00    +0.000 OA
ENDBRANCH   8  15
BRANCH   1  20
ATOM     20  C   UNL     1       2.439   5.027  20.453  0.00  0.00    +0.000 C 
BRANCH  20  21
ATOM     21  C   UNL     1       2.690   3.730  19.690  0.00  0.00    +0.000 C 
BRANCH  21  22
ATOM     22  C   UNL     1       4.195   3.471  19.544  0.00  0.00    +0.000 C 
BRANCH  22  23
ATOM     23  N   UNL     1       4.481   2.991  18.191  0.00  0.00    +0.000 NA
ATOM     24  H   UNL     1       5.443   2.647  18.147  0.00  0.00    +0.000 HD
BRANCH  23  25
ATOM     25  C   UNL     1       4.346   4.063  17.195  0.00  0.00    +0.000 C 
BRANCH  25  29
ATOM     26  C   UNL     1       7.719   7.896  17.538  0.00  0.00    +0.000 C 
ATOM     27  C   UNL     1       6.949   6.645  17.415  0.00  0.00    +0.000 A 
ATOM     28  C   UNL     1       5.611   6.340  17.482  0.00  0.00    +0.000 A 
ATOM     29  C   UNL     1       5.553   4.947  17.247  0.00  0.00    +0.000 A 
ATOM     30  N   UNL     1       6.782   4.436  17.071  0.00  0.00    +0.000 NA
ATOM     31  O   UNL     1       7.654   5.509  17.175  0.00  0.00    +0.000 OA
ENDBRANCH  25  29
ENDBRANCH  23  25
ENDBRANCH  22  23
ENDBRANCH  21  22
ENDBRANCH  20  21
ENDBRANCH   1  20
TORSDOF 7
ENDMDL
