MODEL 1
REMARK VINA RESULT:      -7.3      0.000      0.000
REMARK  Name = 
REMARK  12 active torsions:
REMARK  status: ('A' for Active; 'I' for Inactive)
REMARK    1  A    between atoms: C_1  and  C_2
REMARK    2  A    between atoms: C_2  and  C_3
REMARK    3  A    between atoms: C_2  and  N_19
REMARK    4  A    between atoms: C_3  and  N_4
REMARK    5  A    between atoms: N_4  and  C_5
REMARK    6  A    between atoms: C_8  and  C_9
REMARK    7  A    between atoms: C_11  and  C_12
REMARK    8  A    between atoms: C_12  and  O_14
REMARK    9  A    between atoms: N_19  and  C_20
REMARK   10  A    between atoms: C_20  and  C_21
REMARK   11  A    between atoms: C_21  and  O_22
REMARK   12  A    between atoms: C_21  and  C_23
REMARK                            x       y       z     vdW  Elec       q    Type
REMARK                         _______ _______ _______ _____ _____    ______ ____
ROOT
ATOM      1  N   UNK     1       2.788   5.784  20.155  0.00  0.00    +0.000 N 
ATOM      2  H   UNK     1       3.708   5.830  20.583  0.00  0.00    +0.000 HD
ENDROOT
BRANCH   1   3
ATOM      3  C   UNK     1       2.273   7.069  19.961  0.00  0.00    +0.000 A 
ATOM      4  C   UNK     1       2.394   7.653  18.693  0.00  0.00    +0.000 A 
ATOM      5  C   UNK     1       1.851   8.914  18.415  0.00  0.00    +0.000 A 
ATOM      6  C   UNK     1       1.139   9.614  19.394  0.00  0.00    +0.000 A 
ATOM      7  C   UNK     1       0.977   9.014  20.649  0.00  0.00    +0.000 A 
ATOM      8  C   UNK     1       1.523   7.752  20.921  0.00  0.00    +0.000 A 
BRANCH   6   9
ATOM      9  C   UNK     1       0.570  10.924  19.091  0.00  0.00    +0.000 A 
ATOM     10  N   UNK     1       1.024  12.132  19.391  0.00  0.00    +0.000 NA
ATOM     11  C   UNK     1       0.071  12.983  18.844  0.00  0.00    +0.000 A 
ATOM     12  C   UNK     1      -0.916  12.246  18.239  0.00  0.00    +0.000 A 
ATOM     13  O   UNK     1      -0.611  10.929  18.390  0.00  0.00    +0.000 OA
BRANCH  11  14
ATOM     14  C   UNK     1       0.166  14.426  18.927  0.00  0.00    +0.000 C 
ATOM     15  O   UNK     1       1.218  15.051  18.914  0.00  0.00    +0.000 OA
BRANCH  14  16
ATOM     16  O   UNK     1      -1.049  15.015  19.031  0.00  0.00    +0.000 OA
ATOM     17  H   UNK     1      -0.971  15.939  18.707  0.00  0.00    +0.000 HD
ENDBRANCH  14  16
ENDBRANCH  11  14
ENDBRANCH   6   9
ENDBRANCH   1   3
BRANCH   1  18
ATOM     18  C   UNK     1       1.941   4.767  20.787  0.00  0.00    +0.000 C 
BRANCH  18  20
ATOM     19  C   UNK     1       1.427   3.965  18.432  0.00  0.00    +0.000 C 
ATOM     20  C   UNK     1       1.766   3.529  19.861  0.00  0.00    +0.000 C 
BRANCH  20  21
ATOM     21  N   UNK     1       2.937   2.631  19.799  0.00  0.00    +0.000 NA
ATOM     22  H   UNK     1       2.695   1.714  20.168  0.00  0.00    +0.000 HD
BRANCH  21  23
ATOM     23  C   UNK     1       3.532   2.512  18.463  0.00  0.00    +0.000 C 
BRANCH  23  24
ATOM     24  C   UNK     1       4.955   3.118  18.306  0.00  0.00    +0.000 C 
BRANCH  24  25
ATOM     25  C   UNK     1       5.130   4.083  17.148  0.00  0.00    +0.000 A 
ATOM     26  C   UNK     1       4.800   5.438  17.322  0.00  0.00    +0.000 A 
ATOM     27  C   UNK     1       4.991   6.364  16.292  0.00  0.00    +0.000 A 
ATOM     28  C   UNK     1       5.501   5.946  15.065  0.00  0.00    +0.000 A 
ATOM     29  C   UNK     1       5.805   4.602  14.870  0.00  0.00    +0.000 A 
ATOM     30 CL   UNK     1       6.426   4.077  13.353  0.00  0.00    +0.000 Cl
ATOM     31  C   UNK     1       5.617   3.674  15.896  0.00  0.00    +0.000 A 
ENDBRANCH  24  25
BRANCH  24  32
ATOM     32  O   UNK     1       5.325   3.774  19.521  0.00  0.00    +0.000 OA
ATOM     33  H   UNK     1       5.147   3.155  20.249  0.00  0.00    +0.000 HD
ENDBRANCH  24  32
ENDBRANCH  23  24
ENDBRANCH  21  23
ENDBRANCH  20  21
ENDBRANCH  18  20
ENDBRANCH   1  18
TORSDOF 11
ENDMDL
MODEL 2
REMARK VINA RESULT:      -7.3      1.600      2.157
REMARK  Name = 
REMARK  12 active torsions:
REMARK  status: ('A' for Active; 'I' for Inactive)
REMARK    1  A    between atoms: C_1  and  C_2
REMARK    2  A    between atoms: C_2  and  C_3
REMARK    3  A    between atoms: C_2  and  N_19
REMARK    4  A    between atoms: C_3  and  N_4
REMARK    5  A    between atoms: N_4  and  C_5
REMARK    6  A    between atoms: C_8  and  C_9
REMARK    7  A    between atoms: C_11  and  C_12
REMARK    8  A    between atoms: C_12  and  O_14
REMARK    9  A    between atoms: N_19  and  C_20
REMARK   10  A    between atoms: C_20  and  C_21
REMARK   11  A    between atoms: C_21  and  O_22
REMARK   12  A    between atoms: C_21  and  C_23
REMARK                            x       y       z     vdW  Elec       q    Type
REMARK                         _______ _______ _______ _____ _____    ______ ____
ROOT
ATOM      1  N   UNK     1       2.809   6.083  19.852  0.00  0.00    +0.000 N 
ATOM      2  H   UNK     1       3.708   6.198  20.310  0.00  0.00    +0.000 HD
ENDROOT
BRANCH   1   3
ATOM      3  C   UNK     1       2.251   7.330  19.550  0.00  0.00    +0.000 A 
ATOM      4  C   UNK     1       1.591   8.030  20.569  0.00  0.00    +0.000 A 
ATOM      5  C   UNK     1       1.059   9.307  20.350  0.00  0.00    +0.000 A 
ATOM      6  C   UNK     1       1.203   9.936  19.110  0.00  0.00    +0.000 A 
ATOM      7  C   UNK     1       1.903   9.258  18.104  0.00  0.00    +0.000 A 
ATOM      8  C   UNK     1       2.433   7.981  18.329  0.00  0.00    +0.000 A 
BRANCH   6   9
ATOM      9  C   UNK     1       0.651  11.271  18.895  0.00  0.00    +0.000 A 
ATOM     10  N   UNK     1       1.220  12.455  19.055  0.00  0.00    +0.000 NA
ATOM     11  C   UNK     1       0.219  13.349  18.697  0.00  0.00    +0.000 A 
ATOM     12  C   UNK     1      -0.912  12.659  18.338  0.00  0.00    +0.000 A 
ATOM     13  O   UNK     1      -0.650  11.330  18.460  0.00  0.00    +0.000 OA
BRANCH  11  14
ATOM     14  C   UNK     1       0.404  14.786  18.714  0.00  0.00    +0.000 C 
ATOM     15  O   UNK     1      -0.492  15.600  18.541  0.00  0.00    +0.000 OA
BRANCH  14  16
ATOM     16  O   UNK     1       1.694  15.134  18.937  0.00  0.00    +0.000 OA
ATOM     17  H   UNK     1       2.157  14.362  19.332  0.00  0.00    +0.000 HD
ENDBRANCH  14  16
ENDBRANCH  11  14
ENDBRANCH   6   9
ENDBRANCH   1   3
BRANCH   1  18
ATOM     18  C   UNK     1       1.978   5.077  20.520  0.00  0.00    +0.000 C 
BRANCH  18  20
ATOM     19  C   UNK     1       2.309   2.790  21.574  0.00  0.00    +0.000 C 
ATOM     20  C   UNK     1       2.568   3.649  20.333  0.00  0.00    +0.000 C 
BRANCH  20  21
ATOM     21  N   UNK     1       2.060   2.918  19.155  0.00  0.00    +0.000 NA
ATOM     22  H   UNK     1       1.059   2.760  19.247  0.00  0.00    +0.000 HD
BRANCH  21  23
ATOM     23  C   UNK     1       2.369   3.559  17.872  0.00  0.00    +0.000 C 
BRANCH  23  24
ATOM     24  C   UNK     1       3.793   3.286  17.311  0.00  0.00    +0.000 C 
BRANCH  24  25
ATOM     25  C   UNK     1       4.759   4.453  17.384  0.00  0.00    +0.000 A 
ATOM     26  C   UNK     1       4.617   5.524  16.484  0.00  0.00    +0.000 A 
ATOM     27  C   UNK     1       5.459   6.638  16.552  0.00  0.00    +0.000 A 
ATOM     28  C   UNK     1       6.468   6.691  17.511  0.00  0.00    +0.000 A 
ATOM     29  C   UNK     1       6.637   5.626  18.390  0.00  0.00    +0.000 A 
ATOM     30 CL   UNK     1       7.888   5.681  19.571  0.00  0.00    +0.000 Cl
ATOM     31  C   UNK     1       5.798   4.512  18.327  0.00  0.00    +0.000 A 
ENDBRANCH  24  25
BRANCH  24  32
ATOM     32  O   UNK     1       4.360   2.165  17.993  0.00  0.00    +0.000 OA
ATOM     33  H   UNK     1       3.953   2.126  18.874  0.00  0.00    +0.000 HD
ENDBRANCH  24  32
ENDBRANCH  23  24
ENDBRANCH  21  23
ENDBRANCH  20  21
ENDBRANCH  18  20
ENDBRANCH   1  18
TORSDOF 11
ENDMDL
MODEL 3
REMARK VINA RESULT:      -7.1      5.191     10.679
REMARK  Name = 
REMARK  12 active torsions:
REMARK  status: ('A' for Active; 'I' for Inactive)
REMARK    1  A    between atoms: C_1  and  C_2
REMARK    2  A    between atoms: C_2  and  C_3
REMARK    3  A    between atoms: C_2  and  N_19
REMARK    4  A    between atoms: C_3  and  N_4
REMARK    5  A    between atoms: N_4  and  C_5
REMARK    6  A    between atoms: C_8  and  C_9
REMARK    7  A    between atoms: C_11  and  C_12
REMARK    8  A    between atoms: C_12  and  O_14
REMARK    9  A    between atoms: N_19  and  C_20
REMARK   10  A    between atoms: C_20  and  C_21
REMARK   11  A    between atoms: C_21  and  O_22
REMARK   12  A    between atoms: C_21  and  C_23
REMARK                            x       y       z     vdW  Elec       q    Type
REMARK                         _______ _______ _______ _____ _____    ______ ____
ROOT
ATOM      1  N   UNK     1      -0.255  11.319  19.017  0.00  0.00    +0.000 N 
ATOM      2  H   UNK     1      -0.010  11.906  18.225  0.00  0.00    +0.000 HD
ENDROOT
BRANCH   1   3
ATOM      3  C   UNK     1       0.505  10.145  19.008  0.00  0.00    +0.000 A 
ATOM      4  C   UNK     1       1.155   9.780  17.822  0.00  0.00    +0.000 A 
ATOM      5  C   UNK     1       1.978   8.647  17.760  0.00  0.00    +0.000 A 
ATOM      6  C   UNK     1       2.201   7.865  18.897  0.00  0.00    +0.000 A 
ATOM      7  C   UNK     1       1.589   8.255  20.096  0.00  0.00    +0.000 A 
ATOM      8  C   UNK     1       0.768   9.388  20.152  0.00  0.00    +0.000 A 
BRANCH   6   9
ATOM      9  C   UNK     1       3.066   6.692  18.823  0.00  0.00    +0.000 A 
ATOM     10  N   UNK     1       3.904   6.319  17.868  0.00  0.00    +0.000 NA
ATOM     11  C   UNK     1       4.446   5.136  18.353  0.00  0.00    +0.000 A 
ATOM     12  C   UNK     1       3.906   4.847  19.582  0.00  0.00    +0.000 A 
ATOM     13  O   UNK     1       3.022   5.833  19.894  0.00  0.00    +0.000 OA
BRANCH  11  14
ATOM     14  C   UNK     1       5.435   4.367  17.625  0.00  0.00    +0.000 C 
ATOM     15  O   UNK     1       5.409   4.176  16.417  0.00  0.00    +0.000 OA
BRANCH  14  16
ATOM     16  O   UNK     1       6.399   3.872  18.437  0.00  0.00    +0.000 OA
ATOM     17  H   UNK     1       7.129   4.529  18.484  0.00  0.00    +0.000 HD
ENDBRANCH  14  16
ENDBRANCH  11  14
ENDBRANCH   6   9
ENDBRANCH   1   3
BRANCH   1  18
ATOM     18  C   UNK     1      -1.707  11.223  19.200  0.00  0.00    +0.000 C 
BRANCH  18  20
ATOM     19  C   UNK     1      -3.056   9.734  17.646  0.00  0.00    +0.000 C 
ATOM     20  C   UNK     1      -2.439  11.123  17.830  0.00  0.00    +0.000 C 
BRANCH  20  21
ATOM     21  N   UNK     1      -3.501  12.128  17.621  0.00  0.00    +0.000 NA
ATOM     22  H   UNK     1      -3.131  12.928  17.113  0.00  0.00    +0.000 HD
BRANCH  21  23
ATOM     23  C   UNK     1      -4.700  11.602  16.958  0.00  0.00    +0.000 C 
BRANCH  23  24
ATOM     24  C   UNK     1      -6.055  12.148  17.490  0.00  0.00    +0.000 C 
BRANCH  24  25
ATOM     25  C   UNK     1      -6.621  11.426  18.698  0.00  0.00    +0.000 A 
ATOM     26  C   UNK     1      -6.772  10.029  18.659  0.00  0.00    +0.000 A 
ATOM     27  C   UNK     1      -7.246   9.324  19.770  0.00  0.00    +0.000 A 
ATOM     28  C   UNK     1      -7.593  10.009  20.933  0.00  0.00    +0.000 A 
ATOM     29  C   UNK     1      -7.475  11.395  20.975  0.00  0.00    +0.000 A 
ATOM     30 CL   UNK     1      -7.912  12.247  22.405  0.00  0.00    +0.000 Cl
ATOM     31  C   UNK     1      -7.001  12.102  19.869  0.00  0.00    +0.000 A 
ENDBRANCH  24  25
BRANCH  24  32
ATOM     32  O   UNK     1      -5.915  13.537  17.798  0.00  0.00    +0.000 OA
ATOM     33  H   UNK     1      -6.794  13.870  18.042  0.00  0.00    +0.000 HD
ENDBRANCH  24  32
ENDBRANCH  23  24
ENDBRANCH  21  23
ENDBRANCH  20  21
ENDBRANCH  18  20
ENDBRANCH   1  18
TORSDOF 11
ENDMDL
MODEL 4
REMARK VINA RESULT:      -7.1      3.753      8.922
REMARK  Name = 
REMARK  12 active torsions:
REMARK  status: ('A' for Active; 'I' for Inactive)
REMARK    1  A    between atoms: C_1  and  C_2
REMARK    2  A    between atoms: C_2  and  C_3
REMARK    3  A    between atoms: C_2  and  N_19
REMARK    4  A    between atoms: C_3  and  N_4
REMARK    5  A    between atoms: N_4  and  C_5
REMARK    6  A    between atoms: C_8  and  C_9
REMARK    7  A    between atoms: C_11  and  C_12
REMARK    8  A    between atoms: C_12  and  O_14
REMARK    9  A    between atoms: N_19  and  C_20
REMARK   10  A    between atoms: C_20  and  C_21
REMARK   11  A    between atoms: C_21  and  O_22
REMARK   12  A    between atoms: C_21  and  C_23
REMARK                            x       y       z     vdW  Elec       q    Type
REMARK                         _______ _______ _______ _____ _____    ______ ____
ROOT
ATOM      1  N   UNK     1       0.523   8.007  21.400  0.00  0.00    +0.000 N 
ATOM      2  H   UNK     1       0.141   7.282  22.001  0.00  0.00    +0.000 HD
ENDROOT
BRANCH   1   3
ATOM      3  C   UNK     1       1.448   7.462  20.504  0.00  0.00    +0.000 A 
ATOM      4  C   UNK     1       1.791   6.110  20.639  0.00  0.00    +0.000 A 
ATOM      5  C   UNK     1       2.668   5.487  19.741  0.00  0.00    +0.000 A 
ATOM      6  C   UNK     1       3.201   6.194  18.659  0.00  0.00    +0.000 A 
ATOM      7  C   UNK     1       2.823   7.532  18.495  0.00  0.00    +0.000 A 
ATOM      8  C   UNK     1       1.946   8.150  19.396  0.00  0.00    +0.000 A 
BRANCH   6   9
ATOM      9  C   UNK     1       4.107   5.532  17.725  0.00  0.00    +0.000 A 
ATOM     10  N   UNK     1       5.257   5.953  17.223  0.00  0.00    +0.000 NA
ATOM     11  C   UNK     1       5.659   4.905  16.405  0.00  0.00    +0.000 A 
ATOM     12  C   UNK     1       4.729   3.897  16.451  0.00  0.00    +0.000 A 
ATOM     13  O   UNK     1       3.731   4.285  17.290  0.00  0.00    +0.000 OA
BRANCH  11  14
ATOM     14  C   UNK     1       6.893   4.929  15.646  0.00  0.00    +0.000 C 
ATOM     15  O   UNK     1       7.946   4.433  16.023  0.00  0.00    +0.000 OA
BRANCH  14  16
ATOM     16  O   UNK     1       6.755   5.573  14.462  0.00  0.00    +0.000 OA
ATOM     17  H   UNK     1       7.650   5.706  14.079  0.00  0.00    +0.000 HD
ENDBRANCH  14  16
ENDBRANCH  11  14
ENDBRANCH   6   9
ENDBRANCH   1   3
BRANCH   1  18
ATOM     18  C   UNK     1       0.891   9.208  22.157  0.00  0.00    +0.000 C 
BRANCH  18  20
ATOM     19  C   UNK     1      -0.939  10.719  23.063  0.00  0.00    +0.000 C 
ATOM     20  C   UNK     1      -0.076  10.386  21.842  0.00  0.00    +0.000 C 
BRANCH  20  21
ATOM     21  N   UNK     1       0.586  11.629  21.397  0.00  0.00    +0.000 NA
ATOM     22  H   UNK     1       1.597  11.530  21.462  0.00  0.00    +0.000 HD
BRANCH  21  23
ATOM     23  C   UNK     1       0.194  12.068  20.053  0.00  0.00    +0.000 C 
BRANCH  23  24
ATOM     24  C   UNK     1      -0.066  10.931  19.024  0.00  0.00    +0.000 C 
BRANCH  24  25
ATOM     25  C   UNK     1      -1.472  10.874  18.456  0.00  0.00    +0.000 A 
ATOM     26  C   UNK     1      -1.748  10.012  17.380  0.00  0.00    +0.000 A 
ATOM     27  C   UNK     1      -3.040   9.898  16.861  0.00  0.00    +0.000 A 
ATOM     28  C   UNK     1      -4.077  10.659  17.400  0.00  0.00    +0.000 A 
ATOM     29  C   UNK     1      -3.812  11.537  18.446  0.00  0.00    +0.000 A 
ATOM     30 CL   UNK     1      -5.085  12.486  19.109  0.00  0.00    +0.000 Cl
ATOM     31  C   UNK     1      -2.522  11.652  18.968  0.00  0.00    +0.000 A 
ENDBRANCH  24  25
BRANCH  24  32
ATOM     32  O   UNK     1       0.869  11.045  17.950  0.00  0.00    +0.000 OA
ATOM     33  H   UNK     1       1.239  11.943  17.982  0.00  0.00    +0.000 HD
ENDBRANCH  24  32
ENDBRANCH  23  24
ENDBRANCH  21  23
ENDBRANCH  20  21
ENDBRANCH  18  20
ENDBRANCH   1  18
TORSDOF 11
ENDMDL
MODEL 5
REMARK VINA RESULT:      -7.0      4.752      7.133
REMARK  Name = 
REMARK  12 active torsions:
REMARK  status: ('A' for Active; 'I' for Inactive)
REMARK    1  A    between atoms: C_1  and  C_2
REMARK    2  A    between atoms: C_2  and  C_3
REMARK    3  A    between atoms: C_2  and  N_19
REMARK    4  A    between atoms: C_3  and  N_4
REMARK    5  A    between atoms: N_4  and  C_5
REMARK    6  A    between atoms: C_8  and  C_9
REMARK    7  A    between atoms: C_11  and  C_12
REMARK    8  A    between atoms: C_12  and  O_14
REMARK    9  A    between atoms: N_19  and  C_20
REMARK   10  A    between atoms: C_20  and  C_21
REMARK   11  A    between atoms: C_21  and  O_22
REMARK   12  A    between atoms: C_21  and  C_23
REMARK                            x       y       z     vdW  Elec       q    Type
REMARK                         _______ _______ _______ _____ _____    ______ ____
ROOT
ATOM      1  N   UNK     1       6.290   4.050  17.399  0.00  0.00    +0.000 N 
ATOM      2  H   UNK     1       6.427   3.439  18.198  0.00  0.00    +0.000 HD
ENDROOT
BRANCH   1   3
ATOM      3  C   UNK     1       6.891   5.292  17.625  0.00  0.00    +0.000 A 
ATOM      4  C   UNK     1       6.592   6.347  16.753  0.00  0.00    +0.000 A 
ATOM      5  C   UNK     1       7.115   7.632  16.954  0.00  0.00    +0.000 A 
ATOM      6  C   UNK     1       7.927   7.905  18.058  0.00  0.00    +0.000 A 
ATOM      7  C   UNK     1       8.190   6.863  18.958  0.00  0.00    +0.000 A 
ATOM      8  C   UNK     1       7.665   5.582  18.751  0.00  0.00    +0.000 A 
BRANCH   6   9
ATOM      9  C   UNK     1       8.460   9.248  18.263  0.00  0.00    +0.000 A 
ATOM     10  N   UNK     1       8.275  10.348  17.550  0.00  0.00    +0.000 NA
ATOM     11  C   UNK     1       9.022  11.305  18.225  0.00  0.00    +0.000 A 
ATOM     12  C   UNK     1       9.627  10.735  19.318  0.00  0.00    +0.000 A 
ATOM     13  O   UNK     1       9.277   9.421  19.353  0.00  0.00    +0.000 OA
BRANCH  11  14
ATOM     14  C   UNK     1       9.106  12.686  17.794  0.00  0.00    +0.000 C 
ATOM     15  O   UNK     1      10.002  13.456  18.113  0.00  0.00    +0.000 OA
BRANCH  14  16
ATOM     16  O   UNK     1       8.070  13.038  16.997  0.00  0.00    +0.000 OA
ATOM     17  H   UNK     1       7.910  14.001  17.108  0.00  0.00    +0.000 HD
ENDBRANCH  14  16
ENDBRANCH  11  14
ENDBRANCH   6   9
ENDBRANCH   1   3
BRANCH   1  18
ATOM     18  C   UNK     1       4.908   4.009  16.908  0.00  0.00    +0.000 C 
BRANCH  18  20
ATOM     19  C   UNK     1       4.683   3.300  19.337  0.00  0.00    +0.000 C 
ATOM     20  C   UNK     1       3.932   3.536  18.023  0.00  0.00    +0.000 C 
BRANCH  20  21
ATOM     21  N   UNK     1       2.810   4.456  18.297  0.00  0.00    +0.000 NA
ATOM     22  H   UNK     1       2.122   4.002  18.893  0.00  0.00    +0.000 HD
BRANCH  21  23
ATOM     23  C   UNK     1       3.217   5.746  18.865  0.00  0.00    +0.000 C 
BRANCH  23  24
ATOM     24  C   UNK     1       2.629   7.004  18.165  0.00  0.00    +0.000 C 
BRANCH  24  25
ATOM     25  C   UNK     1       1.927   7.991  19.079  0.00  0.00    +0.000 A 
ATOM     26  C   UNK     1       1.755   7.673  20.438  0.00  0.00    +0.000 A 
ATOM     27  C   UNK     1       1.156   8.577  21.319  0.00  0.00    +0.000 A 
ATOM     28  C   UNK     1       0.702   9.809  20.851  0.00  0.00    +0.000 A 
ATOM     29  C   UNK     1       0.841  10.124  19.503  0.00  0.00    +0.000 A 
ATOM     30 CL   UNK     1       0.273  11.641  18.918  0.00  0.00    +0.000 Cl
ATOM     31  C   UNK     1       1.440   9.225  18.620  0.00  0.00    +0.000 A 
ENDBRANCH  24  25
BRANCH  24  32
ATOM     32  O   UNK     1       3.671   7.679  17.457  0.00  0.00    +0.000 OA
ATOM     33  H   UNK     1       4.474   7.140  17.541  0.00  0.00    +0.000 HD
ENDBRANCH  24  32
ENDBRANCH  23  24
ENDBRANCH  21  23
ENDBRANCH  20  21
ENDBRANCH  18  20
ENDBRANCH   1  18
TORSDOF 11
ENDMDL
MODEL 6
REMARK VINA RESULT:      -7.0      4.531      6.722
REMARK  Name = 
REMARK  12 active torsions:
REMARK  status: ('A' for Active; 'I' for Inactive)
REMARK    1  A    between atoms: C_1  and  C_2
REMARK    2  A    between atoms: C_2  and  C_3
REMARK    3  A    between atoms: C_2  and  N_19
REMARK    4  A    between atoms: C_3  and  N_4
REMARK    5  A    between atoms: N_4  and  C_5
REMARK    6  A    between atoms: C_8  and  C_9
REMARK    7  A    between atoms: C_11  and  C_12
REMARK    8  A    between atoms: C_12  and  O_14
REMARK    9  A    between atoms: N_19  and  C_20
REMARK   10  A    between atoms: C_20  and  C_21
REMARK   11  A    between atoms: C_21  and  O_22
REMARK   12  A    between atoms: C_21  and  C_23
REMARK                            x       y       z     vdW  Elec       q    Type
REMARK                         _______ _______ _______ _____ _____    ______ ____
ROOT
ATOM      1  N   UNK     1       5.759   3.734  16.918  0.00  0.00    +0.000 N 
ATOM      2  H   UNK     1       6.278   2.939  17.278  0.00  0.00    +0.000 HD
ENDROOT
BRANCH   1   3
ATOM      3  C   UNK     1       6.425   4.928  17.212  0.00  0.00    +0.000 A 
ATOM      4  C   UNK     1       6.048   6.090  16.527  0.00  0.00    +0.000 A 
ATOM      5  C   UNK     1       6.636   7.329  16.813  0.00  0.00    +0.000 A 
ATOM      6  C   UNK     1       7.597   7.446  17.821  0.00  0.00    +0.000 A 
ATOM      7  C   UNK     1       7.943   6.295  18.540  0.00  0.00    +0.000 A 
ATOM      8  C   UNK     1       7.352   5.058  18.249  0.00  0.00    +0.000 A 
BRANCH   6   9
ATOM      9  C   UNK     1       8.197   8.744  18.117  0.00  0.00    +0.000 A 
ATOM     10  N   UNK     1       8.149   9.873  17.427  0.00  0.00    +0.000 NA
ATOM     11  C   UNK     1       8.894  10.757  18.197  0.00  0.00    +0.000 A 
ATOM     12  C   UNK     1       9.360  10.117  19.318  0.00  0.00    +0.000 A 
ATOM     13  O   UNK     1       8.922   8.830  19.279  0.00  0.00    +0.000 OA
BRANCH  11  14
ATOM     14  C   UNK     1       9.107  12.140  17.821  0.00  0.00    +0.000 C 
ATOM     15  O   UNK     1      10.162  12.584  17.387  0.00  0.00    +0.000 OA
BRANCH  14  16
ATOM     16  O   UNK     1       8.002  12.899  18.012  0.00  0.00    +0.000 OA
ATOM     17  H   UNK     1       7.802  13.367  17.171  0.00  0.00    +0.000 HD
ENDBRANCH  14  16
ENDBRANCH  11  14
ENDBRANCH   6   9
ENDBRANCH   1   3
BRANCH   1  18
ATOM     18  C   UNK     1       4.325   3.631  17.211  0.00  0.00    +0.000 C 
BRANCH  18  20
ATOM     19  C   UNK     1       4.520   2.622  19.534  0.00  0.00    +0.000 C 
ATOM     20  C   UNK     1       4.024   2.393  18.103  0.00  0.00    +0.000 C 
BRANCH  20  21
ATOM     21  N   UNK     1       2.599   2.008  18.168  0.00  0.00    +0.000 NA
ATOM     22  H   UNK     1       2.443   1.377  18.951  0.00  0.00    +0.000 HD
BRANCH  21  23
ATOM     23  C   UNK     1       1.674   3.145  18.226  0.00  0.00    +0.000 C 
BRANCH  23  24
ATOM     24  C   UNK     1       1.639   3.915  19.577  0.00  0.00    +0.000 C 
BRANCH  24  25
ATOM     25  C   UNK     1       1.839   5.415  19.479  0.00  0.00    +0.000 A 
ATOM     26  C   UNK     1       2.300   5.974  18.274  0.00  0.00    +0.000 A 
ATOM     27  C   UNK     1       2.452   7.355  18.132  0.00  0.00    +0.000 A 
ATOM     28  C   UNK     1       2.160   8.202  19.200  0.00  0.00    +0.000 A 
ATOM     29  C   UNK     1       1.730   7.660  20.408  0.00  0.00    +0.000 A 
ATOM     30 CL   UNK     1       1.378   8.699  21.734  0.00  0.00    +0.000 Cl
ATOM     31  C   UNK     1       1.576   6.280  20.553  0.00  0.00    +0.000 A 
ENDBRANCH  24  25
BRANCH  24  32
ATOM     32  O   UNK     1       0.399   3.649  20.238  0.00  0.00    +0.000 OA
ATOM     33  H   UNK     1      -0.284   4.179  19.795  0.00  0.00    +0.000 HD
ENDBRANCH  24  32
ENDBRANCH  23  24
ENDBRANCH  21  23
ENDBRANCH  20  21
ENDBRANCH  18  20
ENDBRANCH   1  18
TORSDOF 11
ENDMDL
MODEL 7
REMARK VINA RESULT:      -6.9      4.072      9.453
REMARK  Name = 
REMARK  12 active torsions:
REMARK  status: ('A' for Active; 'I' for Inactive)
REMARK    1  A    between atoms: C_1  and  C_2
REMARK    2  A    between atoms: C_2  and  C_3
REMARK    3  A    between atoms: C_2  and  N_19
REMARK    4  A    between atoms: C_3  and  N_4
REMARK    5  A    between atoms: N_4  and  C_5
REMARK    6  A    between atoms: C_8  and  C_9
REMARK    7  A    between atoms: C_11  and  C_12
REMARK    8  A    between atoms: C_12  and  O_14
REMARK    9  A    between atoms: N_19  and  C_20
REMARK   10  A    between atoms: C_20  and  C_21
REMARK   11  A    between atoms: C_21  and  O_22
REMARK   12  A    between atoms: C_21  and  C_23
REMARK                            x       y       z     vdW  Elec       q    Type
REMARK                         _______ _______ _______ _____ _____    ______ ____
ROOT
ATOM      1  N   UNK     1       1.356   7.117  20.811  0.00  0.00    +0.000 N 
ATOM      2  H   UNK     1       1.182   6.345  21.447  0.00  0.00    +0.000 HD
ENDROOT
BRANCH   1   3
ATOM      3  C   UNK     1       2.352   6.778  19.891  0.00  0.00    +0.000 A 
ATOM      4  C   UNK     1       3.059   5.584  20.082  0.00  0.00    +0.000 A 
ATOM      5  C   UNK     1       4.031   5.156  19.168  0.00  0.00    +0.000 A 
ATOM      6  C   UNK     1       4.299   5.899  18.014  0.00  0.00    +0.000 A 
ATOM      7  C   UNK     1       3.561   7.070  17.796  0.00  0.00    +0.000 A 
ATOM      8  C   UNK     1       2.591   7.492  18.714  0.00  0.00    +0.000 A 
BRANCH   6   9
ATOM      9  C   UNK     1       5.308   5.440  17.064  0.00  0.00    +0.000 A 
ATOM     10  N   UNK     1       5.299   5.474  15.740  0.00  0.00    +0.000 NA
ATOM     11  C   UNK     1       6.518   4.907  15.391  0.00  0.00    +0.000 A 
ATOM     12  C   UNK     1       7.208   4.555  16.525  0.00  0.00    +0.000 A 
ATOM     13  O   UNK     1       6.445   4.889  17.601  0.00  0.00    +0.000 OA
BRANCH  11  14
ATOM     14  C   UNK     1       6.945   4.744  14.016  0.00  0.00    +0.000 C 
ATOM     15  O   UNK     1       6.453   3.947  13.230  0.00  0.00    +0.000 OA
BRANCH  14  16
ATOM     16  O   UNK     1       7.964   5.576  13.694  0.00  0.00    +0.000 OA
ATOM     17  H   UNK     1       7.595   6.475  13.553  0.00  0.00    +0.000 HD
ENDBRANCH  14  16
ENDBRANCH  11  14
ENDBRANCH   6   9
ENDBRANCH   1   3
BRANCH   1  18
ATOM     18  C   UNK     1       1.449   8.399  21.518  0.00  0.00    +0.000 C 
BRANCH  18  20
ATOM     19  C   UNK     1      -0.354   9.560  22.879  0.00  0.00    +0.000 C 
ATOM     20  C   UNK     1       0.096   9.165  21.469  0.00  0.00    +0.000 C 
BRANCH  20  21
ATOM     21  N   UNK     1       0.103  10.383  20.633  0.00  0.00    +0.000 NA
ATOM     22  H   UNK     1       1.052  10.738  20.540  0.00  0.00    +0.000 HD
BRANCH  21  23
ATOM     23  C   UNK     1      -0.517  10.208  19.315  0.00  0.00    +0.000 C 
BRANCH  23  24
ATOM     24  C   UNK     1      -0.960  11.518  18.603  0.00  0.00    +0.000 C 
BRANCH  24  25
ATOM     25  C   UNK     1      -2.352  11.495  17.999  0.00  0.00    +0.000 A 
ATOM     26  C   UNK     1      -2.517  11.099  16.659  0.00  0.00    +0.000 A 
ATOM     27  C   UNK     1      -3.788  11.021  16.083  0.00  0.00    +0.000 A 
ATOM     28  C   UNK     1      -4.915  11.353  16.833  0.00  0.00    +0.000 A 
ATOM     29  C   UNK     1      -4.763  11.772  18.151  0.00  0.00    +0.000 A 
ATOM     30 CL   UNK     1      -6.150  12.193  19.079  0.00  0.00    +0.000 Cl
ATOM     31  C   UNK     1      -3.495  11.851  18.731  0.00  0.00    +0.000 A 
ENDBRANCH  24  25
BRANCH  24  32
ATOM     32  O   UNK     1      -0.867  12.608  19.522  0.00  0.00    +0.000 OA
ATOM     33  H   UNK     1      -0.526  12.253  20.359  0.00  0.00    +0.000 HD
ENDBRANCH  24  32
ENDBRANCH  23  24
ENDBRANCH  21  23
ENDBRANCH  20  21
ENDBRANCH  18  20
ENDBRANCH   1  18
TORSDOF 11
ENDMDL
MODEL 8
REMARK VINA RESULT:      -6.9      3.195      9.213
REMARK  Name = 
REMARK  12 active torsions:
REMARK  status: ('A' for Active; 'I' for Inactive)
REMARK    1  A    between atoms: C_1  and  C_2
REMARK    2  A    between atoms: C_2  and  C_3
REMARK    3  A    between atoms: C_2  and  N_19
REMARK    4  A    between atoms: C_3  and  N_4
REMARK    5  A    between atoms: N_4  and  C_5
REMARK    6  A    between atoms: C_8  and  C_9
REMARK    7  A    between atoms: C_11  and  C_12
REMARK    8  A    between atoms: C_12  and  O_14
REMARK    9  A    between atoms: N_19  and  C_20
REMARK   10  A    between atoms: C_20  and  C_21
REMARK   11  A    between atoms: C_21  and  O_22
REMARK   12  A    between atoms: C_21  and  C_23
REMARK                            x       y       z     vdW  Elec       q    Type
REMARK                         _______ _______ _______ _____ _____    ______ ____
ROOT
ATOM      1  N   UNK     1       0.436   9.845  19.922  0.00  0.00    +0.000 N 
ATOM      2  H   UNK     1      -0.024  10.405  19.210  0.00  0.00    +0.000 HD
ENDROOT
BRANCH   1   3
ATOM      3  C   UNK     1       1.397   9.010  19.342  0.00  0.00    +0.000 A 
ATOM      4  C   UNK     1       1.752   7.833  20.014  0.00  0.00    +0.000 A 
ATOM      5  C   UNK     1       2.666   6.925  19.463  0.00  0.00    +0.000 A 
ATOM      6  C   UNK     1       3.225   7.154  18.202  0.00  0.00    +0.000 A 
ATOM      7  C   UNK     1       2.836   8.306  17.507  0.00  0.00    +0.000 A 
ATOM      8  C   UNK     1       1.923   9.211  18.064  0.00  0.00    +0.000 A 
BRANCH   6   9
ATOM      9  C   UNK     1       4.169   6.197  17.633  0.00  0.00    +0.000 A 
ATOM     10  N   UNK     1       5.448   6.352  17.328  0.00  0.00    +0.000 NA
ATOM     11  C   UNK     1       5.818   5.109  16.832  0.00  0.00    +0.000 A 
ATOM     12  C   UNK     1       4.741   4.259  16.859  0.00  0.00    +0.000 A 
ATOM     13  O   UNK     1       3.680   4.942  17.368  0.00  0.00    +0.000 OA
BRANCH  11  14
ATOM     14  C   UNK     1       7.161   4.813  16.374  0.00  0.00    +0.000 C 
ATOM     15  O   UNK     1       7.990   4.188  17.022  0.00  0.00    +0.000 OA
BRANCH  14  16
ATOM     16  O   UNK     1       7.404   5.314  15.140  0.00  0.00    +0.000 OA
ATOM     17  H   UNK     1       6.552   5.621  14.759  0.00  0.00    +0.000 HD
ENDBRANCH  14  16
ENDBRANCH  11  14
ENDBRANCH   6   9
ENDBRANCH   1   3
BRANCH   1  18
ATOM     18  C   UNK     1      -0.522   9.270  20.872  0.00  0.00    +0.000 C 
BRANCH  18  20
ATOM     19  C   UNK     1       0.156   9.566  23.302  0.00  0.00    +0.000 C 
ATOM     20  C   UNK     1      -0.651  10.159  22.143  0.00  0.00    +0.000 C 
BRANCH  20  21
ATOM     21  N   UNK     1      -0.230  11.563  21.963  0.00  0.00    +0.000 NA
ATOM     22  H   UNK     1       0.540  11.616  21.301  0.00  0.00    +0.000 HD
BRANCH  21  23
ATOM     23  C   UNK     1      -1.315  12.469  21.570  0.00  0.00    +0.000 C 
BRANCH  23  24
ATOM     24  C   UNK     1      -1.301  12.928  20.084  0.00  0.00    +0.000 C 
BRANCH  24  25
ATOM     25  C   UNK     1      -2.336  12.274  19.188  0.00  0.00    +0.000 A 
ATOM     26  C   UNK     1      -3.683  12.250  19.592  0.00  0.00    +0.000 A 
ATOM     27  C   UNK     1      -4.671  11.698  18.773  0.00  0.00    +0.000 A 
ATOM     28  C   UNK     1      -4.326  11.145  17.541  0.00  0.00    +0.000 A 
ATOM     29  C   UNK     1      -2.993  11.137  17.142  0.00  0.00    +0.000 A 
ATOM     30 CL   UNK     1      -2.559  10.446  15.626  0.00  0.00    +0.000 Cl
ATOM     31  C   UNK     1      -2.003  11.688  17.957  0.00  0.00    +0.000 A 
ENDBRANCH  24  25
BRANCH  24  32
ATOM     32  O   UNK     1      -1.462  14.347  20.028  0.00  0.00    +0.000 OA
ATOM     33  H   UNK     1      -1.612  14.657  20.936  0.00  0.00    +0.000 HD
ENDBRANCH  24  32
ENDBRANCH  23  24
ENDBRANCH  21  23
ENDBRANCH  20  21
ENDBRANCH  18  20
ENDBRANCH   1  18
TORSDOF 11
ENDMDL
MODEL 9
REMARK VINA RESULT:      -6.8      3.385      3.831
REMARK  Name = 
REMARK  12 active torsions:
REMARK  status: ('A' for Active; 'I' for Inactive)
REMARK    1  A    between atoms: C_1  and  C_2
REMARK    2  A    between atoms: C_2  and  C_3
REMARK    3  A    between atoms: C_2  and  N_19
REMARK    4  A    between atoms: C_3  and  N_4
REMARK    5  A    between atoms: N_4  and  C_5
REMARK    6  A    between atoms: C_8  and  C_9
REMARK    7  A    between atoms: C_11  and  C_12
REMARK    8  A    between atoms: C_12  and  O_14
REMARK    9  A    between atoms: N_19  and  C_20
REMARK   10  A    between atoms: C_20  and  C_21
REMARK   11  A    between atoms: C_21  and  O_22
REMARK   12  A    between atoms: C_21  and  C_23
REMARK                            x       y       z     vdW  Elec       q    Type
REMARK                         _______ _______ _______ _____ _____    ______ ____
ROOT
ATOM      1  N   UNK     1       1.877   8.128  21.091  0.00  0.00    +0.000 N 
ATOM      2  H   UNK     1       2.748   8.109  21.614  0.00  0.00    +0.000 HD
ENDROOT
BRANCH   1   3
ATOM      3  C   UNK     1       1.043   9.144  21.570  0.00  0.00    +0.000 A 
ATOM      4  C   UNK     1       0.788  10.244  20.741  0.00  0.00    +0.000 A 
ATOM      5  C   UNK     1      -0.083  11.269  21.135  0.00  0.00    +0.000 A 
ATOM      6  C   UNK     1      -0.751  11.203  22.361  0.00  0.00    +0.000 A 
ATOM      7  C   UNK     1      -0.535  10.082  23.172  0.00  0.00    +0.000 A 
ATOM      8  C   UNK     1       0.337   9.060  22.772  0.00  0.00    +0.000 A 
BRANCH   6   9
ATOM      9  C   UNK     1      -1.662  12.272  22.758  0.00  0.00    +0.000 A 
ATOM     10  N   UNK     1      -1.433  13.345  23.500  0.00  0.00    +0.000 NA
ATOM     11  C   UNK     1      -2.664  13.990  23.529  0.00  0.00    +0.000 A 
ATOM     12  C   UNK     1      -3.581  13.272  22.804  0.00  0.00    +0.000 A 
ATOM     13  O   UNK     1      -2.955  12.172  22.306  0.00  0.00    +0.000 OA
BRANCH  11  14
ATOM     14  C   UNK     1      -2.881  15.237  24.235  0.00  0.00    +0.000 C 
ATOM     15  O   UNK     1      -2.345  16.297  23.944  0.00  0.00    +0.000 OA
BRANCH  14  16
ATOM     16  O   UNK     1      -3.746  15.097  25.268  0.00  0.00    +0.000 OA
ATOM     17  H   UNK     1      -3.236  15.153  26.106  0.00  0.00    +0.000 HD
ENDBRANCH  14  16
ENDBRANCH  11  14
ENDBRANCH   6   9
ENDBRANCH   1   3
BRANCH   1  18
ATOM     18  C   UNK     1       1.321   6.785  20.901  0.00  0.00    +0.000 C 
BRANCH  18  20
ATOM     19  C   UNK     1       2.705   7.014  18.783  0.00  0.00    +0.000 C 
ATOM     20  C   UNK     1       2.067   6.026  19.765  0.00  0.00    +0.000 C 
BRANCH  20  21
ATOM     21  N   UNK     1       3.117   5.096  20.226  0.00  0.00    +0.000 NA
ATOM     22  H   UNK     1       3.121   5.048  21.242  0.00  0.00    +0.000 HD
BRANCH  21  23
ATOM     23  C   UNK     1       3.025   3.752  19.644  0.00  0.00    +0.000 C 
BRANCH  23  24
ATOM     24  C   UNK     1       4.294   3.258  18.892  0.00  0.00    +0.000 C 
BRANCH  24  25
ATOM     25  C   UNK     1       5.033   4.316  18.094  0.00  0.00    +0.000 A 
ATOM     26  C   UNK     1       4.619   4.607  16.782  0.00  0.00    +0.000 A 
ATOM     27  C   UNK     1       5.246   5.606  16.034  0.00  0.00    +0.000 A 
ATOM     28  C   UNK     1       6.310   6.321  16.580  0.00  0.00    +0.000 A 
ATOM     29  C   UNK     1       6.748   6.024  17.867  0.00  0.00    +0.000 A 
ATOM     30 CL   UNK     1       8.069   6.897  18.543  0.00  0.00    +0.000 Cl
ATOM     31  C   UNK     1       6.124   5.027  18.618  0.00  0.00    +0.000 A 
ENDBRANCH  24  25
BRANCH  24  32
ATOM     32  O   UNK     1       5.194   2.663  19.829  0.00  0.00    +0.000 OA
ATOM     33  H   UNK     1       6.062   3.080  19.701  0.00  0.00    +0.000 HD
ENDBRANCH  24  32
ENDBRANCH  23  24
ENDBRANCH  21  23
ENDBRANCH  20  21
ENDBRANCH  18  20
ENDBRANCH   1  18
TORSDOF 11
ENDMDL
