MODEL 1
REMARK VINA RESULT:      -8.0      0.000      0.000
REMARK  Name = 
REMARK  4 active torsions:
REMARK  status: ('A' for Active; 'I' for Inactive)
REMARK    1  A    between atoms: C_1  and  N_2
REMARK    2  A    between atoms: N_5  and  C_6
REMARK    3  A    between atoms: C_12  and  C_13
REMARK    4  A    between atoms: C_13  and  C_14
REMARK                            x       y       z     vdW  Elec       q    Type
REMARK                         _______ _______ _______ _____ _____    ______ ____
ROOT
ATOM      1  C   UNL     1       2.506   5.780  19.871  0.00  0.00    +0.000 A 
ATOM      2  C   UNL     1       1.621   4.988  20.642  0.00  0.00    +0.000 A 
ATOM      3  C   UNL     1       1.845   3.637  20.912  0.00  0.00    +0.000 A 
ATOM      4  C   UNL     1       2.988   2.998  20.441  0.00  0.00    +0.000 A 
ATOM      5  C   UNL     1       3.875   3.771  19.697  0.00  0.00    +0.000 A 
ATOM      6  N   UNL     1       5.074   3.460  19.110  0.00  0.00    +0.000 N 
ATOM      7  C   UNL     1       5.560   4.574  18.478  0.00  0.00    +0.000 A 
ATOM      8  N   UNL     1       4.731   5.592  18.631  0.00  0.00    +0.000 NA
ATOM      9  C   UNL     1       3.671   5.119  19.392  0.00  0.00    +0.000 A 
ATOM     10  H   UNL     1       5.528   2.560  19.145  0.00  0.00    +0.000 HD
ENDROOT
BRANCH   1  15
ATOM     11  C   UNL     1       0.122  10.682  18.656  0.00  0.00    +0.000 C 
ATOM     12  N   UNL     1       1.195   9.787  19.081  0.00  0.00    +0.000 NA
ATOM     13  C   UNL     1       1.559   8.842  17.991  0.00  0.00    +0.000 C 
ATOM     14  C   UNL     1       2.627   7.793  18.416  0.00  0.00    +0.000 C 
ATOM     15  N   UNL     1       2.109   7.089  19.593  0.00  0.00    +0.000 N 
ATOM     16  C   UNL     1       1.840   7.988  20.725  0.00  0.00    +0.000 C 
ATOM     17  C   UNL     1       0.777   9.020  20.281  0.00  0.00    +0.000 C 
ENDBRANCH   1  15
BRANCH   7  18
ATOM     18  C   UNL     1       6.867   4.569  17.752  0.00  0.00    +0.000 C 
BRANCH  18  19
ATOM     19  C   UNL     1       6.728   4.455  16.251  0.00  0.00    +0.000 A 
ATOM     20  C   UNL     1       5.719   3.655  15.694  0.00  0.00    +0.000 A 
ATOM     21  C   UNL     1       5.561   3.568  14.311  0.00  0.00    +0.000 A 
ATOM     22  C   UNL     1       6.404   4.286  13.466  0.00  0.00    +0.000 A 
ATOM     23  C   UNL     1       7.408   5.089  14.005  0.00  0.00    +0.000 A 
ATOM     24  C   UNL     1       7.571   5.174  15.390  0.00  0.00    +0.000 A 
ENDBRANCH  18  19
ENDBRANCH   7  18
TORSDOF 3
ENDMDL
MODEL 2
REMARK VINA RESULT:      -7.9      0.091      1.010
REMARK  Name = 
REMARK  4 active torsions:
REMARK  status: ('A' for Active; 'I' for Inactive)
REMARK    1  A    between atoms: C_1  and  N_2
REMARK    2  A    between atoms: N_5  and  C_6
REMARK    3  A    between atoms: C_12  and  C_13
REMARK    4  A    between atoms: C_13  and  C_14
REMARK                            x       y       z     vdW  Elec       q    Type
REMARK                         _______ _______ _______ _____ _____    ______ ____
ROOT
ATOM      1  C   UNL     1       2.425   5.813  19.881  0.00  0.00    +0.000 A 
ATOM      2  C   UNL     1       1.528   5.038  20.656  0.00  0.00    +0.000 A 
ATOM      3  C   UNL     1       1.734   3.686  20.938  0.00  0.00    +0.000 A 
ATOM      4  C   UNL     1       2.871   3.030  20.476  0.00  0.00    +0.000 A 
ATOM      5  C   UNL     1       3.770   3.786  19.729  0.00  0.00    +0.000 A 
ATOM      6  N   UNL     1       4.967   3.455  19.149  0.00  0.00    +0.000 N 
ATOM      7  C   UNL     1       5.469   4.558  18.509  0.00  0.00    +0.000 A 
ATOM      8  N   UNL     1       4.652   5.587  18.651  0.00  0.00    +0.000 NA
ATOM      9  C   UNL     1       3.583   5.134  19.412  0.00  0.00    +0.000 A 
ATOM     10  H   UNL     1       5.410   2.550  19.192  0.00  0.00    +0.000 HD
ENDROOT
BRANCH   1  15
ATOM     11  C   UNL     1       0.098  10.741  18.661  0.00  0.00    +0.000 C 
ATOM     12  N   UNL     1       1.169   9.831  19.060  0.00  0.00    +0.000 NA
ATOM     13  C   UNL     1       1.463   8.854  17.977  0.00  0.00    +0.000 C 
ATOM     14  C   UNL     1       2.526   7.790  18.377  0.00  0.00    +0.000 C 
ATOM     15  N   UNL     1       2.046   7.124  19.592  0.00  0.00    +0.000 N 
ATOM     16  C   UNL     1       1.847   8.053  20.714  0.00  0.00    +0.000 C 
ATOM     17  C   UNL     1       0.788   9.099  20.294  0.00  0.00    +0.000 C 
ENDBRANCH   1  15
BRANCH   7  18
ATOM     18  C   UNL     1       6.778   4.531  17.788  0.00  0.00    +0.000 C 
BRANCH  18  19
ATOM     19  C   UNL     1       6.642   4.474  16.283  0.00  0.00    +0.000 A 
ATOM     20  C   UNL     1       7.539   5.177  15.466  0.00  0.00    +0.000 A 
ATOM     21  C   UNL     1       7.443   5.105  14.076  0.00  0.00    +0.000 A 
ATOM     22  C   UNL     1       6.454   4.323  13.485  0.00  0.00    +0.000 A 
ATOM     23  C   UNL     1       5.558   3.614  14.284  0.00  0.00    +0.000 A 
ATOM     24  C   UNL     1       5.650   3.688  15.677  0.00  0.00    +0.000 A 
ENDBRANCH  18  19
ENDBRANCH   7  18
TORSDOF 3
ENDMDL
MODEL 3
REMARK VINA RESULT:      -7.9      1.461      1.945
REMARK  Name = 
REMARK  4 active torsions:
REMARK  status: ('A' for Active; 'I' for Inactive)
REMARK    1  A    between atoms: C_1  and  N_2
REMARK    2  A    between atoms: N_5  and  C_6
REMARK    3  A    between atoms: C_12  and  C_13
REMARK    4  A    between atoms: C_13  and  C_14
REMARK                            x       y       z     vdW  Elec       q    Type
REMARK                         _______ _______ _______ _____ _____    ______ ____
ROOT
ATOM      1  C   UNL     1       2.535   5.367  18.389  0.00  0.00    +0.000 A 
ATOM      2  C   UNL     1       1.539   4.422  18.736  0.00  0.00    +0.000 A 
ATOM      3  C   UNL     1       1.637   3.063  18.431  0.00  0.00    +0.000 A 
ATOM      4  C   UNL     1       2.757   2.562  17.774  0.00  0.00    +0.000 A 
ATOM      5  C   UNL     1       3.752   3.478  17.444  0.00  0.00    +0.000 A 
ATOM      6  N   UNL     1       4.961   3.315  16.819  0.00  0.00    +0.000 N 
ATOM      7  C   UNL     1       5.575   4.536  16.719  0.00  0.00    +0.000 A 
ATOM      8  N   UNL     1       4.820   5.480  17.252  0.00  0.00    +0.000 NA
ATOM      9  C   UNL     1       3.675   4.847  17.717  0.00  0.00    +0.000 A 
ATOM     10  H   UNL     1       5.339   2.440  16.493  0.00  0.00    +0.000 HD
ENDROOT
BRANCH   1  15
ATOM     11  C   UNL     1       0.605  10.503  19.434  0.00  0.00    +0.000 C 
ATOM     12  N   UNL     1       1.615   9.455  19.306  0.00  0.00    +0.000 NA
ATOM     13  C   UNL     1       1.678   8.951  17.908  0.00  0.00    +0.000 C 
ATOM     14  C   UNL     1       2.664   7.760  17.726  0.00  0.00    +0.000 C 
ATOM     15  N   UNL     1       2.262   6.708  18.664  0.00  0.00    +0.000 N 
ATOM     16  C   UNL     1       2.293   7.149  20.066  0.00  0.00    +0.000 C 
ATOM     17  C   UNL     1       1.306   8.330  20.223  0.00  0.00    +0.000 C 
ENDBRANCH   1  15
BRANCH   7  18
ATOM     18  C   UNL     1       6.925   4.697  16.098  0.00  0.00    +0.000 C 
BRANCH  18  19
ATOM     19  C   UNL     1       6.920   4.569  14.591  0.00  0.00    +0.000 A 
ATOM     20  C   UNL     1       7.782   5.354  13.813  0.00  0.00    +0.000 A 
ATOM     21  C   UNL     1       7.810   5.221  12.424  0.00  0.00    +0.000 A 
ATOM     22  C   UNL     1       6.980   4.294  11.797  0.00  0.00    +0.000 A 
ATOM     23  C   UNL     1       6.121   3.503  12.557  0.00  0.00    +0.000 A 
ATOM     24  C   UNL     1       6.089   3.639  13.948  0.00  0.00    +0.000 A 
ENDBRANCH  18  19
ENDBRANCH   7  18
TORSDOF 3
ENDMDL
MODEL 4
REMARK VINA RESULT:      -7.9      3.791      6.000
REMARK  Name = 
REMARK  4 active torsions:
REMARK  status: ('A' for Active; 'I' for Inactive)
REMARK    1  A    between atoms: C_1  and  N_2
REMARK    2  A    between atoms: N_5  and  C_6
REMARK    3  A    between atoms: C_12  and  C_13
REMARK    4  A    between atoms: C_13  and  C_14
REMARK                            x       y       z     vdW  Elec       q    Type
REMARK                         _______ _______ _______ _____ _____    ______ ____
ROOT
ATOM      1  C   UNL     1      -0.657  10.269  20.409  0.00  0.00    +0.000 A 
ATOM      2  C   UNL     1      -1.053  10.912  21.607  0.00  0.00    +0.000 A 
ATOM      3  C   UNL     1      -0.519  10.593  22.857  0.00  0.00    +0.000 A 
ATOM      4  C   UNL     1       0.466   9.618  22.981  0.00  0.00    +0.000 A 
ATOM      5  C   UNL     1       0.877   8.992  21.807  0.00  0.00    +0.000 A 
ATOM      6  N   UNL     1       1.816   8.019  21.583  0.00  0.00    +0.000 N 
ATOM      7  C   UNL     1       1.842   7.730  20.243  0.00  0.00    +0.000 A 
ATOM      8  N   UNL     1       0.964   8.473  19.592  0.00  0.00    +0.000 NA
ATOM      9  C   UNL     1       0.349   9.274  20.545  0.00  0.00    +0.000 A 
ATOM     10  H   UNL     1       2.398   7.591  22.286  0.00  0.00    +0.000 HD
ENDROOT
BRANCH   1  15
ATOM     11  C   UNL     1      -4.021  11.098  16.028  0.00  0.00    +0.000 C 
ATOM     12  N   UNL     1      -2.867  11.338  16.892  0.00  0.00    +0.000 NA
ATOM     13  C   UNL     1      -1.986  10.141  16.942  0.00  0.00    +0.000 C 
ATOM     14  C   UNL     1      -0.790  10.295  17.927  0.00  0.00    +0.000 C 
ATOM     15  N   UNL     1      -1.345  10.615  19.245  0.00  0.00    +0.000 N 
ATOM     16  C   UNL     1      -2.135  11.855  19.249  0.00  0.00    +0.000 C 
ATOM     17  C   UNL     1      -3.316  11.679  18.265  0.00  0.00    +0.000 C 
ENDBRANCH   1  15
BRANCH   7  18
ATOM     18  C   UNL     1       2.777   6.716  19.667  0.00  0.00    +0.000 C 
BRANCH  18  19
ATOM     19  C   UNL     1       2.157   5.348  19.493  0.00  0.00    +0.000 A 
ATOM     20  C   UNL     1       1.657   4.653  20.604  0.00  0.00    +0.000 A 
ATOM     21  C   UNL     1       1.053   3.404  20.451  0.00  0.00    +0.000 A 
ATOM     22  C   UNL     1       0.936   2.838  19.183  0.00  0.00    +0.000 A 
ATOM     23  C   UNL     1       1.424   3.518  18.069  0.00  0.00    +0.000 A 
ATOM     24  C   UNL     1       2.033   4.767  18.222  0.00  0.00    +0.000 A 
ENDBRANCH  18  19
ENDBRANCH   7  18
TORSDOF 3
ENDMDL
MODEL 5
REMARK VINA RESULT:      -7.9      3.786      6.018
REMARK  Name = 
REMARK  4 active torsions:
REMARK  status: ('A' for Active; 'I' for Inactive)
REMARK    1  A    between atoms: C_1  and  N_2
REMARK    2  A    between atoms: N_5  and  C_6
REMARK    3  A    between atoms: C_12  and  C_13
REMARK    4  A    between atoms: C_13  and  C_14
REMARK                            x       y       z     vdW  Elec       q    Type
REMARK                         _______ _______ _______ _____ _____    ______ ____
ROOT
ATOM      1  C   UNL     1      -0.676  10.260  20.414  0.00  0.00    +0.000 A 
ATOM      2  C   UNL     1      -1.070  10.910  21.610  0.00  0.00    +0.000 A 
ATOM      3  C   UNL     1      -0.540  10.592  22.862  0.00  0.00    +0.000 A 
ATOM      4  C   UNL     1       0.440   9.613  22.990  0.00  0.00    +0.000 A 
ATOM      5  C   UNL     1       0.850   8.980  21.819  0.00  0.00    +0.000 A 
ATOM      6  N   UNL     1       1.784   8.002  21.600  0.00  0.00    +0.000 N 
ATOM      7  C   UNL     1       1.811   7.708  20.261  0.00  0.00    +0.000 A 
ATOM      8  N   UNL     1       0.938   8.453  19.606  0.00  0.00    +0.000 NA
ATOM      9  C   UNL     1       0.325   9.261  20.555  0.00  0.00    +0.000 A 
ATOM     10  H   UNL     1       2.363   7.574  22.305  0.00  0.00    +0.000 HD
ENDROOT
BRANCH   1  15
ATOM     11  C   UNL     1      -4.023  11.084  16.020  0.00  0.00    +0.000 C 
ATOM     12  N   UNL     1      -2.874  11.328  16.890  0.00  0.00    +0.000 NA
ATOM     13  C   UNL     1      -1.987  10.135  16.940  0.00  0.00    +0.000 C 
ATOM     14  C   UNL     1      -0.797  10.293  17.931  0.00  0.00    +0.000 C 
ATOM     15  N   UNL     1      -1.360  10.606  19.248  0.00  0.00    +0.000 N 
ATOM     16  C   UNL     1      -2.157  11.842  19.251  0.00  0.00    +0.000 C 
ATOM     17  C   UNL     1      -3.332  11.661  18.262  0.00  0.00    +0.000 C 
ENDBRANCH   1  15
BRANCH   7  18
ATOM     18  C   UNL     1       2.742   6.687  19.690  0.00  0.00    +0.000 C 
BRANCH  18  19
ATOM     19  C   UNL     1       2.103   5.333  19.480  0.00  0.00    +0.000 A 
ATOM     20  C   UNL     1       2.047   4.771  18.197  0.00  0.00    +0.000 A 
ATOM     21  C   UNL     1       1.491   3.507  17.996  0.00  0.00    +0.000 A 
ATOM     22  C   UNL     1       0.989   2.787  19.077  0.00  0.00    +0.000 A 
ATOM     23  C   UNL     1       1.042   3.330  20.359  0.00  0.00    +0.000 A 
ATOM     24  C   UNL     1       1.595   4.598  20.562  0.00  0.00    +0.000 A 
ENDBRANCH  18  19
ENDBRANCH   7  18
TORSDOF 3
ENDMDL
MODEL 6
REMARK VINA RESULT:      -7.9      1.458      1.666
REMARK  Name = 
REMARK  4 active torsions:
REMARK  status: ('A' for Active; 'I' for Inactive)
REMARK    1  A    between atoms: C_1  and  N_2
REMARK    2  A    between atoms: N_5  and  C_6
REMARK    3  A    between atoms: C_12  and  C_13
REMARK    4  A    between atoms: C_13  and  C_14
REMARK                            x       y       z     vdW  Elec       q    Type
REMARK                         _______ _______ _______ _____ _____    ______ ____
ROOT
ATOM      1  C   UNL     1       2.548   5.395  18.383  0.00  0.00    +0.000 A 
ATOM      2  C   UNL     1       1.561   4.440  18.731  0.00  0.00    +0.000 A 
ATOM      3  C   UNL     1       1.670   3.083  18.424  0.00  0.00    +0.000 A 
ATOM      4  C   UNL     1       2.793   2.592  17.764  0.00  0.00    +0.000 A 
ATOM      5  C   UNL     1       3.779   3.517  17.434  0.00  0.00    +0.000 A 
ATOM      6  N   UNL     1       4.988   3.366  16.807  0.00  0.00    +0.000 N 
ATOM      7  C   UNL     1       5.592   4.592  16.707  0.00  0.00    +0.000 A 
ATOM      8  N   UNL     1       4.830   5.529  17.243  0.00  0.00    +0.000 NA
ATOM      9  C   UNL     1       3.691   4.885  17.709  0.00  0.00    +0.000 A 
ATOM     10  H   UNL     1       5.374   2.494  16.479  0.00  0.00    +0.000 HD
ENDROOT
BRANCH   1  15
ATOM     11  C   UNL     1       0.576  10.514  19.432  0.00  0.00    +0.000 C 
ATOM     12  N   UNL     1       1.594   9.473  19.308  0.00  0.00    +0.000 NA
ATOM     13  C   UNL     1       1.672   8.974  17.908  0.00  0.00    +0.000 C 
ATOM     14  C   UNL     1       2.667   7.790  17.730  0.00  0.00    +0.000 C 
ATOM     15  N   UNL     1       2.264   6.732  18.661  0.00  0.00    +0.000 N 
ATOM     16  C   UNL     1       2.281   7.169  20.065  0.00  0.00    +0.000 C 
ATOM     17  C   UNL     1       1.286   8.342  20.219  0.00  0.00    +0.000 C 
ENDBRANCH   1  15
BRANCH   7  18
ATOM     18  C   UNL     1       6.940   4.765  16.084  0.00  0.00    +0.000 C 
BRANCH  18  19
ATOM     19  C   UNL     1       6.946   4.569  14.585  0.00  0.00    +0.000 A 
ATOM     20  C   UNL     1       6.086   3.634  13.992  0.00  0.00    +0.000 A 
ATOM     21  C   UNL     1       6.059   3.468  12.607  0.00  0.00    +0.000 A 
ATOM     22  C   UNL     1       6.887   4.241  11.796  0.00  0.00    +0.000 A 
ATOM     23  C   UNL     1       7.743   5.179  12.370  0.00  0.00    +0.000 A 
ATOM     24  C   UNL     1       7.774   5.343  13.758  0.00  0.00    +0.000 A 
ENDBRANCH  18  19
ENDBRANCH   7  18
TORSDOF 3
ENDMDL
MODEL 7
REMARK VINA RESULT:      -7.8      0.519      1.520
REMARK  Name = 
REMARK  4 active torsions:
REMARK  status: ('A' for Active; 'I' for Inactive)
REMARK    1  A    between atoms: C_1  and  N_2
REMARK    2  A    between atoms: N_5  and  C_6
REMARK    3  A    between atoms: C_12  and  C_13
REMARK    4  A    between atoms: C_13  and  C_14
REMARK                            x       y       z     vdW  Elec       q    Type
REMARK                         _______ _______ _______ _____ _____    ______ ____
ROOT
ATOM      1  C   UNL     1       2.761   5.605  19.907  0.00  0.00    +0.000 A 
ATOM      2  C   UNL     1       1.999   4.767  20.757  0.00  0.00    +0.000 A 
ATOM      3  C   UNL     1       2.348   3.445  21.039  0.00  0.00    +0.000 A 
ATOM      4  C   UNL     1       3.502   2.885  20.500  0.00  0.00    +0.000 A 
ATOM      5  C   UNL     1       4.270   3.704  19.677  0.00  0.00    +0.000 A 
ATOM      6  N   UNL     1       5.445   3.471  19.012  0.00  0.00    +0.000 N 
ATOM      7  C   UNL     1       5.795   4.602  18.322  0.00  0.00    +0.000 A 
ATOM      8  N   UNL     1       4.901   5.556  18.513  0.00  0.00    +0.000 NA
ATOM      9  C   UNL     1       3.938   5.023  19.359  0.00  0.00    +0.000 A 
ATOM     10  H   UNL     1       5.970   2.610  19.032  0.00  0.00    +0.000 HD
ENDROOT
BRANCH   1  15
ATOM     11  C   UNL     1       1.509  10.948  18.872  0.00  0.00    +0.000 C 
ATOM     12  N   UNL     1       1.255   9.514  18.987  0.00  0.00    +0.000 NA
ATOM     13  C   UNL     1       1.462   9.052  20.387  0.00  0.00    +0.000 C 
ATOM     14  C   UNL     1       1.306   7.513  20.557  0.00  0.00    +0.000 C 
ATOM     15  N   UNL     1       2.243   6.870  19.630  0.00  0.00    +0.000 N 
ATOM     16  C   UNL     1       1.994   7.227  18.226  0.00  0.00    +0.000 C 
ATOM     17  C   UNL     1       2.154   8.759  18.080  0.00  0.00    +0.000 C 
ENDBRANCH   1  15
BRANCH   7  18
ATOM     18  C   UNL     1       7.044   4.679  17.504  0.00  0.00    +0.000 C 
BRANCH  18  19
ATOM     19  C   UNL     1       6.805   4.541  16.017  0.00  0.00    +0.000 A 
ATOM     20  C   UNL     1       7.649   5.188  15.103  0.00  0.00    +0.000 A 
ATOM     21  C   UNL     1       7.459   5.041  13.729  0.00  0.00    +0.000 A 
ATOM     22  C   UNL     1       6.425   4.239  13.250  0.00  0.00    +0.000 A 
ATOM     23  C   UNL     1       5.581   3.585  14.146  0.00  0.00    +0.000 A 
ATOM     24  C   UNL     1       5.768   3.735  15.523  0.00  0.00    +0.000 A 
ENDBRANCH  18  19
ENDBRANCH   7  18
TORSDOF 3
ENDMDL
MODEL 8
REMARK VINA RESULT:      -7.8      0.516      1.139
REMARK  Name = 
REMARK  4 active torsions:
REMARK  status: ('A' for Active; 'I' for Inactive)
REMARK    1  A    between atoms: C_1  and  N_2
REMARK    2  A    between atoms: N_5  and  C_6
REMARK    3  A    between atoms: C_12  and  C_13
REMARK    4  A    between atoms: C_13  and  C_14
REMARK                            x       y       z     vdW  Elec       q    Type
REMARK                         _______ _______ _______ _____ _____    ______ ____
ROOT
ATOM      1  C   UNL     1       2.761   5.609  19.919  0.00  0.00    +0.000 A 
ATOM      2  C   UNL     1       2.000   4.762  20.760  0.00  0.00    +0.000 A 
ATOM      3  C   UNL     1       2.354   3.439  21.034  0.00  0.00    +0.000 A 
ATOM      4  C   UNL     1       3.513   2.889  20.495  0.00  0.00    +0.000 A 
ATOM      5  C   UNL     1       4.280   3.718  19.682  0.00  0.00    +0.000 A 
ATOM      6  N   UNL     1       5.460   3.496  19.019  0.00  0.00    +0.000 N 
ATOM      7  C   UNL     1       5.806   4.634  18.339  0.00  0.00    +0.000 A 
ATOM      8  N   UNL     1       4.907   5.583  18.534  0.00  0.00    +0.000 NA
ATOM      9  C   UNL     1       3.943   5.038  19.372  0.00  0.00    +0.000 A 
ATOM     10  H   UNL     1       5.989   2.638  19.036  0.00  0.00    +0.000 HD
ENDROOT
BRANCH   1  15
ATOM     11  C   UNL     1       1.486  10.953  18.913  0.00  0.00    +0.000 C 
ATOM     12  N   UNL     1       1.238   9.517  19.022  0.00  0.00    +0.000 NA
ATOM     13  C   UNL     1       1.450   9.050  20.419  0.00  0.00    +0.000 C 
ATOM     14  C   UNL     1       1.301   7.509  20.583  0.00  0.00    +0.000 C 
ATOM     15  N   UNL     1       2.237   6.874  19.650  0.00  0.00    +0.000 N 
ATOM     16  C   UNL     1       1.983   7.237  18.248  0.00  0.00    +0.000 C 
ATOM     17  C   UNL     1       2.138   8.769  18.109  0.00  0.00    +0.000 C 
ENDBRANCH   1  15
BRANCH   7  18
ATOM     18  C   UNL     1       7.058   4.724  17.527  0.00  0.00    +0.000 C 
BRANCH  18  19
ATOM     19  C   UNL     1       6.835   4.527  16.045  0.00  0.00    +0.000 A 
ATOM     20  C   UNL     1       5.775   3.729  15.590  0.00  0.00    +0.000 A 
ATOM     21  C   UNL     1       5.540   3.567  14.224  0.00  0.00    +0.000 A 
ATOM     22  C   UNL     1       6.358   4.206  13.295  0.00  0.00    +0.000 A 
ATOM     23  C   UNL     1       7.412   5.006  13.732  0.00  0.00    +0.000 A 
ATOM     24  C   UNL     1       7.652   5.166  15.099  0.00  0.00    +0.000 A 
ENDBRANCH  18  19
ENDBRANCH   7  18
TORSDOF 3
ENDMDL
MODEL 9
REMARK VINA RESULT:      -7.7      3.209      4.993
REMARK  Name = 
REMARK  4 active torsions:
REMARK  status: ('A' for Active; 'I' for Inactive)
REMARK    1  A    between atoms: C_1  and  N_2
REMARK    2  A    between atoms: N_5  and  C_6
REMARK    3  A    between atoms: C_12  and  C_13
REMARK    4  A    between atoms: C_13  and  C_14
REMARK                            x       y       z     vdW  Elec       q    Type
REMARK                         _______ _______ _______ _____ _____    ______ ____
ROOT
ATOM      1  C   UNL     1       5.185   4.633  17.802  0.00  0.00    +0.000 A 
ATOM      2  C   UNL     1       5.786   5.013  19.027  0.00  0.00    +0.000 A 
ATOM      3  C   UNL     1       7.046   5.609  19.107  0.00  0.00    +0.000 A 
ATOM      4  C   UNL     1       7.775   5.883  17.954  0.00  0.00    +0.000 A 
ATOM      5  C   UNL     1       7.187   5.532  16.742  0.00  0.00    +0.000 A 
ATOM      6  N   UNL     1       7.623   5.672  15.451  0.00  0.00    +0.000 N 
ATOM      7  C   UNL     1       6.677   5.156  14.605  0.00  0.00    +0.000 A 
ATOM      8  N   UNL     1       5.647   4.691  15.291  0.00  0.00    +0.000 NA
ATOM      9  C   UNL     1       5.938   4.916  16.630  0.00  0.00    +0.000 A 
ATOM     10  H   UNL     1       8.495   6.093  15.168  0.00  0.00    +0.000 HD
ENDROOT
BRANCH   1  15
ATOM     11  C   UNL     1       0.353   2.078  18.949  0.00  0.00    +0.000 C 
ATOM     12  N   UNL     1       1.405   2.627  18.097  0.00  0.00    +0.000 NA
ATOM     13  C   UNL     1       2.696   1.926  18.333  0.00  0.00    +0.000 C 
ATOM     14  C   UNL     1       3.883   2.533  17.529  0.00  0.00    +0.000 C 
ATOM     15  N   UNL     1       3.968   3.955  17.875  0.00  0.00    +0.000 N 
ATOM     16  C   UNL     1       2.739   4.696  17.553  0.00  0.00    +0.000 C 
ATOM     17  C   UNL     1       1.575   4.078  18.363  0.00  0.00    +0.000 C 
ENDBRANCH   1  15
BRANCH   7  18
ATOM     18  C   UNL     1       6.844   5.173  13.120  0.00  0.00    +0.000 C 
BRANCH  18  19
ATOM     19  C   UNL     1       6.433   3.882  12.448  0.00  0.00    +0.000 A 
ATOM     20  C   UNL     1       5.077   3.606  12.218  0.00  0.00    +0.000 A 
ATOM     21  C   UNL     1       4.688   2.434  11.569  0.00  0.00    +0.000 A 
ATOM     22  C   UNL     1       5.651   1.524  11.137  0.00  0.00    +0.000 A 
ATOM     23  C   UNL     1       7.002   1.786  11.354  0.00  0.00    +0.000 A 
ATOM     24  C   UNL     1       7.393   2.958  12.008  0.00  0.00    +0.000 A 
ENDBRANCH  18  19
ENDBRANCH   7  18
TORSDOF 3
ENDMDL
