MODEL 1
REMARK VINA RESULT:      -7.8      0.000      0.000
REMARK  Name = 
REMARK  6 active torsions:
REMARK  status: ('A' for Active; 'I' for Inactive)
REMARK    1  A    between atoms: C_1  and  C_2
REMARK    2  A    between atoms: C_5  and  C_6
REMARK    3  A    between atoms: C_10  and  C_11
REMARK    4  A    between atoms: C_11  and  O_13
REMARK    5  A    between atoms: C_14  and  C_15
REMARK    6  A    between atoms: N_23  and  C_24
REMARK                            x       y       z     vdW  Elec       q    Type
REMARK                         _______ _______ _______ _____ _____    ______ ____
ROOT
ATOM      1  C   UNL     1       2.526   7.072  18.836  0.00  0.00    +0.000 C 
ATOM      2  O   UNL     1       2.890   7.327  17.686  0.00  0.00    +0.000 OA
ATOM      3  N   UNL     1       1.870   8.040  19.594  0.00  0.00    +0.000 N 
ATOM      4  C   UNL     1       1.401   7.948  20.962  0.00  0.00    +0.000 C 
ATOM      5  C   UNL     1       0.200   8.869  20.990  0.00  0.00    +0.000 C 
ATOM      6  C   UNL     1       0.571  10.003  20.009  0.00  0.00    +0.000 C 
ATOM      7  C   UNL     1       1.621   9.369  19.067  0.00  0.00    +0.000 C 
ENDROOT
BRANCH   1  12
ATOM      8  C   UNL     1       4.303   2.478  20.189  0.00  0.00    +0.000 C 
ATOM      9  C   UNL     1       3.527   3.723  19.977  0.00  0.00    +0.000 A 
ATOM     10  C   UNL     1       3.890   4.959  19.480  0.00  0.00    +0.000 A 
ATOM     11 CL   UNL     1       5.434   5.425  18.944  0.00  0.00    +0.000 Cl
ATOM     12  C   UNL     1       2.691   5.724  19.416  0.00  0.00    +0.000 A 
ATOM     13  N   UNL     1       1.665   5.020  19.938  0.00  0.00    +0.000 NA
ATOM     14  N   UNL     1       2.187   3.821  20.233  0.00  0.00    +0.000 N 
ATOM     15  C   UNL     1       1.304   2.768  20.682  0.00  0.00    +0.000 C 
ENDBRANCH   1  12
BRANCH   6  16
ATOM     16  C   UNL     1      -0.665  10.577  19.350  0.00  0.00    +0.000 A 
ATOM     17  C   UNL     1      -1.075  10.085  18.104  0.00  0.00    +0.000 A 
ATOM     18  C   UNL     1      -2.213  10.599  17.488  0.00  0.00    +0.000 A 
ATOM     19  C   UNL     1      -2.907  11.606  18.131  0.00  0.00    +0.000 A 
ATOM     20  N   UNL     1      -2.529  12.134  19.312  0.00  0.00    +0.000 NA
ATOM     21  C   UNL     1      -1.423  11.615  19.890  0.00  0.00    +0.000 A 
ENDBRANCH   6  16
BRANCH   5  22
ATOM     22  C   UNL     1      -0.033   9.331  22.405  0.00  0.00    +0.000 C 
ATOM     23  O   UNL     1       0.568  10.244  22.948  0.00  0.00    +0.000 OA
BRANCH  22  24
ATOM     24  O   UNL     1      -0.966   8.601  23.057  0.00  0.00    +0.000 OA
ATOM     25  H   UNL     1      -0.631   8.065  23.800  0.00  0.00    +0.000 HD
ENDBRANCH  22  24
ENDBRANCH   5  22
TORSDOF 4
ENDMDL
MODEL 2
REMARK VINA RESULT:      -7.7      4.245      8.076
REMARK  Name = 
REMARK  6 active torsions:
REMARK  status: ('A' for Active; 'I' for Inactive)
REMARK    1  A    between atoms: C_1  and  C_2
REMARK    2  A    between atoms: C_5  and  C_6
REMARK    3  A    between atoms: C_10  and  C_11
REMARK    4  A    between atoms: C_11  and  O_13
REMARK    5  A    between atoms: C_14  and  C_15
REMARK    6  A    between atoms: N_23  and  C_24
REMARK                            x       y       z     vdW  Elec       q    Type
REMARK                         _______ _______ _______ _____ _____    ______ ____
ROOT
ATOM      1  C   UNL     1       2.601   5.474  17.975  0.00  0.00    +0.000 C 
ATOM      2  O   UNL     1       1.749   4.831  17.358  0.00  0.00    +0.000 OA
ATOM      3  N   UNL     1       3.955   5.191  17.800  0.00  0.00    +0.000 N 
ATOM      4  C   UNL     1       5.094   5.803  18.452  0.00  0.00    +0.000 C 
ATOM      5  C   UNL     1       6.196   5.697  17.419  0.00  0.00    +0.000 C 
ATOM      6  C   UNL     1       5.904   4.367  16.690  0.00  0.00    +0.000 C 
ATOM      7  C   UNL     1       4.393   4.127  16.915  0.00  0.00    +0.000 C 
ENDROOT
BRANCH   1  12
ATOM      8  C   UNL     1       0.997   8.390  21.851  0.00  0.00    +0.000 C 
ATOM      9  C   UNL     1       1.519   7.832  20.579  0.00  0.00    +0.000 A 
ATOM     10  C   UNL     1       1.942   6.564  20.237  0.00  0.00    +0.000 A 
ATOM     11 CL   UNL     1       1.991   5.201  21.251  0.00  0.00    +0.000 Cl
ATOM     12  C   UNL     1       2.232   6.609  18.844  0.00  0.00    +0.000 A 
ATOM     13  N   UNL     1       2.083   7.868  18.381  0.00  0.00    +0.000 NA
ATOM     14  N   UNL     1       1.625   8.567  19.430  0.00  0.00    +0.000 N 
ATOM     15  C   UNL     1       1.219   9.940  19.229  0.00  0.00    +0.000 C 
ENDBRANCH   1  12
BRANCH   6  16
ATOM     16  C   UNL     1       6.371   4.422  15.252  0.00  0.00    +0.000 A 
ATOM     17  C   UNL     1       5.763   3.596  14.297  0.00  0.00    +0.000 A 
ATOM     18  C   UNL     1       6.177   3.639  12.968  0.00  0.00    +0.000 A 
ATOM     19  C   UNL     1       7.202   4.502  12.630  0.00  0.00    +0.000 A 
ATOM     20  N   UNL     1       7.838   5.287  13.520  0.00  0.00    +0.000 NA
ATOM     21  C   UNL     1       7.415   5.229  14.803  0.00  0.00    +0.000 A 
ENDBRANCH   6  16
BRANCH   5  22
ATOM     22  C   UNL     1       7.530   5.739  18.116  0.00  0.00    +0.000 C 
ATOM     23  O   UNL     1       8.114   6.760  18.444  0.00  0.00    +0.000 OA
BRANCH  22  24
ATOM     24  O   UNL     1       8.064   4.513  18.319  0.00  0.00    +0.000 OA
ATOM     25  H   UNL     1       7.506   3.764  18.036  0.00  0.00    +0.000 HD
ENDBRANCH  22  24
ENDBRANCH   5  22
TORSDOF 4
ENDMDL
MODEL 3
REMARK VINA RESULT:      -7.5      0.611      1.056
REMARK  Name = 
REMARK  6 active torsions:
REMARK  status: ('A' for Active; 'I' for Inactive)
REMARK    1  A    between atoms: C_1  and  C_2
REMARK    2  A    between atoms: C_5  and  C_6
REMARK    3  A    between atoms: C_10  and  C_11
REMARK    4  A    between atoms: C_11  and  O_13
REMARK    5  A    between atoms: C_14  and  C_15
REMARK    6  A    between atoms: N_23  and  C_24
REMARK                            x       y       z     vdW  Elec       q    Type
REMARK                         _______ _______ _______ _____ _____    ______ ____
ROOT
ATOM      1  C   UNL     1       2.413   7.127  18.921  0.00  0.00    +0.000 C 
ATOM      2  O   UNL     1       2.688   7.401  17.751  0.00  0.00    +0.000 OA
ATOM      3  N   UNL     1       1.836   8.089  19.749  0.00  0.00    +0.000 N 
ATOM      4  C   UNL     1       1.476   7.974  21.148  0.00  0.00    +0.000 C 
ATOM      5  C   UNL     1       0.297   8.913  21.290  0.00  0.00    +0.000 C 
ATOM      6  C   UNL     1       0.608  10.062  20.305  0.00  0.00    +0.000 C 
ATOM      7  C   UNL     1       1.568   9.433  19.270  0.00  0.00    +0.000 C 
ENDROOT
BRANCH   1  12
ATOM      8  C   UNL     1       4.247   2.505  20.092  0.00  0.00    +0.000 C 
ATOM      9  C   UNL     1       3.460   3.753  19.939  0.00  0.00    +0.000 A 
ATOM     10  C   UNL     1       3.803   5.003  19.465  0.00  0.00    +0.000 A 
ATOM     11 CL   UNL     1       5.328   5.490  18.893  0.00  0.00    +0.000 Cl
ATOM     12  C   UNL     1       2.600   5.764  19.459  0.00  0.00    +0.000 A 
ATOM     13  N   UNL     1       1.594   5.043  19.994  0.00  0.00    +0.000 NA
ATOM     14  N   UNL     1       2.128   3.837  20.239  0.00  0.00    +0.000 N 
ATOM     15  C   UNL     1       1.263   2.769  20.687  0.00  0.00    +0.000 C 
ENDBRANCH   1  12
BRANCH   6  16
ATOM     16  C   UNL     1      -0.667  10.669  19.760  0.00  0.00    +0.000 A 
ATOM     17  C   UNL     1      -1.241  11.769  20.411  0.00  0.00    +0.000 A 
ATOM     18  C   UNL     1      -2.410  12.343  19.918  0.00  0.00    +0.000 A 
ATOM     19  C   UNL     1      -2.985  11.789  18.790  0.00  0.00    +0.000 A 
ATOM     20  N   UNL     1      -2.488  10.711  18.154  0.00  0.00    +0.000 NA
ATOM     21  C   UNL     1      -1.351  10.175  18.650  0.00  0.00    +0.000 A 
ENDBRANCH   6  16
BRANCH   5  22
ATOM     22  C   UNL     1       0.186   9.348  22.728  0.00  0.00    +0.000 C 
ATOM     23  O   UNL     1       1.125   9.695  23.427  0.00  0.00    +0.000 OA
BRANCH  22  24
ATOM     24  O   UNL     1      -1.077   9.284  23.208  0.00  0.00    +0.000 OA
ATOM     25  H   UNL     1      -1.686   9.967  22.869  0.00  0.00    +0.000 HD
ENDBRANCH  22  24
ENDBRANCH   5  22
TORSDOF 4
ENDMDL
MODEL 4
REMARK VINA RESULT:      -7.2      4.312      8.222
REMARK  Name = 
REMARK  6 active torsions:
REMARK  status: ('A' for Active; 'I' for Inactive)
REMARK    1  A    between atoms: C_1  and  C_2
REMARK    2  A    between atoms: C_5  and  C_6
REMARK    3  A    between atoms: C_10  and  C_11
REMARK    4  A    between atoms: C_11  and  O_13
REMARK    5  A    between atoms: C_14  and  C_15
REMARK    6  A    between atoms: N_23  and  C_24
REMARK                            x       y       z     vdW  Elec       q    Type
REMARK                         _______ _______ _______ _____ _____    ______ ____
ROOT
ATOM      1  C   UNL     1       2.563   5.313  17.817  0.00  0.00    +0.000 C 
ATOM      2  O   UNL     1       1.658   4.680  17.270  0.00  0.00    +0.000 OA
ATOM      3  N   UNL     1       3.896   4.991  17.564  0.00  0.00    +0.000 N 
ATOM      4  C   UNL     1       5.089   5.587  18.129  0.00  0.00    +0.000 C 
ATOM      5  C   UNL     1       6.120   5.430  17.032  0.00  0.00    +0.000 C 
ATOM      6  C   UNL     1       5.751   4.091  16.356  0.00  0.00    +0.000 C 
ATOM      7  C   UNL     1       4.252   3.896  16.680  0.00  0.00    +0.000 C 
ENDROOT
BRANCH   1  12
ATOM      8  C   UNL     1       1.250   8.357  21.704  0.00  0.00    +0.000 C 
ATOM      9  C   UNL     1       1.692   7.758  20.421  0.00  0.00    +0.000 A 
ATOM     10  C   UNL     1       2.050   6.468  20.085  0.00  0.00    +0.000 A 
ATOM     11 CL   UNL     1       2.092   5.122  21.121  0.00  0.00    +0.000 Cl
ATOM     12  C   UNL     1       2.278   6.478  18.679  0.00  0.00    +0.000 A 
ATOM     13  N   UNL     1       2.157   7.733  18.200  0.00  0.00    +0.000 NA
ATOM     14  N   UNL     1       1.775   8.468  19.254  0.00  0.00    +0.000 N 
ATOM     15  C   UNL     1       1.413   9.852  19.046  0.00  0.00    +0.000 C 
ENDBRANCH   1  12
BRANCH   6  16
ATOM     16  C   UNL     1       6.127   4.102  14.890  0.00  0.00    +0.000 A 
ATOM     17  C   UNL     1       7.183   4.912  14.454  0.00  0.00    +0.000 A 
ATOM     18  C   UNL     1       7.545   4.930  13.109  0.00  0.00    +0.000 A 
ATOM     19  C   UNL     1       6.828   4.141  12.229  0.00  0.00    +0.000 A 
ATOM     20  N   UNL     1       5.784   3.375  12.598  0.00  0.00    +0.000 NA
ATOM     21  C   UNL     1       5.455   3.374  13.909  0.00  0.00    +0.000 A 
ENDBRANCH   6  16
BRANCH   5  22
ATOM     22  C   UNL     1       7.497   5.452  17.643  0.00  0.00    +0.000 C 
ATOM     23  O   UNL     1       8.255   4.496  17.689  0.00  0.00    +0.000 OA
BRANCH  22  24
ATOM     24  O   UNL     1       7.819   6.646  18.188  0.00  0.00    +0.000 OA
ATOM     25  H   UNL     1       8.700   6.690  18.606  0.00  0.00    +0.000 HD
ENDBRANCH  22  24
ENDBRANCH   5  22
TORSDOF 4
ENDMDL
MODEL 5
REMARK VINA RESULT:      -7.2      1.121      1.459
REMARK  Name = 
REMARK  6 active torsions:
REMARK  status: ('A' for Active; 'I' for Inactive)
REMARK    1  A    between atoms: C_1  and  C_2
REMARK    2  A    between atoms: C_5  and  C_6
REMARK    3  A    between atoms: C_10  and  C_11
REMARK    4  A    between atoms: C_11  and  O_13
REMARK    5  A    between atoms: C_14  and  C_15
REMARK    6  A    between atoms: N_23  and  C_24
REMARK                            x       y       z     vdW  Elec       q    Type
REMARK                         _______ _______ _______ _____ _____    ______ ____
ROOT
ATOM      1  C   UNL     1       2.254   8.051  18.508  0.00  0.00    +0.000 C 
ATOM      2  O   UNL     1       2.456   8.343  17.328  0.00  0.00    +0.000 OA
ATOM      3  N   UNL     1       1.521   8.909  19.327  0.00  0.00    +0.000 N 
ATOM      4  C   UNL     1       1.208   8.763  20.734  0.00  0.00    +0.000 C 
ATOM      5  C   UNL     1      -0.122   9.471  20.879  0.00  0.00    +0.000 C 
ATOM      6  C   UNL     1      -0.044  10.634  19.865  0.00  0.00    +0.000 C 
ATOM      7  C   UNL     1       1.001  10.168  18.825  0.00  0.00    +0.000 C 
ENDROOT
BRANCH   1  12
ATOM      8  C   UNL     1       4.589   3.583  19.333  0.00  0.00    +0.000 C 
ATOM      9  C   UNL     1       3.759   4.811  19.377  0.00  0.00    +0.000 A 
ATOM     10  C   UNL     1       3.829   5.993  18.668  0.00  0.00    +0.000 A 
ATOM     11 CL   UNL     1       4.968   6.395  17.472  0.00  0.00    +0.000 Cl
ATOM     12  C   UNL     1       2.698   6.760  19.070  0.00  0.00    +0.000 A 
ATOM     13  N   UNL     1       2.027   6.115  20.047  0.00  0.00    +0.000 NA
ATOM     14  N   UNL     1       2.663   4.943  20.185  0.00  0.00    +0.000 N 
ATOM     15  C   UNL     1       2.099   3.943  21.063  0.00  0.00    +0.000 C 
ENDBRANCH   1  12
BRANCH   6  16
ATOM     16  C   UNL     1      -1.417  10.981  19.331  0.00  0.00    +0.000 A 
ATOM     17  C   UNL     1      -2.156  12.004  19.940  0.00  0.00    +0.000 A 
ATOM     18  C   UNL     1      -3.418  12.339  19.458  0.00  0.00    +0.000 A 
ATOM     19  C   UNL     1      -3.916  11.630  18.381  0.00  0.00    +0.000 A 
ATOM     20  N   UNL     1      -3.256  10.617  17.788  0.00  0.00    +0.000 NA
ATOM     21  C   UNL     1      -2.032  10.313  18.273  0.00  0.00    +0.000 A 
ENDBRANCH   6  16
BRANCH   5  22
ATOM     22  C   UNL     1      -0.291   9.912  22.310  0.00  0.00    +0.000 C 
ATOM     23  O   UNL     1       0.049  10.999  22.749  0.00  0.00    +0.000 OA
BRANCH  22  24
ATOM     24  O   UNL     1      -0.832   8.958  23.101  0.00  0.00    +0.000 OA
ATOM     25  H   UNL     1      -1.702   8.622  22.812  0.00  0.00    +0.000 HD
ENDBRANCH  22  24
ENDBRANCH   5  22
TORSDOF 4
ENDMDL
MODEL 6
REMARK VINA RESULT:      -7.0      1.061      1.132
REMARK  Name = 
REMARK  6 active torsions:
REMARK  status: ('A' for Active; 'I' for Inactive)
REMARK    1  A    between atoms: C_1  and  C_2
REMARK    2  A    between atoms: C_5  and  C_6
REMARK    3  A    between atoms: C_10  and  C_11
REMARK    4  A    between atoms: C_11  and  O_13
REMARK    5  A    between atoms: C_14  and  C_15
REMARK    6  A    between atoms: N_23  and  C_24
REMARK                            x       y       z     vdW  Elec       q    Type
REMARK                         _______ _______ _______ _____ _____    ______ ____
ROOT
ATOM      1  C   UNL     1       2.347   7.992  18.256  0.00  0.00    +0.000 C 
ATOM      2  O   UNL     1       2.511   8.470  17.132  0.00  0.00    +0.000 OA
ATOM      3  N   UNL     1       1.748   8.751  19.261  0.00  0.00    +0.000 N 
ATOM      4  C   UNL     1       1.501   8.385  20.641  0.00  0.00    +0.000 C 
ATOM      5  C   UNL     1       0.257   9.169  21.000  0.00  0.00    +0.000 C 
ATOM      6  C   UNL     1       0.393  10.482  20.198  0.00  0.00    +0.000 C 
ATOM      7  C   UNL     1       1.328  10.120  19.021  0.00  0.00    +0.000 C 
ENDROOT
BRANCH   1  12
ATOM      8  C   UNL     1       4.583   3.402  18.432  0.00  0.00    +0.000 C 
ATOM      9  C   UNL     1       3.721   4.598  18.592  0.00  0.00    +0.000 A 
ATOM     10  C   UNL     1       3.913   5.922  18.251  0.00  0.00    +0.000 A 
ATOM     11 CL   UNL     1       5.288   6.590  17.507  0.00  0.00    +0.000 Cl
ATOM     12  C   UNL     1       2.692   6.587  18.555  0.00  0.00    +0.000 A 
ATOM     13  N   UNL     1       1.832   5.730  19.142  0.00  0.00    +0.000 NA
ATOM     14  N   UNL     1       2.460   4.545  19.120  0.00  0.00    +0.000 N 
ATOM     15  C   UNL     1       1.741   3.366  19.549  0.00  0.00    +0.000 C 
ENDBRANCH   1  12
BRANCH   6  16
ATOM     16  C   UNL     1      -0.967  11.037  19.832  0.00  0.00    +0.000 A 
ATOM     17  C   UNL     1      -1.589  10.616  18.649  0.00  0.00    +0.000 A 
ATOM     18  C   UNL     1      -2.842  11.113  18.300  0.00  0.00    +0.000 A 
ATOM     19  C   UNL     1      -3.437  12.034  19.142  0.00  0.00    +0.000 A 
ATOM     20  N   UNL     1      -2.860  12.494  20.269  0.00  0.00    +0.000 NA
ATOM     21  C   UNL     1      -1.646  11.993  20.586  0.00  0.00    +0.000 A 
ENDBRANCH   6  16
BRANCH   5  22
ATOM     22  C   UNL     1       0.211   9.361  22.494  0.00  0.00    +0.000 C 
ATOM     23  O   UNL     1       1.140   9.770  23.173  0.00  0.00    +0.000 OA
BRANCH  22  24
ATOM     24  O   UNL     1      -0.970   8.996  23.042  0.00  0.00    +0.000 OA
ATOM     25  H   UNL     1      -0.914   8.302  23.727  0.00  0.00    +0.000 HD
ENDBRANCH  22  24
ENDBRANCH   5  22
TORSDOF 4
ENDMDL
MODEL 7
REMARK VINA RESULT:      -7.0      3.112      7.346
REMARK  Name = 
REMARK  6 active torsions:
REMARK  status: ('A' for Active; 'I' for Inactive)
REMARK    1  A    between atoms: C_1  and  C_2
REMARK    2  A    between atoms: C_5  and  C_6
REMARK    3  A    between atoms: C_10  and  C_11
REMARK    4  A    between atoms: C_11  and  O_13
REMARK    5  A    between atoms: C_14  and  C_15
REMARK    6  A    between atoms: N_23  and  C_24
REMARK                            x       y       z     vdW  Elec       q    Type
REMARK                         _______ _______ _______ _____ _____    ______ ____
ROOT
ATOM      1  C   UNL     1       1.902   8.626  18.629  0.00  0.00    +0.000 C 
ATOM      2  O   UNL     1       2.278   9.343  17.699  0.00  0.00    +0.000 OA
ATOM      3  N   UNL     1       2.293   7.289  18.685  0.00  0.00    +0.000 N 
ATOM      4  C   UNL     1       1.933   6.285  19.666  0.00  0.00    +0.000 C 
ATOM      5  C   UNL     1       3.135   5.365  19.693  0.00  0.00    +0.000 C 
ATOM      6  C   UNL     1       3.649   5.373  18.236  0.00  0.00    +0.000 C 
ATOM      7  C   UNL     1       3.124   6.703  17.649  0.00  0.00    +0.000 C 
ENDROOT
BRANCH   1  12
ATOM      8  C   UNL     1      -1.145  11.474  21.579  0.00  0.00    +0.000 C 
ATOM      9  C   UNL     1      -0.239  10.457  20.990  0.00  0.00    +0.000 A 
ATOM     10  C   UNL     1       0.127  10.199  19.685  0.00  0.00    +0.000 A 
ATOM     11 CL   UNL     1      -0.399  11.029  18.299  0.00  0.00    +0.000 Cl
ATOM     12  C   UNL     1       1.108   9.168  19.749  0.00  0.00    +0.000 A 
ATOM     13  N   UNL     1       1.259   8.753  21.024  0.00  0.00    +0.000 NA
ATOM     14  N   UNL     1       0.469   9.562  21.745  0.00  0.00    +0.000 N 
ATOM     15  C   UNL     1       0.513   9.476  23.187  0.00  0.00    +0.000 C 
ENDBRANCH   1  12
BRANCH   6  16
ATOM     16  C   UNL     1       5.147   5.160  18.188  0.00  0.00    +0.000 A 
ATOM     17  C   UNL     1       5.748   4.746  16.991  0.00  0.00    +0.000 A 
ATOM     18  C   UNL     1       7.125   4.551  16.929  0.00  0.00    +0.000 A 
ATOM     19  C   UNL     1       7.867   4.764  18.076  0.00  0.00    +0.000 A 
ATOM     20  N   UNL     1       7.329   5.127  19.255  0.00  0.00    +0.000 NA
ATOM     21  C   UNL     1       5.990   5.312  19.288  0.00  0.00    +0.000 A 
ENDBRANCH   6  16
BRANCH   5  22
ATOM     22  C   UNL     1       2.706   4.009  20.188  0.00  0.00    +0.000 C 
ATOM     23  O   UNL     1       2.653   3.001  19.501  0.00  0.00    +0.000 OA
BRANCH  22  24
ATOM     24  O   UNL     1       2.336   4.009  21.488  0.00  0.00    +0.000 OA
ATOM     25  H   UNL     1       2.688   4.747  22.021  0.00  0.00    +0.000 HD
ENDBRANCH  22  24
ENDBRANCH   5  22
TORSDOF 4
ENDMDL
MODEL 8
REMARK VINA RESULT:      -6.9      2.236      7.404
REMARK  Name = 
REMARK  6 active torsions:
REMARK  status: ('A' for Active; 'I' for Inactive)
REMARK    1  A    between atoms: C_1  and  C_2
REMARK    2  A    between atoms: C_5  and  C_6
REMARK    3  A    between atoms: C_10  and  C_11
REMARK    4  A    between atoms: C_11  and  O_13
REMARK    5  A    between atoms: C_14  and  C_15
REMARK    6  A    between atoms: N_23  and  C_24
REMARK                            x       y       z     vdW  Elec       q    Type
REMARK                         _______ _______ _______ _____ _____    ______ ____
ROOT
ATOM      1  C   UNL     1       0.271   9.246  20.573  0.00  0.00    +0.000 C 
ATOM      2  O   UNL     1      -0.295   9.049  21.650  0.00  0.00    +0.000 OA
ATOM      3  N   UNL     1       1.264   8.372  20.133  0.00  0.00    +0.000 N 
ATOM      4  C   UNL     1       2.062   8.450  18.926  0.00  0.00    +0.000 C 
ATOM      5  C   UNL     1       2.355   7.001  18.598  0.00  0.00    +0.000 C 
ATOM      6  C   UNL     1       2.476   6.318  19.978  0.00  0.00    +0.000 C 
ATOM      7  C   UNL     1       1.671   7.231  20.932  0.00  0.00    +0.000 C 
ENDROOT
BRANCH   1  12
ATOM      8  C   UNL     1      -0.452  13.818  18.411  0.00  0.00    +0.000 C 
ATOM      9  C   UNL     1      -0.414  12.382  18.780  0.00  0.00    +0.000 A 
ATOM     10  C   UNL     1       0.350  11.689  19.698  0.00  0.00    +0.000 A 
ATOM     11 CL   UNL     1       1.541  12.335  20.723  0.00  0.00    +0.000 Cl
ATOM     12  C   UNL     1      -0.134  10.350  19.680  0.00  0.00    +0.000 A 
ATOM     13  N   UNL     1      -1.080  10.213  18.728  0.00  0.00    +0.000 NA
ATOM     14  N   UNL     1      -1.250  11.447  18.232  0.00  0.00    +0.000 N 
ATOM     15  C   UNL     1      -2.313  11.677  17.280  0.00  0.00    +0.000 C 
ENDBRANCH   1  12
BRANCH   6  16
ATOM     16  C   UNL     1       2.043   4.870  19.907  0.00  0.00    +0.000 A 
ATOM     17  C   UNL     1       1.988   4.107  21.081  0.00  0.00    +0.000 A 
ATOM     18  C   UNL     1       1.586   2.775  21.033  0.00  0.00    +0.000 A 
ATOM     19  C   UNL     1       1.260   2.234  19.803  0.00  0.00    +0.000 A 
ATOM     20  N   UNL     1       1.333   2.919  18.646  0.00  0.00    +0.000 NA
ATOM     21  C   UNL     1       1.723   4.211  18.720  0.00  0.00    +0.000 A 
ENDBRANCH   6  16
BRANCH   5  22
ATOM     22  C   UNL     1       3.606   6.929  17.763  0.00  0.00    +0.000 C 
ATOM     23  O   UNL     1       4.570   6.221  18.010  0.00  0.00    +0.000 OA
BRANCH  22  24
ATOM     24  O   UNL     1       3.589   7.770  16.704  0.00  0.00    +0.000 OA
ATOM     25  H   UNL     1       3.296   8.680  16.900  0.00  0.00    +0.000 HD
ENDBRANCH  22  24
ENDBRANCH   5  22
TORSDOF 4
ENDMDL
MODEL 9
REMARK VINA RESULT:      -6.8      3.218      7.397
REMARK  Name = 
REMARK  6 active torsions:
REMARK  status: ('A' for Active; 'I' for Inactive)
REMARK    1  A    between atoms: C_1  and  C_2
REMARK    2  A    between atoms: C_5  and  C_6
REMARK    3  A    between atoms: C_10  and  C_11
REMARK    4  A    between atoms: C_11  and  O_13
REMARK    5  A    between atoms: C_14  and  C_15
REMARK    6  A    between atoms: N_23  and  C_24
REMARK                            x       y       z     vdW  Elec       q    Type
REMARK                         _______ _______ _______ _____ _____    ______ ____
ROOT
ATOM      1  C   UNL     1       1.850   9.736  18.005  0.00  0.00    +0.000 C 
ATOM      2  O   UNL     1       2.417  10.382  17.121  0.00  0.00    +0.000 OA
ATOM      3  N   UNL     1       2.178   8.397  18.215  0.00  0.00    +0.000 N 
ATOM      4  C   UNL     1       1.608   7.469  19.170  0.00  0.00    +0.000 C 
ATOM      5  C   UNL     1       2.752   6.527  19.478  0.00  0.00    +0.000 C 
ATOM      6  C   UNL     1       3.528   6.426  18.147  0.00  0.00    +0.000 C 
ATOM      7  C   UNL     1       3.167   7.726  17.391  0.00  0.00    +0.000 C 
ENDROOT
BRANCH   1  12
ATOM      8  C   UNL     1      -2.320  11.847  20.067  0.00  0.00    +0.000 C 
ATOM      9  C   UNL     1      -0.981  11.283  19.768  0.00  0.00    +0.000 A 
ATOM     10  C   UNL     1      -0.522  10.515  18.717  0.00  0.00    +0.000 A 
ATOM     11 CL   UNL     1      -1.428   9.960  17.391  0.00  0.00    +0.000 Cl
ATOM     12  C   UNL     1       0.880  10.369  18.921  0.00  0.00    +0.000 A 
ATOM     13  N   UNL     1       1.239  10.940  20.090  0.00  0.00    +0.000 NA
ATOM     14  N   UNL     1       0.116  11.505  20.555  0.00  0.00    +0.000 N 
ATOM     15  C   UNL     1       0.190  12.335  21.737  0.00  0.00    +0.000 C 
ENDBRANCH   1  12
BRANCH   6  16
ATOM     16  C   UNL     1       5.000   6.178  18.394  0.00  0.00    +0.000 A 
ATOM     17  C   UNL     1       5.952   6.772  17.555  0.00  0.00    +0.000 A 
ATOM     18  C   UNL     1       7.310   6.558  17.772  0.00  0.00    +0.000 A 
ATOM     19  C   UNL     1       7.683   5.739  18.822  0.00  0.00    +0.000 A 
ATOM     20  N   UNL     1       6.803   5.120  19.631  0.00  0.00    +0.000 NA
ATOM     21  C   UNL     1       5.491   5.347  19.401  0.00  0.00    +0.000 A 
ENDBRANCH   6  16
BRANCH   5  22
ATOM     22  C   UNL     1       2.192   5.216  19.965  0.00  0.00    +0.000 C 
ATOM     23  O   UNL     1       1.577   4.420  19.272  0.00  0.00    +0.000 OA
BRANCH  22  24
ATOM     24  O   UNL     1       2.399   5.005  21.284  0.00  0.00    +0.000 OA
ATOM     25  H   UNL     1       2.958   4.234  21.500  0.00  0.00    +0.000 HD
ENDBRANCH  22  24
ENDBRANCH   5  22
TORSDOF 4
ENDMDL
