MODEL 1
REMARK VINA RESULT:      -7.6      0.000      0.000
REMARK  Name = 
REMARK  7 active torsions:
REMARK  status: ('A' for Active; 'I' for Inactive)
REMARK    1  A    between atoms: C_1  and  C_2
REMARK    2  A    between atoms: C_2  and  C_4
REMARK    3  A    between atoms: C_5  and  O_6
REMARK    4  A    between atoms: C_8  and  O_9
REMARK    5  A    between atoms: C_8  and  N_10
REMARK    6  A    between atoms: N_10  and  C_11
REMARK    7  A    between atoms: C_15  and  N_16
REMARK                            x       y       z     vdW  Elec       q    Type
REMARK                         _______ _______ _______ _____ _____    ______ ____
ROOT
ATOM      1  C   UNL     1       1.979   3.965  19.212  0.00  0.00    +0.000 C 
ATOM      2  C   UNL     1       2.777   3.629  18.184  0.00  0.00    +0.000 C 
ATOM      3  C   UNL     1       3.668   4.608  17.595  0.00  0.00    +0.000 C 
ATOM      4  C   UNL     1       4.745   4.311  16.821  0.00  0.00    +0.000 C 
ATOM      5  C   UNL     1       3.336   6.031  17.877  0.00  0.00    +0.000 C 
ATOM      6  O   UNL     1       3.573   6.954  17.108  0.00  0.00    +0.000 OA
ATOM      7  O   UNL     1       2.711   6.279  19.051  0.00  0.00    +0.000 OA
ATOM      8  C   UNL     1       2.087   5.321  19.765  0.00  0.00    +0.000 C 
ATOM      9  O   UNL     1       1.603   5.580  20.860  0.00  0.00    +0.000 OA
ENDROOT
BRANCH   1  11
ATOM     10  C   UNL     1       1.220   2.549  21.247  0.00  0.00    +0.000 C 
ATOM     11  C   UNL     1       1.085   2.924  19.795  0.00  0.00    +0.000 C 
ATOM     12  O   UNL     1       0.182   2.448  19.099  0.00  0.00    +0.000 OA
ENDBRANCH   1  11
BRANCH   2  13
ATOM     13  O   UNL     1       2.852   2.351  17.643  0.00  0.00    +0.000 OA
ATOM     14  H   UNL     1       2.954   2.429  16.662  0.00  0.00    +0.000 HD
ENDBRANCH   2  13
BRANCH   4  15
ATOM     15  O   UNL     1       4.970   3.029  16.353  0.00  0.00    +0.000 OA
ATOM     16  H   UNL     1       4.101   2.589  16.259  0.00  0.00    +0.000 HD
ENDBRANCH   4  15
BRANCH   4  17
ATOM     17  N   UNL     1       5.736   5.160  16.387  0.00  0.00    +0.000 N 
ATOM     18  H   UNL     1       6.201   4.767  15.570  0.00  0.00    +0.000 HD
BRANCH  17  19
ATOM     19  C   UNL     1       6.687   5.806  17.221  0.00  0.00    +0.000 A 
ATOM     20  C   UNL     1       7.017   7.140  16.947  0.00  0.00    +0.000 A 
ATOM     21  C   UNL     1       7.896   7.842  17.774  0.00  0.00    +0.000 A 
ATOM     22  C   UNL     1       8.419   7.232  18.915  0.00  0.00    +0.000 A 
ATOM     23  C   UNL     1       8.051   5.931  19.252  0.00  0.00    +0.000 A 
ATOM     24  C   UNL     1       7.252   5.208  18.360  0.00  0.00    +0.000 A 
BRANCH  23  25
ATOM     25  N   UNL     1       8.643   5.284  20.346  0.00  0.00    +0.000 N 
ATOM     26  H   UNL     1       8.443   5.743  21.230  0.00  0.00    +0.000 HD
ATOM     27  H   UNL     1       8.431   4.293  20.389  0.00  0.00    +0.000 HD
ENDBRANCH  23  25
ENDBRANCH  17  19
ENDBRANCH   4  17
TORSDOF 6
ENDMDL
MODEL 2
REMARK VINA RESULT:      -7.5      2.946      4.460
REMARK  Name = 
REMARK  7 active torsions:
REMARK  status: ('A' for Active; 'I' for Inactive)
REMARK    1  A    between atoms: C_1  and  C_2
REMARK    2  A    between atoms: C_2  and  C_4
REMARK    3  A    between atoms: C_5  and  O_6
REMARK    4  A    between atoms: C_8  and  O_9
REMARK    5  A    between atoms: C_8  and  N_10
REMARK    6  A    between atoms: N_10  and  C_11
REMARK    7  A    between atoms: C_15  and  N_16
REMARK                            x       y       z     vdW  Elec       q    Type
REMARK                         _______ _______ _______ _____ _____    ______ ____
ROOT
ATOM      1  C   UNL     1       3.517   4.801  19.158  0.00  0.00    +0.000 C 
ATOM      2  C   UNL     1       4.017   5.589  18.189  0.00  0.00    +0.000 C 
ATOM      3  C   UNL     1       5.317   5.311  17.614  0.00  0.00    +0.000 C 
ATOM      4  C   UNL     1       5.758   5.796  16.423  0.00  0.00    +0.000 C 
ATOM      5  C   UNL     1       6.205   4.433  18.423  0.00  0.00    +0.000 C 
ATOM      6  O   UNL     1       7.426   4.509  18.424  0.00  0.00    +0.000 OA
ATOM      7  O   UNL     1       5.588   3.526  19.216  0.00  0.00    +0.000 OA
ATOM      8  C   UNL     1       4.289   3.618  19.562  0.00  0.00    +0.000 C 
ATOM      9  O   UNL     1       3.756   2.731  20.217  0.00  0.00    +0.000 OA
ENDROOT
BRANCH   1  11
ATOM     10  C   UNL     1       1.077   4.085  19.659  0.00  0.00    +0.000 C 
ATOM     11  C   UNL     1       2.171   5.117  19.716  0.00  0.00    +0.000 C 
ATOM     12  O   UNL     1       2.000   6.192  20.301  0.00  0.00    +0.000 OA
ENDBRANCH   1  11
BRANCH   2  13
ATOM     13  O   UNL     1       3.339   6.671  17.642  0.00  0.00    +0.000 OA
ATOM     14  H   UNL     1       3.961   7.438  17.587  0.00  0.00    +0.000 HD
ENDBRANCH   2  13
BRANCH   4  15
ATOM     15  O   UNL     1       5.067   6.781  15.741  0.00  0.00    +0.000 OA
ATOM     16  H   UNL     1       4.169   6.838  16.127  0.00  0.00    +0.000 HD
ENDBRANCH   4  15
BRANCH   4  17
ATOM     17  N   UNL     1       6.887   5.433  15.727  0.00  0.00    +0.000 N 
ATOM     18  H   UNL     1       7.636   6.102  15.900  0.00  0.00    +0.000 HD
BRANCH  17  19
ATOM     19  C   UNL     1       6.916   5.014  14.370  0.00  0.00    +0.000 A 
ATOM     20  C   UNL     1       7.804   5.651  13.494  0.00  0.00    +0.000 A 
ATOM     21  C   UNL     1       7.918   5.234  12.167  0.00  0.00    +0.000 A 
ATOM     22  C   UNL     1       7.181   4.139  11.712  0.00  0.00    +0.000 A 
ATOM     23  C   UNL     1       6.345   3.441  12.581  0.00  0.00    +0.000 A 
ATOM     24  C   UNL     1       6.164   3.934  13.877  0.00  0.00    +0.000 A 
BRANCH  23  25
ATOM     25  N   UNL     1       5.535   2.399  12.107  0.00  0.00    +0.000 N 
ATOM     26  H   UNL     1       5.993   1.493  12.151  0.00  0.00    +0.000 HD
ATOM     27  H   UNL     1       4.620   2.371  12.544  0.00  0.00    +0.000 HD
ENDBRANCH  23  25
ENDBRANCH  17  19
ENDBRANCH   4  17
TORSDOF 6
ENDMDL
MODEL 3
REMARK VINA RESULT:      -7.3      4.181      6.290
REMARK  Name = 
REMARK  7 active torsions:
REMARK  status: ('A' for Active; 'I' for Inactive)
REMARK    1  A    between atoms: C_1  and  C_2
REMARK    2  A    between atoms: C_2  and  C_4
REMARK    3  A    between atoms: C_5  and  O_6
REMARK    4  A    between atoms: C_8  and  O_9
REMARK    5  A    between atoms: C_8  and  N_10
REMARK    6  A    between atoms: N_10  and  C_11
REMARK    7  A    between atoms: C_15  and  N_16
REMARK                            x       y       z     vdW  Elec       q    Type
REMARK                         _______ _______ _______ _____ _____    ______ ____
ROOT
ATOM      1  C   UNL     1       0.530  10.725  20.177  0.00  0.00    +0.000 C 
ATOM      2  C   UNL     1       0.706   9.407  20.376  0.00  0.00    +0.000 C 
ATOM      3  C   UNL     1       1.587   8.645  19.514  0.00  0.00    +0.000 C 
ATOM      4  C   UNL     1       2.112   7.430  19.821  0.00  0.00    +0.000 C 
ATOM      5  C   UNL     1       1.907   9.274  18.204  0.00  0.00    +0.000 C 
ATOM      6  O   UNL     1       2.139   8.643  17.181  0.00  0.00    +0.000 OA
ATOM      7  O   UNL     1       1.903  10.627  18.172  0.00  0.00    +0.000 OA
ATOM      8  C   UNL     1       1.305  11.381  19.116  0.00  0.00    +0.000 C 
ATOM      9  O   UNL     1       1.396  12.601  19.085  0.00  0.00    +0.000 OA
ENDROOT
BRANCH   1  11
ATOM     10  C   UNL     1      -1.674  12.034  20.568  0.00  0.00    +0.000 C 
ATOM     11  C   UNL     1      -0.379  11.473  21.093  0.00  0.00    +0.000 C 
ATOM     12  O   UNL     1      -0.098  11.544  22.294  0.00  0.00    +0.000 OA
ENDBRANCH   1  11
BRANCH   2  13
ATOM     13  O   UNL     1       0.118   8.692  21.412  0.00  0.00    +0.000 OA
ATOM     14  H   UNL     1      -0.323   7.892  21.033  0.00  0.00    +0.000 HD
ENDBRANCH   2  13
BRANCH   4  15
ATOM     15  O   UNL     1       1.679   6.710  20.919  0.00  0.00    +0.000 OA
ATOM     16  H   UNL     1       1.921   5.772  20.776  0.00  0.00    +0.000 HD
ENDBRANCH   4  15
BRANCH   4  17
ATOM     17  N   UNL     1       3.093   6.738  19.151  0.00  0.00    +0.000 N 
ATOM     18  H   UNL     1       3.379   7.252  18.319  0.00  0.00    +0.000 HD
BRANCH  17  19
ATOM     19  C   UNL     1       3.074   5.344  18.875  0.00  0.00    +0.000 A 
ATOM     20  C   UNL     1       2.165   4.865  17.924  0.00  0.00    +0.000 A 
ATOM     21  C   UNL     1       2.150   3.515  17.569  0.00  0.00    +0.000 A 
ATOM     22  C   UNL     1       3.080   2.635  18.127  0.00  0.00    +0.000 A 
ATOM     23  C   UNL     1       4.042   3.099  19.021  0.00  0.00    +0.000 A 
ATOM     24  C   UNL     1       3.978   4.431  19.443  0.00  0.00    +0.000 A 
BRANCH  23  25
ATOM     25  N   UNL     1       4.919   2.204  19.652  0.00  0.00    +0.000 N 
ATOM     26  H   UNL     1       4.829   1.254  19.303  0.00  0.00    +0.000 HD
ATOM     27  H   UNL     1       5.886   2.513  19.639  0.00  0.00    +0.000 HD
ENDBRANCH  23  25
ENDBRANCH  17  19
ENDBRANCH   4  17
TORSDOF 6
ENDMDL
MODEL 4
REMARK VINA RESULT:      -7.0      1.068      1.481
REMARK  Name = 
REMARK  7 active torsions:
REMARK  status: ('A' for Active; 'I' for Inactive)
REMARK    1  A    between atoms: C_1  and  C_2
REMARK    2  A    between atoms: C_2  and  C_4
REMARK    3  A    between atoms: C_5  and  O_6
REMARK    4  A    between atoms: C_8  and  O_9
REMARK    5  A    between atoms: C_8  and  N_10
REMARK    6  A    between atoms: N_10  and  C_11
REMARK    7  A    between atoms: C_15  and  N_16
REMARK                            x       y       z     vdW  Elec       q    Type
REMARK                         _______ _______ _______ _____ _____    ______ ____
ROOT
ATOM      1  C   UNL     1       1.976   4.023  19.269  0.00  0.00    +0.000 C 
ATOM      2  C   UNL     1       2.812   3.710  18.263  0.00  0.00    +0.000 C 
ATOM      3  C   UNL     1       3.673   4.719  17.682  0.00  0.00    +0.000 C 
ATOM      4  C   UNL     1       4.780   4.459  16.937  0.00  0.00    +0.000 C 
ATOM      5  C   UNL     1       3.275   6.130  17.938  0.00  0.00    +0.000 C 
ATOM      6  O   UNL     1       3.490   7.053  17.163  0.00  0.00    +0.000 OA
ATOM      7  O   UNL     1       2.612   6.365  19.094  0.00  0.00    +0.000 OA
ATOM      8  C   UNL     1       2.013   5.390  19.806  0.00  0.00    +0.000 C 
ATOM      9  O   UNL     1       1.493   5.640  20.886  0.00  0.00    +0.000 OA
ENDROOT
BRANCH   1  11
ATOM     10  C   UNL     1       1.285   2.547  21.284  0.00  0.00    +0.000 C 
ATOM     11  C   UNL     1       1.113   2.952  19.845  0.00  0.00    +0.000 C 
ATOM     12  O   UNL     1       0.206   2.475  19.155  0.00  0.00    +0.000 OA
ENDBRANCH   1  11
BRANCH   2  13
ATOM     13  O   UNL     1       2.953   2.430  17.741  0.00  0.00    +0.000 OA
ATOM     14  H   UNL     1       3.159   2.504  16.776  0.00  0.00    +0.000 HD
ENDBRANCH   2  13
BRANCH   4  15
ATOM     15  O   UNL     1       5.070   3.183  16.490  0.00  0.00    +0.000 OA
ATOM     16  H   UNL     1       5.967   2.952  16.807  0.00  0.00    +0.000 HD
ENDBRANCH   4  15
BRANCH   4  17
ATOM     17  N   UNL     1       5.744   5.344  16.515  0.00  0.00    +0.000 N 
ATOM     18  H   UNL     1       6.269   4.946  15.738  0.00  0.00    +0.000 HD
BRANCH  17  19
ATOM     19  C   UNL     1       6.616   6.076  17.364  0.00  0.00    +0.000 A 
ATOM     20  C   UNL     1       7.261   5.396  18.404  0.00  0.00    +0.000 A 
ATOM     21  C   UNL     1       8.177   6.054  19.226  0.00  0.00    +0.000 A 
ATOM     22  C   UNL     1       8.497   7.391  18.987  0.00  0.00    +0.000 A 
ATOM     23  C   UNL     1       7.926   8.072  17.914  0.00  0.00    +0.000 A 
ATOM     24  C   UNL     1       6.934   7.430  17.164  0.00  0.00    +0.000 A 
BRANCH  23  25
ATOM     25  N   UNL     1       8.174   9.439  17.724  0.00  0.00    +0.000 N 
ATOM     26  H   UNL     1       9.163   9.648  17.616  0.00  0.00    +0.000 HD
ATOM     27  H   UNL     1       7.627   9.846  16.974  0.00  0.00    +0.000 HD
ENDBRANCH  23  25
ENDBRANCH  17  19
ENDBRANCH   4  17
TORSDOF 6
ENDMDL
MODEL 5
REMARK VINA RESULT:      -6.9      4.725      6.992
REMARK  Name = 
REMARK  7 active torsions:
REMARK  status: ('A' for Active; 'I' for Inactive)
REMARK    1  A    between atoms: C_1  and  C_2
REMARK    2  A    between atoms: C_2  and  C_4
REMARK    3  A    between atoms: C_5  and  O_6
REMARK    4  A    between atoms: C_8  and  O_9
REMARK    5  A    between atoms: C_8  and  N_10
REMARK    6  A    between atoms: N_10  and  C_11
REMARK    7  A    between atoms: C_15  and  N_16
REMARK                            x       y       z     vdW  Elec       q    Type
REMARK                         _______ _______ _______ _____ _____    ______ ____
ROOT
ATOM      1  C   UNL     1      -0.296  11.076  19.538  0.00  0.00    +0.000 C 
ATOM      2  C   UNL     1       0.591  10.131  19.180  0.00  0.00    +0.000 C 
ATOM      3  C   UNL     1       1.115   9.205  20.164  0.00  0.00    +0.000 C 
ATOM      4  C   UNL     1       1.715   8.022  19.873  0.00  0.00    +0.000 C 
ATOM      5  C   UNL     1       0.972   9.626  21.584  0.00  0.00    +0.000 C 
ATOM      6  O   UNL     1       1.758   9.321  22.471  0.00  0.00    +0.000 OA
ATOM      7  O   UNL     1      -0.088  10.417  21.870  0.00  0.00    +0.000 OA
ATOM      8  C   UNL     1      -0.771  11.097  20.928  0.00  0.00    +0.000 C 
ATOM      9  O   UNL     1      -1.771  11.737  21.226  0.00  0.00    +0.000 OA
ENDROOT
BRANCH   1  11
ATOM     10  C   UNL     1      -0.285  13.408  18.405  0.00  0.00    +0.000 C 
ATOM     11  C   UNL     1      -0.818  12.003  18.492  0.00  0.00    +0.000 C 
ATOM     12  O   UNL     1      -1.616  11.574  17.652  0.00  0.00    +0.000 OA
ENDBRANCH   1  11
BRANCH   2  13
ATOM     13  O   UNL     1       1.034   9.935  17.879  0.00  0.00    +0.000 OA
ATOM     14  H   UNL     1       1.610  10.697  17.623  0.00  0.00    +0.000 HD
ENDBRANCH   2  13
BRANCH   4  15
ATOM     15  O   UNL     1       2.066   7.686  18.577  0.00  0.00    +0.000 OA
ATOM     16  H   UNL     1       2.609   6.872  18.616  0.00  0.00    +0.000 HD
ENDBRANCH   4  15
BRANCH   4  17
ATOM     17  N   UNL     1       2.064   7.012  20.739  0.00  0.00    +0.000 N 
ATOM     18  H   UNL     1       2.848   7.304  21.319  0.00  0.00    +0.000 HD
BRANCH  17  19
ATOM     19  C   UNL     1       2.200   5.642  20.393  0.00  0.00    +0.000 A 
ATOM     20  C   UNL     1       1.061   4.828  20.429  0.00  0.00    +0.000 A 
ATOM     21  C   UNL     1       1.127   3.490  20.036  0.00  0.00    +0.000 A 
ATOM     22  C   UNL     1       2.326   2.962  19.553  0.00  0.00    +0.000 A 
ATOM     23  C   UNL     1       3.456   3.769  19.437  0.00  0.00    +0.000 A 
ATOM     24  C   UNL     1       3.400   5.076  19.931  0.00  0.00    +0.000 A 
BRANCH  23  25
ATOM     25  N   UNL     1       4.684   3.221  19.039  0.00  0.00    +0.000 N 
ATOM     26  H   UNL     1       5.137   3.761  18.306  0.00  0.00    +0.000 HD
ATOM     27  H   UNL     1       5.316   3.047  19.813  0.00  0.00    +0.000 HD
ENDBRANCH  23  25
ENDBRANCH  17  19
ENDBRANCH   4  17
TORSDOF 6
ENDMDL
MODEL 6
REMARK VINA RESULT:      -6.7      2.350      3.845
REMARK  Name = 
REMARK  7 active torsions:
REMARK  status: ('A' for Active; 'I' for Inactive)
REMARK    1  A    between atoms: C_1  and  C_2
REMARK    2  A    between atoms: C_2  and  C_4
REMARK    3  A    between atoms: C_5  and  O_6
REMARK    4  A    between atoms: C_8  and  O_9
REMARK    5  A    between atoms: C_8  and  N_10
REMARK    6  A    between atoms: N_10  and  C_11
REMARK    7  A    between atoms: C_15  and  N_16
REMARK                            x       y       z     vdW  Elec       q    Type
REMARK                         _______ _______ _______ _____ _____    ______ ____
ROOT
ATOM      1  C   UNL     1       3.185   3.750  20.173  0.00  0.00    +0.000 C 
ATOM      2  C   UNL     1       3.228   4.944  19.556  0.00  0.00    +0.000 C 
ATOM      3  C   UNL     1       4.395   5.334  18.791  0.00  0.00    +0.000 C 
ATOM      4  C   UNL     1       4.416   6.321  17.857  0.00  0.00    +0.000 C 
ATOM      5  C   UNL     1       5.641   4.577  19.088  0.00  0.00    +0.000 C 
ATOM      6  O   UNL     1       6.767   5.050  18.997  0.00  0.00    +0.000 OA
ATOM      7  O   UNL     1       5.481   3.301  19.509  0.00  0.00    +0.000 OA
ATOM      8  C   UNL     1       4.315   2.830  19.991  0.00  0.00    +0.000 C 
ATOM      9  O   UNL     1       4.198   1.647  20.286  0.00  0.00    +0.000 OA
ENDROOT
BRANCH   1  11
ATOM     10  C   UNL     1       0.712   2.973  20.211  0.00  0.00    +0.000 C 
ATOM     11  C   UNL     1       1.961   3.385  20.943  0.00  0.00    +0.000 C 
ATOM     12  O   UNL     1       2.018   3.337  22.176  0.00  0.00    +0.000 OA
ENDBRANCH   1  11
BRANCH   2  13
ATOM     13  O   UNL     1       2.182   5.858  19.559  0.00  0.00    +0.000 OA
ATOM     14  H   UNL     1       2.338   6.518  18.839  0.00  0.00    +0.000 HD
ENDBRANCH   2  13
BRANCH   4  15
ATOM     15  O   UNL     1       3.353   7.192  17.698  0.00  0.00    +0.000 OA
ATOM     16  H   UNL     1       2.660   6.727  17.187  0.00  0.00    +0.000 HD
ENDBRANCH   4  15
BRANCH   4  17
ATOM     17  N   UNL     1       5.417   6.621  16.964  0.00  0.00    +0.000 N 
ATOM     18  H   UNL     1       5.317   7.580  16.634  0.00  0.00    +0.000 HD
BRANCH  17  19
ATOM     19  C   UNL     1       5.847   5.785  15.899  0.00  0.00    +0.000 A 
ATOM     20  C   UNL     1       5.020   4.725  15.508  0.00  0.00    +0.000 A 
ATOM     21  C   UNL     1       5.365   3.913  14.426  0.00  0.00    +0.000 A 
ATOM     22  C   UNL     1       6.518   4.184  13.688  0.00  0.00    +0.000 A 
ATOM     23  C   UNL     1       7.321   5.277  14.010  0.00  0.00    +0.000 A 
ATOM     24  C   UNL     1       7.018   6.017  15.158  0.00  0.00    +0.000 A 
BRANCH  23  25
ATOM     25  N   UNL     1       8.527   5.499  13.330  0.00  0.00    +0.000 N 
ATOM     26  H   UNL     1       9.027   6.315  13.672  0.00  0.00    +0.000 HD
ATOM     27  H   UNL     1       9.128   4.683  13.301  0.00  0.00    +0.000 HD
ENDBRANCH  23  25
ENDBRANCH  17  19
ENDBRANCH   4  17
TORSDOF 6
ENDMDL
MODEL 7
REMARK VINA RESULT:      -6.7      4.812      7.282
REMARK  Name = 
REMARK  7 active torsions:
REMARK  status: ('A' for Active; 'I' for Inactive)
REMARK    1  A    between atoms: C_1  and  C_2
REMARK    2  A    between atoms: C_2  and  C_4
REMARK    3  A    between atoms: C_5  and  O_6
REMARK    4  A    between atoms: C_8  and  O_9
REMARK    5  A    between atoms: C_8  and  N_10
REMARK    6  A    between atoms: N_10  and  C_11
REMARK    7  A    between atoms: C_15  and  N_16
REMARK                            x       y       z     vdW  Elec       q    Type
REMARK                         _______ _______ _______ _____ _____    ______ ____
ROOT
ATOM      1  C   UNL     1       0.835  11.572  19.952  0.00  0.00    +0.000 C 
ATOM      2  C   UNL     1       0.794  10.335  20.476  0.00  0.00    +0.000 C 
ATOM      3  C   UNL     1       1.429   9.226  19.794  0.00  0.00    +0.000 C 
ATOM      4  C   UNL     1       1.759   8.043  20.376  0.00  0.00    +0.000 C 
ATOM      5  C   UNL     1       1.716   9.439  18.349  0.00  0.00    +0.000 C 
ATOM      6  O   UNL     1       1.724   8.544  17.514  0.00  0.00    +0.000 OA
ATOM      7  O   UNL     1       1.950  10.716  17.967  0.00  0.00    +0.000 OA
ATOM      8  C   UNL     1       1.599  11.780  18.715  0.00  0.00    +0.000 C 
ATOM      9  O   UNL     1       1.903  12.913  18.363  0.00  0.00    +0.000 OA
ENDROOT
BRANCH   1  11
ATOM     10  C   UNL     1      -1.142  13.230  20.207  0.00  0.00    +0.000 C 
ATOM     11  C   UNL     1       0.176  12.687  20.692  0.00  0.00    +0.000 C 
ATOM     12  O   UNL     1       0.678  13.088  21.747  0.00  0.00    +0.000 OA
ENDBRANCH   1  11
BRANCH   2  13
ATOM     13  O   UNL     1       0.200  10.027  21.694  0.00  0.00    +0.000 OA
ATOM     14  H   UNL     1       0.903  10.002  22.390  0.00  0.00    +0.000 HD
ENDBRANCH   2  13
BRANCH   4  15
ATOM     15  O   UNL     1       1.323   7.714  21.647  0.00  0.00    +0.000 OA
ATOM     16  H   UNL     1       2.106   7.691  22.234  0.00  0.00    +0.000 HD
ENDBRANCH   4  15
BRANCH   4  17
ATOM     17  N   UNL     1       2.525   7.027  19.855  0.00  0.00    +0.000 N 
ATOM     18  H   UNL     1       3.066   7.367  19.062  0.00  0.00    +0.000 HD
BRANCH  17  19
ATOM     19  C   UNL     1       2.073   5.704  19.601  0.00  0.00    +0.000 A 
ATOM     20  C   UNL     1       2.077   5.240  18.279  0.00  0.00    +0.000 A 
ATOM     21  C   UNL     1       1.705   3.928  17.984  0.00  0.00    +0.000 A 
ATOM     22  C   UNL     1       1.372   3.046  19.013  0.00  0.00    +0.000 A 
ATOM     23  C   UNL     1       1.431   3.460  20.343  0.00  0.00    +0.000 A 
ATOM     24  C   UNL     1       1.705   4.804  20.615  0.00  0.00    +0.000 A 
BRANCH  23  25
ATOM     25  N   UNL     1       1.011   2.607  21.373  0.00  0.00    +0.000 N 
ATOM     26  H   UNL     1       0.335   3.043  21.995  0.00  0.00    +0.000 HD
ATOM     27  H   UNL     1       0.679   1.707  21.040  0.00  0.00    +0.000 HD
ENDBRANCH  23  25
ENDBRANCH  17  19
ENDBRANCH   4  17
TORSDOF 6
ENDMDL
MODEL 8
REMARK VINA RESULT:      -6.7      2.746      4.391
REMARK  Name = 
REMARK  7 active torsions:
REMARK  status: ('A' for Active; 'I' for Inactive)
REMARK    1  A    between atoms: C_1  and  C_2
REMARK    2  A    between atoms: C_2  and  C_4
REMARK    3  A    between atoms: C_5  and  O_6
REMARK    4  A    between atoms: C_8  and  O_9
REMARK    5  A    between atoms: C_8  and  N_10
REMARK    6  A    between atoms: N_10  and  C_11
REMARK    7  A    between atoms: C_15  and  N_16
REMARK                            x       y       z     vdW  Elec       q    Type
REMARK                         _______ _______ _______ _____ _____    ______ ____
ROOT
ATOM      1  C   UNL     1       2.564   6.643  19.412  0.00  0.00    +0.000 C 
ATOM      2  C   UNL     1       3.418   6.749  18.379  0.00  0.00    +0.000 C 
ATOM      3  C   UNL     1       4.185   5.601  17.939  0.00  0.00    +0.000 C 
ATOM      4  C   UNL     1       4.786   5.489  16.725  0.00  0.00    +0.000 C 
ATOM      5  C   UNL     1       4.305   4.492  18.923  0.00  0.00    +0.000 C 
ATOM      6  O   UNL     1       5.271   3.744  18.997  0.00  0.00    +0.000 OA
ATOM      7  O   UNL     1       3.277   4.349  19.792  0.00  0.00    +0.000 OA
ATOM      8  C   UNL     1       2.379   5.324  20.031  0.00  0.00    +0.000 C 
ATOM      9  O   UNL     1       1.422   5.119  20.767  0.00  0.00    +0.000 OA
ENDROOT
BRANCH   1  11
ATOM     10  C   UNL     1       1.602   8.150  21.289  0.00  0.00    +0.000 C 
ATOM     11  C   UNL     1       1.787   7.846  19.826  0.00  0.00    +0.000 C 
ATOM     12  O   UNL     1       1.382   8.629  18.960  0.00  0.00    +0.000 OA
ENDBRANCH   1  11
BRANCH   2  13
ATOM     13  O   UNL     1       3.601   7.910  17.639  0.00  0.00    +0.000 OA
ATOM     14  H   UNL     1       3.938   8.618  18.241  0.00  0.00    +0.000 HD
ENDBRANCH   2  13
BRANCH   4  15
ATOM     15  O   UNL     1       4.889   6.567  15.864  0.00  0.00    +0.000 OA
ATOM     16  H   UNL     1       5.807   6.902  15.914  0.00  0.00    +0.000 HD
ENDBRANCH   4  15
BRANCH   4  17
ATOM     17  N   UNL     1       5.363   4.373  16.166  0.00  0.00    +0.000 N 
ATOM     18  H   UNL     1       5.906   3.871  16.866  0.00  0.00    +0.000 HD
BRANCH  17  19
ATOM     19  C   UNL     1       6.032   4.334  14.914  0.00  0.00    +0.000 A 
ATOM     20  C   UNL     1       5.473   3.569  13.882  0.00  0.00    +0.000 A 
ATOM     21  C   UNL     1       6.056   3.548  12.614  0.00  0.00    +0.000 A 
ATOM     22  C   UNL     1       7.178   4.333  12.347  0.00  0.00    +0.000 A 
ATOM     23  C   UNL     1       7.712   5.160  13.334  0.00  0.00    +0.000 A 
ATOM     24  C   UNL     1       7.180   5.091  14.626  0.00  0.00    +0.000 A 
BRANCH  23  25
ATOM     25  N   UNL     1       8.892   5.880  13.098  0.00  0.00    +0.000 N 
ATOM     26  H   UNL     1       9.115   6.527  13.850  0.00  0.00    +0.000 HD
ATOM     27  H   UNL     1       9.685   5.289  12.872  0.00  0.00    +0.000 HD
ENDBRANCH  23  25
ENDBRANCH  17  19
ENDBRANCH   4  17
TORSDOF 6
ENDMDL
MODEL 9
REMARK VINA RESULT:      -6.7      2.216      3.234
REMARK  Name = 
REMARK  7 active torsions:
REMARK  status: ('A' for Active; 'I' for Inactive)
REMARK    1  A    between atoms: C_1  and  C_2
REMARK    2  A    between atoms: C_2  and  C_4
REMARK    3  A    between atoms: C_5  and  O_6
REMARK    4  A    between atoms: C_8  and  O_9
REMARK    5  A    between atoms: C_8  and  N_10
REMARK    6  A    between atoms: N_10  and  C_11
REMARK    7  A    between atoms: C_15  and  N_16
REMARK                            x       y       z     vdW  Elec       q    Type
REMARK                         _______ _______ _______ _____ _____    ______ ____
ROOT
ATOM      1  C   UNL     1       2.070   4.006  19.430  0.00  0.00    +0.000 C 
ATOM      2  C   UNL     1       2.842   3.489  18.458  0.00  0.00    +0.000 C 
ATOM      3  C   UNL     1       3.807   4.320  17.767  0.00  0.00    +0.000 C 
ATOM      4  C   UNL     1       4.860   3.851  17.046  0.00  0.00    +0.000 C 
ATOM      5  C   UNL     1       3.585   5.788  17.873  0.00  0.00    +0.000 C 
ATOM      6  O   UNL     1       3.893   6.591  17.002  0.00  0.00    +0.000 OA
ATOM      7  O   UNL     1       2.978   6.222  19.002  0.00  0.00    +0.000 OA
ATOM      8  C   UNL     1       2.280   5.407  19.818  0.00  0.00    +0.000 C 
ATOM      9  O   UNL     1       1.816   5.831  20.868  0.00  0.00    +0.000 OA
ENDROOT
BRANCH   1  11
ATOM     10  C   UNL     1       1.335   2.716  21.556  0.00  0.00    +0.000 C 
ATOM     11  C   UNL     1       1.097   3.113  20.123  0.00  0.00    +0.000 C 
ATOM     12  O   UNL     1       0.059   2.786  19.538  0.00  0.00    +0.000 OA
ENDBRANCH   1  11
BRANCH   2  13
ATOM     13  O   UNL     1       2.819   2.154  18.075  0.00  0.00    +0.000 OA
ATOM     14  H   UNL     1       1.903   1.805  18.203  0.00  0.00    +0.000 HD
ENDBRANCH   2  13
BRANCH   4  15
ATOM     15  O   UNL     1       4.986   2.509  16.737  0.00  0.00    +0.000 OA
ATOM     16  H   UNL     1       4.380   2.315  15.994  0.00  0.00    +0.000 HD
ENDBRANCH   4  15
BRANCH   4  17
ATOM     17  N   UNL     1       5.914   4.564  16.526  0.00  0.00    +0.000 N 
ATOM     18  H   UNL     1       5.866   5.534  16.831  0.00  0.00    +0.000 HD
BRANCH  17  19
ATOM     19  C   UNL     1       6.365   4.501  15.180  0.00  0.00    +0.000 A 
ATOM     20  C   UNL     1       5.628   3.738  14.265  0.00  0.00    +0.000 A 
ATOM     21  C   UNL     1       5.990   3.696  12.918  0.00  0.00    +0.000 A 
ATOM     22  C   UNL     1       7.066   4.458  12.459  0.00  0.00    +0.000 A 
ATOM     23  C   UNL     1       7.770   5.283  13.333  0.00  0.00    +0.000 A 
ATOM     24  C   UNL     1       7.460   5.235  14.696  0.00  0.00    +0.000 A 
BRANCH  23  25
ATOM     25  N   UNL     1       8.906   5.979  12.895  0.00  0.00    +0.000 N 
ATOM     26  H   UNL     1       9.701   5.369  12.724  0.00  0.00    +0.000 HD
ATOM     27  H   UNL     1       8.726   6.582  12.100  0.00  0.00    +0.000 HD
ENDBRANCH  23  25
ENDBRANCH  17  19
ENDBRANCH   4  17
TORSDOF 6
ENDMDL
