MODEL 1
REMARK VINA RESULT:      -6.9      0.000      0.000
REMARK  Name = 
REMARK  11 active torsions:
REMARK  status: ('A' for Active; 'I' for Inactive)
REMARK    1  A    between atoms: N_1  and  C_2
REMARK    2  A    between atoms: C_2  and  C_3
REMARK    3  A    between atoms: C_2  and  C_26
REMARK    4  A    between atoms: C_3  and  S_4
REMARK    5  A    between atoms: S_4  and  C_5
REMARK    6  A    between atoms: C_5  and  C_6
REMARK    7  A    between atoms: C_5  and  C_13
REMARK    8  A    between atoms: C_5  and  C_19
REMARK    9  A    between atoms: C_6  and  C_7
REMARK   10  A    between atoms: C_22  and  O_23
REMARK   11  A    between atoms: C_26  and  O_28
REMARK                            x       y       z     vdW  Elec       q    Type
REMARK                         _______ _______ _______ _____ _____    ______ ____
ROOT
ATOM      1  C   UNK     1       4.072   5.774  18.334  0.00  0.00    +0.000 C 
ENDROOT
BRANCH   1   2
ATOM      2  C   UNK     1       5.566   6.238  18.329  0.00  0.00    +0.000 A 
ATOM      3  C   UNK     1       6.540   5.695  19.194  0.00  0.00    +0.000 A 
ATOM      4  C   UNK     1       7.868   6.135  19.186  0.00  0.00    +0.000 A 
ATOM      5  C   UNK     1       8.263   7.158  18.335  0.00  0.00    +0.000 A 
ATOM      6  C   UNK     1       7.322   7.749  17.499  0.00  0.00    +0.000 A 
ATOM      7  C   UNK     1       5.997   7.300  17.507  0.00  0.00    +0.000 A 
ENDBRANCH   1   2
BRANCH   1   8
ATOM      8  C   UNK     1       3.049   6.959  18.529  0.00  0.00    +0.000 A 
ATOM      9  C   UNK     1       2.741   7.911  17.535  0.00  0.00    +0.000 A 
ATOM     10  C   UNK     1       1.989   9.058  17.817  0.00  0.00    +0.000 A 
ATOM     11  C   UNK     1       1.474   9.246  19.090  0.00  0.00    +0.000 A 
ATOM     12  C   UNK     1       1.656   8.282  20.066  0.00  0.00    +0.000 A 
ATOM     13  C   UNK     1       2.419   7.142  19.783  0.00  0.00    +0.000 A 
BRANCH  11  14
ATOM     14  O   UNK     1       0.782  10.372  19.416  0.00  0.00    +0.000 OA
ATOM     15  H   UNK     1       1.096  10.689  20.280  0.00  0.00    +0.000 HD
ENDBRANCH  11  14
ENDBRANCH   1   8
BRANCH   1  16
ATOM     16  S   UNK     1       3.766   4.870  16.672  0.00  0.00    +0.000 S 
BRANCH  16  17
ATOM     17  C   UNK     1       5.368   3.999  16.427  0.00  0.00    +0.000 C 
BRANCH  17  18
ATOM     18  C   UNK     1       5.930   4.385  15.054  0.00  0.00    +0.000 C 
BRANCH  18  19
ATOM     19  N   UNK     1       5.930   3.239  14.085  0.00  0.00    +0.000 NA
ATOM     20  H   UNK     1       5.468   3.593  13.236  0.00  0.00    +0.000 HD
ATOM     21  H   UNK     1       5.258   2.542  14.430  0.00  0.00    +0.000 HD
ENDBRANCH  18  19
BRANCH  18  22
ATOM     22  C   UNK     1       7.364   4.905  15.180  0.00  0.00    +0.000 C 
ATOM     23  O   UNK     1       7.936   5.627  14.378  0.00  0.00    +0.000 OA
BRANCH  22  24
ATOM     24  O   UNK     1       7.964   4.408  16.295  0.00  0.00    +0.000 OA
ATOM     25  H   UNK     1       7.296   3.813  16.722  0.00  0.00    +0.000 HD
ENDBRANCH  22  24
ENDBRANCH  18  22
ENDBRANCH  17  18
ENDBRANCH  16  17
ENDBRANCH   1  16
BRANCH   1  26
ATOM     26  C   UNK     1       3.742   4.731  19.496  0.00  0.00    +0.000 C 
BRANCH  26  27
ATOM     27  C   UNK     1       2.696   3.643  19.299  0.00  0.00    +0.000 A 
ATOM     28  C   UNK     1       1.334   3.917  19.504  0.00  0.00    +0.000 A 
ATOM     29  C   UNK     1       0.376   2.907  19.394  0.00  0.00    +0.000 A 
ATOM     30  C   UNK     1       0.763   1.612  19.053  0.00  0.00    +0.000 A 
ATOM     31  C   UNK     1       2.103   1.336  18.797  0.00  0.00    +0.000 A 
ATOM     32  C   UNK     1       3.063   2.347  18.909  0.00  0.00    +0.000 A 
ENDBRANCH  26  27
ENDBRANCH   1  26
TORSDOF 11
ENDMDL
MODEL 2
REMARK VINA RESULT:      -6.8      1.100      1.392
REMARK  Name = 
REMARK  11 active torsions:
REMARK  status: ('A' for Active; 'I' for Inactive)
REMARK    1  A    between atoms: N_1  and  C_2
REMARK    2  A    between atoms: C_2  and  C_3
REMARK    3  A    between atoms: C_2  and  C_26
REMARK    4  A    between atoms: C_3  and  S_4
REMARK    5  A    between atoms: S_4  and  C_5
REMARK    6  A    between atoms: C_5  and  C_6
REMARK    7  A    between atoms: C_5  and  C_13
REMARK    8  A    between atoms: C_5  and  C_19
REMARK    9  A    between atoms: C_6  and  C_7
REMARK   10  A    between atoms: C_22  and  O_23
REMARK   11  A    between atoms: C_26  and  O_28
REMARK                            x       y       z     vdW  Elec       q    Type
REMARK                         _______ _______ _______ _____ _____    ______ ____
ROOT
ATOM      1  C   UNK     1       4.468   5.812  17.378  0.00  0.00    +0.000 C 
ENDROOT
BRANCH   1   2
ATOM      2  C   UNK     1       5.857   5.984  18.077  0.00  0.00    +0.000 A 
ATOM      3  C   UNK     1       6.255   5.212  19.189  0.00  0.00    +0.000 A 
ATOM      4  C   UNK     1       7.495   5.392  19.812  0.00  0.00    +0.000 A 
ATOM      5  C   UNK     1       8.368   6.375  19.367  0.00  0.00    +0.000 A 
ATOM      6  C   UNK     1       7.992   7.187  18.302  0.00  0.00    +0.000 A 
ATOM      7  C   UNK     1       6.753   6.996  17.678  0.00  0.00    +0.000 A 
ENDBRANCH   1   2
BRANCH   1   8
ATOM      8  C   UNK     1       3.339   6.727  17.991  0.00  0.00    +0.000 A 
ATOM      9  C   UNK     1       2.636   7.711  17.266  0.00  0.00    +0.000 A 
ATOM     10  C   UNK     1       1.794   8.635  17.898  0.00  0.00    +0.000 A 
ATOM     11  C   UNK     1       1.588   8.553  19.265  0.00  0.00    +0.000 A 
ATOM     12  C   UNK     1       2.169   7.534  19.999  0.00  0.00    +0.000 A 
ATOM     13  C   UNK     1       3.020   6.619  19.366  0.00  0.00    +0.000 A 
BRANCH  11  14
ATOM     14  O   UNK     1       0.818   9.464  19.922  0.00  0.00    +0.000 OA
ATOM     15  H   UNK     1       1.197  10.348  19.783  0.00  0.00    +0.000 HD
ENDBRANCH  11  14
ENDBRANCH   1   8
BRANCH   1  16
ATOM     16  S   UNK     1       4.731   6.201  15.519  0.00  0.00    +0.000 S 
BRANCH  16  17
ATOM     17  C   UNK     1       4.979   4.516  14.822  0.00  0.00    +0.000 C 
BRANCH  17  18
ATOM     18  C   UNK     1       6.170   4.556  13.858  0.00  0.00    +0.000 C 
BRANCH  18  19
ATOM     19  N   UNK     1       6.357   3.266  13.114  0.00  0.00    +0.000 NA
ATOM     20  H   UNK     1       5.938   2.538  13.709  0.00  0.00    +0.000 HD
ATOM     21  H   UNK     1       7.357   3.032  13.147  0.00  0.00    +0.000 HD
ENDBRANCH  18  19
BRANCH  18  22
ATOM     22  C   UNK     1       7.467   4.867  14.609  0.00  0.00    +0.000 C 
ATOM     23  O   UNK     1       7.759   4.469  15.727  0.00  0.00    +0.000 OA
BRANCH  22  24
ATOM     24  O   UNK     1       8.255   5.709  13.889  0.00  0.00    +0.000 OA
ATOM     25  H   UNK     1       8.160   5.429  12.943  0.00  0.00    +0.000 HD
ENDBRANCH  22  24
ENDBRANCH  18  22
ENDBRANCH  17  18
ENDBRANCH  16  17
ENDBRANCH   1  16
BRANCH   1  26
ATOM     26  C   UNK     1       3.902   4.322  17.463  0.00  0.00    +0.000 C 
BRANCH  26  27
ATOM     27  C   UNK     1       2.988   3.895  18.603  0.00  0.00    +0.000 A 
ATOM     28  C   UNK     1       1.594   3.887  18.435  0.00  0.00    +0.000 A 
ATOM     29  C   UNK     1       0.747   3.565  19.498  0.00  0.00    +0.000 A 
ATOM     30  C   UNK     1       1.282   3.220  20.738  0.00  0.00    +0.000 A 
ATOM     31  C   UNK     1       2.663   3.175  20.906  0.00  0.00    +0.000 A 
ATOM     32  C   UNK     1       3.512   3.500  19.843  0.00  0.00    +0.000 A 
ENDBRANCH  26  27
ENDBRANCH   1  26
TORSDOF 11
ENDMDL
MODEL 3
REMARK VINA RESULT:      -6.8      1.524      2.013
REMARK  Name = 
REMARK  11 active torsions:
REMARK  status: ('A' for Active; 'I' for Inactive)
REMARK    1  A    between atoms: N_1  and  C_2
REMARK    2  A    between atoms: C_2  and  C_3
REMARK    3  A    between atoms: C_2  and  C_26
REMARK    4  A    between atoms: C_3  and  S_4
REMARK    5  A    between atoms: S_4  and  C_5
REMARK    6  A    between atoms: C_5  and  C_6
REMARK    7  A    between atoms: C_5  and  C_13
REMARK    8  A    between atoms: C_5  and  C_19
REMARK    9  A    between atoms: C_6  and  C_7
REMARK   10  A    between atoms: C_22  and  O_23
REMARK   11  A    between atoms: C_26  and  O_28
REMARK                            x       y       z     vdW  Elec       q    Type
REMARK                         _______ _______ _______ _____ _____    ______ ____
ROOT
ATOM      1  C   UNK     1       4.641   5.830  17.333  0.00  0.00    +0.000 C 
ENDROOT
BRANCH   1   2
ATOM      2  C   UNK     1       5.991   6.016  18.103  0.00  0.00    +0.000 A 
ATOM      3  C   UNK     1       6.938   7.004  17.761  0.00  0.00    +0.000 A 
ATOM      4  C   UNK     1       8.147   7.145  18.451  0.00  0.00    +0.000 A 
ATOM      5  C   UNK     1       8.468   6.279  19.487  0.00  0.00    +0.000 A 
ATOM      6  C   UNK     1       7.579   5.264  19.825  0.00  0.00    +0.000 A 
ATOM      7  C   UNK     1       6.368   5.134  19.136  0.00  0.00    +0.000 A 
ENDBRANCH   1   2
BRANCH   1   8
ATOM      8  C   UNK     1       3.466   6.711  17.907  0.00  0.00    +0.000 A 
ATOM      9  C   UNK     1       2.753   7.669  17.155  0.00  0.00    +0.000 A 
ATOM     10  C   UNK     1       1.863   8.568  17.755  0.00  0.00    +0.000 A 
ATOM     11  C   UNK     1       1.619   8.487  19.116  0.00  0.00    +0.000 A 
ATOM     12  C   UNK     1       2.210   7.491  19.873  0.00  0.00    +0.000 A 
ATOM     13  C   UNK     1       3.109   6.601  19.272  0.00  0.00    +0.000 A 
BRANCH  11  14
ATOM     14  O   UNK     1       0.800   9.376  19.744  0.00  0.00    +0.000 OA
ATOM     15  H   UNK     1       1.162  10.269  19.622  0.00  0.00    +0.000 HD
ENDBRANCH  11  14
ENDBRANCH   1   8
BRANCH   1  16
ATOM     16  S   UNK     1       4.987   6.258  15.497  0.00  0.00    +0.000 S 
BRANCH  16  17
ATOM     17  C   UNK     1       5.139   4.583  14.751  0.00  0.00    +0.000 C 
BRANCH  17  18
ATOM     18  C   UNK     1       6.611   4.337  14.398  0.00  0.00    +0.000 C 
BRANCH  18  19
ATOM     19  N   UNK     1       7.479   5.531  14.669  0.00  0.00    +0.000 NA
ATOM     20  H   UNK     1       8.428   5.256  14.379  0.00  0.00    +0.000 HD
ATOM     21  H   UNK     1       7.574   5.620  15.688  0.00  0.00    +0.000 HD
ENDBRANCH  18  19
BRANCH  18  22
ATOM     22  C   UNK     1       6.760   3.961  12.922  0.00  0.00    +0.000 C 
ATOM     23  O   UNK     1       7.402   4.581  12.088  0.00  0.00    +0.000 OA
BRANCH  22  24
ATOM     24  O   UNK     1       6.025   2.855  12.626  0.00  0.00    +0.000 OA
ATOM     25  H   UNK     1       5.111   3.181  12.424  0.00  0.00    +0.000 HD
ENDBRANCH  22  24
ENDBRANCH  18  22
ENDBRANCH  17  18
ENDBRANCH  16  17
ENDBRANCH   1  16
BRANCH   1  26
ATOM     26  C   UNK     1       4.102   4.329  17.365  0.00  0.00    +0.000 C 
BRANCH  26  27
ATOM     27  C   UNK     1       3.069   3.888  18.393  0.00  0.00    +0.000 A 
ATOM     28  C   UNK     1       3.463   3.539  19.695  0.00  0.00    +0.000 A 
ATOM     29  C   UNK     1       2.531   3.066  20.622  0.00  0.00    +0.000 A 
ATOM     30  C   UNK     1       1.188   2.959  20.269  0.00  0.00    +0.000 A 
ATOM     31  C   UNK     1       0.774   3.348  18.998  0.00  0.00    +0.000 A 
ATOM     32  C   UNK     1       1.707   3.820  18.068  0.00  0.00    +0.000 A 
ENDBRANCH  26  27
ENDBRANCH   1  26
TORSDOF 11
ENDMDL
MODEL 4
REMARK VINA RESULT:      -6.8      1.569      1.797
REMARK  Name = 
REMARK  11 active torsions:
REMARK  status: ('A' for Active; 'I' for Inactive)
REMARK    1  A    between atoms: N_1  and  C_2
REMARK    2  A    between atoms: C_2  and  C_3
REMARK    3  A    between atoms: C_2  and  C_26
REMARK    4  A    between atoms: C_3  and  S_4
REMARK    5  A    between atoms: S_4  and  C_5
REMARK    6  A    between atoms: C_5  and  C_6
REMARK    7  A    between atoms: C_5  and  C_13
REMARK    8  A    between atoms: C_5  and  C_19
REMARK    9  A    between atoms: C_6  and  C_7
REMARK   10  A    between atoms: C_22  and  O_23
REMARK   11  A    between atoms: C_26  and  O_28
REMARK                            x       y       z     vdW  Elec       q    Type
REMARK                         _______ _______ _______ _____ _____    ______ ____
ROOT
ATOM      1  C   UNK     1       4.643   5.734  17.331  0.00  0.00    +0.000 C 
ENDROOT
BRANCH   1   2
ATOM      2  C   UNK     1       6.004   5.923  18.080  0.00  0.00    +0.000 A 
ATOM      3  C   UNK     1       6.367   5.162  19.211  0.00  0.00    +0.000 A 
ATOM      4  C   UNK     1       7.582   5.357  19.878  0.00  0.00    +0.000 A 
ATOM      5  C   UNK     1       8.462   6.344  19.458  0.00  0.00    +0.000 A 
ATOM      6  C   UNK     1       8.120   7.144  18.373  0.00  0.00    +0.000 A 
ATOM      7  C   UNK     1       6.907   6.940  17.706  0.00  0.00    +0.000 A 
ENDBRANCH   1   2
BRANCH   1   8
ATOM      8  C   UNK     1       3.480   6.630  17.909  0.00  0.00    +0.000 A 
ATOM      9  C   UNK     1       2.774   7.592  17.158  0.00  0.00    +0.000 A 
ATOM     10  C   UNK     1       1.897   8.503  17.760  0.00  0.00    +0.000 A 
ATOM     11  C   UNK     1       1.659   8.428  19.123  0.00  0.00    +0.000 A 
ATOM     12  C   UNK     1       2.244   7.428  19.880  0.00  0.00    +0.000 A 
ATOM     13  C   UNK     1       3.130   6.527  19.276  0.00  0.00    +0.000 A 
BRANCH  11  14
ATOM     14  O   UNK     1       0.854   9.328  19.753  0.00  0.00    +0.000 OA
ATOM     15  H   UNK     1       1.396   9.854  20.363  0.00  0.00    +0.000 HD
ENDBRANCH  11  14
ENDBRANCH   1   8
BRANCH   1  16
ATOM     16  S   UNK     1       4.966   6.136  15.485  0.00  0.00    +0.000 S 
BRANCH  16  17
ATOM     17  C   UNK     1       5.089   4.451  14.757  0.00  0.00    +0.000 C 
BRANCH  17  18
ATOM     18  C   UNK     1       6.513   4.251  14.225  0.00  0.00    +0.000 C 
BRANCH  18  19
ATOM     19  N   UNK     1       7.390   5.447  14.453  0.00  0.00    +0.000 NA
ATOM     20  H   UNK     1       8.334   5.158  14.160  0.00  0.00    +0.000 HD
ATOM     21  H   UNK     1       7.498   5.562  15.468  0.00  0.00    +0.000 HD
ENDBRANCH  18  19
BRANCH  18  22
ATOM     22  C   UNK     1       6.495   3.949  12.724  0.00  0.00    +0.000 C 
ATOM     23  O   UNK     1       7.380   4.224  11.929  0.00  0.00    +0.000 OA
BRANCH  22  24
ATOM     24  O   UNK     1       5.317   3.374  12.359  0.00  0.00    +0.000 OA
ATOM     25  H   UNK     1       4.637   3.721  12.991  0.00  0.00    +0.000 HD
ENDBRANCH  22  24
ENDBRANCH  18  22
ENDBRANCH  17  18
ENDBRANCH  16  17
ENDBRANCH   1  16
BRANCH   1  26
ATOM     26  C   UNK     1       4.096   4.237  17.389  0.00  0.00    +0.000 C 
BRANCH  26  27
ATOM     27  C   UNK     1       3.094   3.809  18.452  0.00  0.00    +0.000 A 
ATOM     28  C   UNK     1       1.719   3.779  18.166  0.00  0.00    +0.000 A 
ATOM     29  C   UNK     1       0.788   3.456  19.156  0.00  0.00    +0.000 A 
ATOM     30  C   UNK     1       1.220   3.133  20.440  0.00  0.00    +0.000 A 
ATOM     31  C   UNK     1       2.581   3.110  20.727  0.00  0.00    +0.000 A 
ATOM     32  C   UNK     1       3.514   3.435  19.737  0.00  0.00    +0.000 A 
ENDBRANCH  26  27
ENDBRANCH   1  26
TORSDOF 11
ENDMDL
MODEL 5
REMARK VINA RESULT:      -6.8      1.514      1.896
REMARK  Name = 
REMARK  11 active torsions:
REMARK  status: ('A' for Active; 'I' for Inactive)
REMARK    1  A    between atoms: N_1  and  C_2
REMARK    2  A    between atoms: C_2  and  C_3
REMARK    3  A    between atoms: C_2  and  C_26
REMARK    4  A    between atoms: C_3  and  S_4
REMARK    5  A    between atoms: S_4  and  C_5
REMARK    6  A    between atoms: C_5  and  C_6
REMARK    7  A    between atoms: C_5  and  C_13
REMARK    8  A    between atoms: C_5  and  C_19
REMARK    9  A    between atoms: C_6  and  C_7
REMARK   10  A    between atoms: C_22  and  O_23
REMARK   11  A    between atoms: C_26  and  O_28
REMARK                            x       y       z     vdW  Elec       q    Type
REMARK                         _______ _______ _______ _____ _____    ______ ____
ROOT
ATOM      1  C   UNK     1       4.651   5.751  17.330  0.00  0.00    +0.000 C 
ENDROOT
BRANCH   1   2
ATOM      2  C   UNK     1       6.014   5.944  18.074  0.00  0.00    +0.000 A 
ATOM      3  C   UNK     1       6.391   5.172  19.193  0.00  0.00    +0.000 A 
ATOM      4  C   UNK     1       7.607   5.371  19.856  0.00  0.00    +0.000 A 
ATOM      5  C   UNK     1       8.475   6.372  19.445  0.00  0.00    +0.000 A 
ATOM      6  C   UNK     1       8.118   7.184  18.374  0.00  0.00    +0.000 A 
ATOM      7  C   UNK     1       6.904   6.975  17.710  0.00  0.00    +0.000 A 
ENDBRANCH   1   2
BRANCH   1   8
ATOM      8  C   UNK     1       3.487   6.642  17.912  0.00  0.00    +0.000 A 
ATOM      9  C   UNK     1       2.789   7.618  17.170  0.00  0.00    +0.000 A 
ATOM     10  C   UNK     1       1.911   8.523  17.779  0.00  0.00    +0.000 A 
ATOM     11  C   UNK     1       1.664   8.429  19.139  0.00  0.00    +0.000 A 
ATOM     12  C   UNK     1       2.240   7.416  19.886  0.00  0.00    +0.000 A 
ATOM     13  C   UNK     1       3.127   6.521  19.275  0.00  0.00    +0.000 A 
BRANCH  11  14
ATOM     14  O   UNK     1       0.857   9.322  19.776  0.00  0.00    +0.000 OA
ATOM     15  H   UNK     1       1.368  10.129  19.955  0.00  0.00    +0.000 HD
ENDBRANCH  11  14
ENDBRANCH   1   8
BRANCH   1  16
ATOM     16  S   UNK     1       4.966   6.156  15.483  0.00  0.00    +0.000 S 
BRANCH  16  17
ATOM     17  C   UNK     1       5.069   4.471  14.749  0.00  0.00    +0.000 C 
BRANCH  17  18
ATOM     18  C   UNK     1       6.503   4.237  14.261  0.00  0.00    +0.000 C 
BRANCH  18  19
ATOM     19  N   UNK     1       7.387   5.434  14.462  0.00  0.00    +0.000 NA
ATOM     20  H   UNK     1       7.322   5.976  13.589  0.00  0.00    +0.000 HD
ATOM     21  H   UNK     1       8.360   5.105  14.448  0.00  0.00    +0.000 HD
ENDBRANCH  18  19
BRANCH  18  22
ATOM     22  C   UNK     1       6.518   3.875  12.774  0.00  0.00    +0.000 C 
ATOM     23  O   UNK     1       5.811   3.038  12.235  0.00  0.00    +0.000 OA
BRANCH  22  24
ATOM     24  O   UNK     1       7.480   4.574  12.114  0.00  0.00    +0.000 OA
ATOM     25  H   UNK     1       8.098   4.912  12.811  0.00  0.00    +0.000 HD
ENDBRANCH  22  24
ENDBRANCH  18  22
ENDBRANCH  17  18
ENDBRANCH  16  17
ENDBRANCH   1  16
BRANCH   1  26
ATOM     26  C   UNK     1       4.110   4.252  17.389  0.00  0.00    +0.000 C 
BRANCH  26  27
ATOM     27  C   UNK     1       3.077   3.831  18.425  0.00  0.00    +0.000 A 
ATOM     28  C   UNK     1       3.473   3.481  19.726  0.00  0.00    +0.000 A 
ATOM     29  C   UNK     1       2.540   3.026  20.661  0.00  0.00    +0.000 A 
ATOM     30  C   UNK     1       1.193   2.940  20.317  0.00  0.00    +0.000 A 
ATOM     31  C   UNK     1       0.777   3.331  19.048  0.00  0.00    +0.000 A 
ATOM     32  C   UNK     1       1.711   3.784  18.110  0.00  0.00    +0.000 A 
ENDBRANCH  26  27
ENDBRANCH   1  26
TORSDOF 11
ENDMDL
MODEL 6
REMARK VINA RESULT:      -6.7      0.292      1.598
REMARK  Name = 
REMARK  11 active torsions:
REMARK  status: ('A' for Active; 'I' for Inactive)
REMARK    1  A    between atoms: N_1  and  C_2
REMARK    2  A    between atoms: C_2  and  C_3
REMARK    3  A    between atoms: C_2  and  C_26
REMARK    4  A    between atoms: C_3  and  S_4
REMARK    5  A    between atoms: S_4  and  C_5
REMARK    6  A    between atoms: C_5  and  C_6
REMARK    7  A    between atoms: C_5  and  C_13
REMARK    8  A    between atoms: C_5  and  C_19
REMARK    9  A    between atoms: C_6  and  C_7
REMARK   10  A    between atoms: C_22  and  O_23
REMARK   11  A    between atoms: C_26  and  O_28
REMARK                            x       y       z     vdW  Elec       q    Type
REMARK                         _______ _______ _______ _____ _____    ______ ____
ROOT
ATOM      1  C   UNK     1       4.036   5.899  18.527  0.00  0.00    +0.000 C 
ENDROOT
BRANCH   1   2
ATOM      2  C   UNK     1       5.550   6.296  18.495  0.00  0.00    +0.000 A 
ATOM      3  C   UNK     1       6.067   7.270  17.614  0.00  0.00    +0.000 A 
ATOM      4  C   UNK     1       7.427   7.600  17.589  0.00  0.00    +0.000 A 
ATOM      5  C   UNK     1       8.324   6.943  18.420  0.00  0.00    +0.000 A 
ATOM      6  C   UNK     1       7.859   5.946  19.270  0.00  0.00    +0.000 A 
ATOM      7  C   UNK     1       6.497   5.626  19.297  0.00  0.00    +0.000 A 
ENDBRANCH   1   2
BRANCH   1   8
ATOM      8  C   UNK     1       3.072   7.124  18.760  0.00  0.00    +0.000 A 
ATOM      9  C   UNK     1       2.392   7.379  19.969  0.00  0.00    +0.000 A 
ATOM     10  C   UNK     1       1.392   8.355  20.065  0.00  0.00    +0.000 A 
ATOM     11  C   UNK     1       1.094   9.143  18.965  0.00  0.00    +0.000 A 
ATOM     12  C   UNK     1       1.814   9.004  17.791  0.00  0.00    +0.000 A 
ATOM     13  C   UNK     1       2.805   8.019  17.696  0.00  0.00    +0.000 A 
BRANCH  11  14
ATOM     14  O   UNK     1       0.095  10.066  19.003  0.00  0.00    +0.000 OA
ATOM     15  H   UNK     1      -0.161  10.207  19.930  0.00  0.00    +0.000 HD
ENDBRANCH  11  14
ENDBRANCH   1   8
BRANCH   1  16
ATOM     16  S   UNK     1       3.655   5.032  16.860  0.00  0.00    +0.000 S 
BRANCH  16  17
ATOM     17  C   UNK     1       5.175   4.025  16.613  0.00  0.00    +0.000 C 
BRANCH  17  18
ATOM     18  C   UNK     1       5.786   4.386  15.254  0.00  0.00    +0.000 C 
BRANCH  18  19
ATOM     19  N   UNK     1       5.688   3.267  14.259  0.00  0.00    +0.000 NA
ATOM     20  H   UNK     1       5.320   3.693  13.397  0.00  0.00    +0.000 HD
ATOM     21  H   UNK     1       4.915   2.658  14.554  0.00  0.00    +0.000 HD
ENDBRANCH  18  19
BRANCH  18  22
ATOM     22  C   UNK     1       7.261   4.765  15.405  0.00  0.00    +0.000 C 
ATOM     23  O   UNK     1       7.883   5.523  14.676  0.00  0.00    +0.000 OA
BRANCH  22  24
ATOM     24  O   UNK     1       7.831   4.095  16.442  0.00  0.00    +0.000 OA
ATOM     25  H   UNK     1       7.189   4.160  17.194  0.00  0.00    +0.000 HD
ENDBRANCH  22  24
ENDBRANCH  18  22
ENDBRANCH  17  18
ENDBRANCH  16  17
ENDBRANCH   1  16
BRANCH   1  26
ATOM     26  C   UNK     1       3.686   4.855  19.682  0.00  0.00    +0.000 C 
BRANCH  26  27
ATOM     27  C   UNK     1       2.640   3.770  19.467  0.00  0.00    +0.000 A 
ATOM     28  C   UNK     1       3.024   2.475  19.084  0.00  0.00    +0.000 A 
ATOM     29  C   UNK     1       2.066   1.494  18.816  0.00  0.00    +0.000 A 
ATOM     30  C   UNK     1       0.711   1.786  18.953  0.00  0.00    +0.000 A 
ATOM     31  C   UNK     1       0.316   3.050  19.380  0.00  0.00    +0.000 A 
ATOM     32  C   UNK     1       1.274   4.034  19.646  0.00  0.00    +0.000 A 
ENDBRANCH  26  27
ENDBRANCH   1  26
TORSDOF 11
ENDMDL
MODEL 7
REMARK VINA RESULT:      -6.7      1.100      1.538
REMARK  Name = 
REMARK  11 active torsions:
REMARK  status: ('A' for Active; 'I' for Inactive)
REMARK    1  A    between atoms: N_1  and  C_2
REMARK    2  A    between atoms: C_2  and  C_3
REMARK    3  A    between atoms: C_2  and  C_26
REMARK    4  A    between atoms: C_3  and  S_4
REMARK    5  A    between atoms: S_4  and  C_5
REMARK    6  A    between atoms: C_5  and  C_6
REMARK    7  A    between atoms: C_5  and  C_13
REMARK    8  A    between atoms: C_5  and  C_19
REMARK    9  A    between atoms: C_6  and  C_7
REMARK   10  A    between atoms: C_22  and  O_23
REMARK   11  A    between atoms: C_26  and  O_28
REMARK                            x       y       z     vdW  Elec       q    Type
REMARK                         _______ _______ _______ _____ _____    ______ ____
ROOT
ATOM      1  C   UNK     1       4.478   5.809  17.436  0.00  0.00    +0.000 C 
ENDROOT
BRANCH   1   2
ATOM      2  C   UNK     1       5.863   6.032  18.130  0.00  0.00    +0.000 A 
ATOM      3  C   UNK     1       6.790   7.002  17.694  0.00  0.00    +0.000 A 
ATOM      4  C   UNK     1       8.031   7.176  18.318  0.00  0.00    +0.000 A 
ATOM      5  C   UNK     1       8.403   6.362  19.378  0.00  0.00    +0.000 A 
ATOM      6  C   UNK     1       7.534   5.365  19.808  0.00  0.00    +0.000 A 
ATOM      7  C   UNK     1       6.292   5.201  19.185  0.00  0.00    +0.000 A 
ENDBRANCH   1   2
BRANCH   1   8
ATOM      8  C   UNK     1       3.332   6.725  18.014  0.00  0.00    +0.000 A 
ATOM      9  C   UNK     1       2.617   7.673  17.253  0.00  0.00    +0.000 A 
ATOM     10  C   UNK     1       1.757   8.605  17.850  0.00  0.00    +0.000 A 
ATOM     11  C   UNK     1       1.546   8.565  19.218  0.00  0.00    +0.000 A 
ATOM     12  C   UNK     1       2.140   7.581  19.989  0.00  0.00    +0.000 A 
ATOM     13  C   UNK     1       3.008   6.659  19.390  0.00  0.00    +0.000 A 
BRANCH  11  14
ATOM     14  O   UNK     1       0.759   9.485  19.841  0.00  0.00    +0.000 OA
ATOM     15  H   UNK     1       1.329  10.093  20.341  0.00  0.00    +0.000 HD
ENDBRANCH  11  14
ENDBRANCH   1   8
BRANCH   1  16
ATOM     16  S   UNK     1       4.737   6.132  15.564  0.00  0.00    +0.000 S 
BRANCH  16  17
ATOM     17  C   UNK     1       5.142   4.445  14.952  0.00  0.00    +0.000 C 
BRANCH  17  18
ATOM     18  C   UNK     1       6.135   4.570  13.792  0.00  0.00    +0.000 C 
BRANCH  18  19
ATOM     19  N   UNK     1       6.331   3.278  13.053  0.00  0.00    +0.000 NA
ATOM     20  H   UNK     1       7.185   3.405  12.493  0.00  0.00    +0.000 HD
ATOM     21  H   UNK     1       5.600   3.220  12.334  0.00  0.00    +0.000 HD
ENDBRANCH  18  19
BRANCH  18  22
ATOM     22  C   UNK     1       7.501   5.046  14.295  0.00  0.00    +0.000 C 
ATOM     23  O   UNK     1       8.290   5.741  13.672  0.00  0.00    +0.000 OA
BRANCH  22  24
ATOM     24  O   UNK     1       7.765   4.542  15.530  0.00  0.00    +0.000 OA
ATOM     25  H   UNK     1       8.255   5.254  16.015  0.00  0.00    +0.000 HD
ENDBRANCH  22  24
ENDBRANCH  18  22
ENDBRANCH  17  18
ENDBRANCH  16  17
ENDBRANCH   1  16
BRANCH   1  26
ATOM     26  C   UNK     1       3.939   4.313  17.577  0.00  0.00    +0.000 C 
BRANCH  26  27
ATOM     27  C   UNK     1       2.984   3.927  18.698  0.00  0.00    +0.000 A 
ATOM     28  C   UNK     1       1.598   3.895  18.475  0.00  0.00    +0.000 A 
ATOM     29  C   UNK     1       0.712   3.611  19.516  0.00  0.00    +0.000 A 
ATOM     30  C   UNK     1       1.199   3.328  20.790  0.00  0.00    +0.000 A 
ATOM     31  C   UNK     1       2.572   3.306  21.015  0.00  0.00    +0.000 A 
ATOM     32  C   UNK     1       3.461   3.593  19.974  0.00  0.00    +0.000 A 
ENDBRANCH  26  27
ENDBRANCH   1  26
TORSDOF 11
ENDMDL
MODEL 8
REMARK VINA RESULT:      -6.7      1.456      1.926
REMARK  Name = 
REMARK  11 active torsions:
REMARK  status: ('A' for Active; 'I' for Inactive)
REMARK    1  A    between atoms: N_1  and  C_2
REMARK    2  A    between atoms: C_2  and  C_3
REMARK    3  A    between atoms: C_2  and  C_26
REMARK    4  A    between atoms: C_3  and  S_4
REMARK    5  A    between atoms: S_4  and  C_5
REMARK    6  A    between atoms: C_5  and  C_6
REMARK    7  A    between atoms: C_5  and  C_13
REMARK    8  A    between atoms: C_5  and  C_19
REMARK    9  A    between atoms: C_6  and  C_7
REMARK   10  A    between atoms: C_22  and  O_23
REMARK   11  A    between atoms: C_26  and  O_28
REMARK                            x       y       z     vdW  Elec       q    Type
REMARK                         _______ _______ _______ _____ _____    ______ ____
ROOT
ATOM      1  C   UNK     1       4.669   5.841  17.331  0.00  0.00    +0.000 C 
ENDROOT
BRANCH   1   2
ATOM      2  C   UNK     1       6.007   6.007  18.125  0.00  0.00    +0.000 A 
ATOM      3  C   UNK     1       6.960   7.003  17.819  0.00  0.00    +0.000 A 
ATOM      4  C   UNK     1       8.159   7.125  18.530  0.00  0.00    +0.000 A 
ATOM      5  C   UNK     1       8.464   6.235  19.550  0.00  0.00    +0.000 A 
ATOM      6  C   UNK     1       7.571   5.213  19.851  0.00  0.00    +0.000 A 
ATOM      7  C   UNK     1       6.370   5.100  19.141  0.00  0.00    +0.000 A 
ENDBRANCH   1   2
BRANCH   1   8
ATOM      8  C   UNK     1       3.484   6.703  17.914  0.00  0.00    +0.000 A 
ATOM      9  C   UNK     1       2.765   7.665  17.174  0.00  0.00    +0.000 A 
ATOM     10  C   UNK     1       1.865   8.547  17.784  0.00  0.00    +0.000 A 
ATOM     11  C   UNK     1       1.617   8.443  19.143  0.00  0.00    +0.000 A 
ATOM     12  C   UNK     1       2.214   7.440  19.888  0.00  0.00    +0.000 A 
ATOM     13  C   UNK     1       3.123   6.568  19.276  0.00  0.00    +0.000 A 
BRANCH  11  14
ATOM     14  O   UNK     1       0.788   9.314  19.782  0.00  0.00    +0.000 OA
ATOM     15  H   UNK     1       1.275   9.721  20.518  0.00  0.00    +0.000 HD
ENDBRANCH  11  14
ENDBRANCH   1   8
BRANCH   1  16
ATOM     16  S   UNK     1       5.039   6.323  15.513  0.00  0.00    +0.000 S 
BRANCH  16  17
ATOM     17  C   UNK     1       5.270   4.672  14.734  0.00  0.00    +0.000 C 
BRANCH  17  18
ATOM     18  C   UNK     1       6.766   4.462  14.469  0.00  0.00    +0.000 C 
BRANCH  18  19
ATOM     19  N   UNK     1       7.624   5.496  15.137  0.00  0.00    +0.000 NA
ATOM     20  H   UNK     1       8.443   4.987  15.497  0.00  0.00    +0.000 HD
ATOM     21  H   UNK     1       7.145   5.784  15.999  0.00  0.00    +0.000 HD
ENDBRANCH  18  19
BRANCH  18  22
ATOM     22  C   UNK     1       7.060   4.493  12.967  0.00  0.00    +0.000 C 
ATOM     23  O   UNK     1       6.645   3.696  12.140  0.00  0.00    +0.000 OA
BRANCH  22  24
ATOM     24  O   UNK     1       7.911   5.510  12.661  0.00  0.00    +0.000 OA
ATOM     25  H   UNK     1       7.599   5.874  11.794  0.00  0.00    +0.000 HD
ENDBRANCH  22  24
ENDBRANCH  18  22
ENDBRANCH  17  18
ENDBRANCH  16  17
ENDBRANCH   1  16
BRANCH   1  26
ATOM     26  C   UNK     1       4.133   4.338  17.311  0.00  0.00    +0.000 C 
BRANCH  26  27
ATOM     27  C   UNK     1       3.112   3.856  18.332  0.00  0.00    +0.000 A 
ATOM     28  C   UNK     1       1.745   3.819  18.011  0.00  0.00    +0.000 A 
ATOM     29  C   UNK     1       0.795   3.446  18.964  0.00  0.00    +0.000 A 
ATOM     30  C   UNK     1       1.200   3.080  20.246  0.00  0.00    +0.000 A 
ATOM     31  C   UNK     1       2.554   3.063  20.565  0.00  0.00    +0.000 A 
ATOM     32  C   UNK     1       3.506   3.439  19.612  0.00  0.00    +0.000 A 
ENDBRANCH  26  27
ENDBRANCH   1  26
TORSDOF 11
ENDMDL
MODEL 9
REMARK VINA RESULT:      -6.6      2.540      5.628
REMARK  Name = 
REMARK  11 active torsions:
REMARK  status: ('A' for Active; 'I' for Inactive)
REMARK    1  A    between atoms: N_1  and  C_2
REMARK    2  A    between atoms: C_2  and  C_3
REMARK    3  A    between atoms: C_2  and  C_26
REMARK    4  A    between atoms: C_3  and  S_4
REMARK    5  A    between atoms: S_4  and  C_5
REMARK    6  A    between atoms: C_5  and  C_6
REMARK    7  A    between atoms: C_5  and  C_13
REMARK    8  A    between atoms: C_5  and  C_19
REMARK    9  A    between atoms: C_6  and  C_7
REMARK   10  A    between atoms: C_22  and  O_23
REMARK   11  A    between atoms: C_26  and  O_28
REMARK                            x       y       z     vdW  Elec       q    Type
REMARK                         _______ _______ _______ _____ _____    ______ ____
ROOT
ATOM      1  C   UNK     1       5.582   5.631  17.041  0.00  0.00    +0.000 C 
ENDROOT
BRANCH   1   2
ATOM      2  C   UNK     1       6.619   6.655  17.611  0.00  0.00    +0.000 A 
ATOM      3  C   UNK     1       6.749   7.970  17.115  0.00  0.00    +0.000 A 
ATOM      4  C   UNK     1       7.694   8.866  17.627  0.00  0.00    +0.000 A 
ATOM      5  C   UNK     1       8.565   8.469  18.631  0.00  0.00    +0.000 A 
ATOM      6  C   UNK     1       8.497   7.167  19.116  0.00  0.00    +0.000 A 
ATOM      7  C   UNK     1       7.546   6.278  18.605  0.00  0.00    +0.000 A 
ENDBRANCH   1   2
BRANCH   1   8
ATOM      8  C   UNK     1       6.023   4.994  15.667  0.00  0.00    +0.000 A 
ATOM      9  C   UNK     1       7.336   5.045  15.154  0.00  0.00    +0.000 A 
ATOM     10  C   UNK     1       7.635   4.650  13.845  0.00  0.00    +0.000 A 
ATOM     11  C   UNK     1       6.634   4.134  13.038  0.00  0.00    +0.000 A 
ATOM     12  C   UNK     1       5.355   3.960  13.537  0.00  0.00    +0.000 A 
ATOM     13  C   UNK     1       5.057   4.367  14.843  0.00  0.00    +0.000 A 
BRANCH  11  14
ATOM     14  O   UNK     1       6.875   3.787  11.744  0.00  0.00    +0.000 OA
ATOM     15  H   UNK     1       7.378   4.502  11.320  0.00  0.00    +0.000 HD
ENDBRANCH  11  14
ENDBRANCH   1   8
BRANCH   1  16
ATOM     16  S   UNK     1       5.345   4.279  18.379  0.00  0.00    +0.000 S 
BRANCH  16  17
ATOM     17  C   UNK     1       4.352   3.028  17.466  0.00  0.00    +0.000 C 
BRANCH  17  18
ATOM     18  C   UNK     1       3.491   2.257  18.473  0.00  0.00    +0.000 C 
BRANCH  18  19
ATOM     19  N   UNK     1       3.795   0.787  18.490  0.00  0.00    +0.000 NA
ATOM     20  H   UNK     1       4.737   0.703  18.897  0.00  0.00    +0.000 HD
ATOM     21  H   UNK     1       3.945   0.491  17.518  0.00  0.00    +0.000 HD
ENDBRANCH  18  19
BRANCH  18  22
ATOM     22  C   UNK     1       2.002   2.434  18.162  0.00  0.00    +0.000 C 
ATOM     23  O   UNK     1       1.512   3.340  17.506  0.00  0.00    +0.000 OA
BRANCH  22  24
ATOM     24  O   UNK     1       1.262   1.468  18.769  0.00  0.00    +0.000 OA
ATOM     25  H   UNK     1       0.736   1.035  18.049  0.00  0.00    +0.000 HD
ENDBRANCH  22  24
ENDBRANCH  18  22
ENDBRANCH  17  18
ENDBRANCH  16  17
ENDBRANCH   1  16
BRANCH   1  26
ATOM     26  C   UNK     1       4.147   6.273  16.772  0.00  0.00    +0.000 C 
BRANCH  26  27
ATOM     27  C   UNK     1       3.302   6.812  17.918  0.00  0.00    +0.000 A 
ATOM     28  C   UNK     1       2.743   8.098  17.849  0.00  0.00    +0.000 A 
ATOM     29  C   UNK     1       2.027   8.626  18.926  0.00  0.00    +0.000 A 
ATOM     30  C   UNK     1       1.836   7.866  20.077  0.00  0.00    +0.000 A 
ATOM     31  C   UNK     1       2.340   6.570  20.141  0.00  0.00    +0.000 A 
ATOM     32  C   UNK     1       3.060   6.041  19.065  0.00  0.00    +0.000 A 
ENDBRANCH  26  27
ENDBRANCH   1  26
TORSDOF 11
ENDMDL
