MODEL 1
REMARK VINA RESULT:      -7.8      0.000      0.000
REMARK  Name = 
REMARK  3 active torsions:
REMARK  status: ('A' for Active; 'I' for Inactive)
REMARK    1  A    between atoms: N_3  and  C_4
REMARK    2  A    between atoms: C_7  and  O_8
REMARK    3  A    between atoms: O_8  and  C_9
REMARK                            x       y       z     vdW  Elec       q    Type
REMARK                         _______ _______ _______ _____ _____    ______ ____
ROOT
ATOM      1  O   UNL     1       7.391   9.189  17.031  0.00  0.00    +0.000 OA
ATOM      2  C   UNL     1       7.816   8.383  17.857  0.00  0.00    +0.000 C 
ATOM      3  N   UNL     1       8.764   8.684  18.808  0.00  0.00    +0.000 N 
ATOM      4  N   UNL     1       7.352   7.077  17.874  0.00  0.00    +0.000 N 
ATOM      5  C   UNL     1       7.647   6.025  18.864  0.00  0.00    +0.000 C 
ATOM      6  C   UNL     1       6.365   5.543  19.572  0.00  0.00    +0.000 C 
ATOM      7  N   UNL     1       5.364   5.183  18.575  0.00  0.00    +0.000 N 
ATOM      8  C   UNL     1       4.757   3.958  18.586  0.00  0.00    +0.000 A 
ATOM      9  N   UNL     1       5.003   3.121  19.608  0.00  0.00    +0.000 NA
ATOM     10  C   UNL     1       4.397   1.921  19.599  0.00  0.00    +0.000 A 
ATOM     11  C   UNL     1       3.558   1.503  18.598  0.00  0.00    +0.000 A 
ATOM     12  C   UNL     1       3.370   2.412  17.589  0.00  0.00    +0.000 A 
ATOM     13  N   UNL     1       3.949   3.628  17.564  0.00  0.00    +0.000 NA
ATOM     14  C   UNL     1       5.039   6.197  17.574  0.00  0.00    +0.000 C 
ATOM     15  C   UNL     1       6.327   6.688  16.889  0.00  0.00    +0.000 C 
ATOM     16  H   UNL     1       9.258   7.907  19.207  0.00  0.00    +0.000 HD
ENDROOT
BRANCH   3  17
ATOM     17  C   UNL     1       9.341   9.947  19.056  0.00  0.00    +0.000 A 
ATOM     18  C   UNL     1       9.958  10.724  18.078  0.00  0.00    +0.000 A 
ATOM     19  C   UNL     1      10.556  11.940  18.416  0.00  0.00    +0.000 A 
ATOM     20  C   UNL     1      10.523  12.414  19.727  0.00  0.00    +0.000 A 
ATOM     21  C   UNL     1       9.906  11.643  20.710  0.00  0.00    +0.000 A 
ATOM     22  C   UNL     1       9.296  10.429  20.369  0.00  0.00    +0.000 A 
BRANCH  20  23
ATOM     23  O   UNL     1      11.181  13.588  19.918  0.00  0.00    +0.000 OA
BRANCH  23  24
ATOM     24  C   UNL     1      10.559  14.810  19.560  0.00  0.00    +0.000 C 
ATOM     25  F   UNL     1       9.215  14.748  19.466  0.00  0.00    +0.000 F 
ATOM     26  F   UNL     1      10.888  15.760  20.464  0.00  0.00    +0.000 F 
ATOM     27  F   UNL     1      11.038  15.195  18.356  0.00  0.00    +0.000 F 
ENDBRANCH  23  24
ENDBRANCH  20  23
ENDBRANCH   3  17
TORSDOF 3
ENDMDL
MODEL 2
REMARK VINA RESULT:      -7.7      0.313      1.230
REMARK  Name = 
REMARK  3 active torsions:
REMARK  status: ('A' for Active; 'I' for Inactive)
REMARK    1  A    between atoms: N_3  and  C_4
REMARK    2  A    between atoms: C_7  and  O_8
REMARK    3  A    between atoms: O_8  and  C_9
REMARK                            x       y       z     vdW  Elec       q    Type
REMARK                         _______ _______ _______ _____ _____    ______ ____
ROOT
ATOM      1  O   UNL     1       7.395   9.140  17.075  0.00  0.00    +0.000 OA
ATOM      2  C   UNL     1       7.825   8.344  17.908  0.00  0.00    +0.000 C 
ATOM      3  N   UNL     1       8.770   8.661  18.857  0.00  0.00    +0.000 N 
ATOM      4  N   UNL     1       7.373   7.035  17.935  0.00  0.00    +0.000 N 
ATOM      5  C   UNL     1       7.675   5.993  18.934  0.00  0.00    +0.000 C 
ATOM      6  C   UNL     1       6.396   5.506  19.645  0.00  0.00    +0.000 C 
ATOM      7  N   UNL     1       5.399   5.129  18.649  0.00  0.00    +0.000 N 
ATOM      8  C   UNL     1       4.802   3.900  18.669  0.00  0.00    +0.000 A 
ATOM      9  N   UNL     1       5.054   3.073  19.699  0.00  0.00    +0.000 NA
ATOM     10  C   UNL     1       4.459   1.868  19.700  0.00  0.00    +0.000 A 
ATOM     11  C   UNL     1       3.624   1.435  18.701  0.00  0.00    +0.000 A 
ATOM     12  C   UNL     1       3.430   2.334  17.684  0.00  0.00    +0.000 A 
ATOM     13  N   UNL     1       3.998   3.554  17.650  0.00  0.00    +0.000 NA
ATOM     14  C   UNL     1       5.067   6.132  17.640  0.00  0.00    +0.000 C 
ATOM     15  C   UNL     1       6.352   6.629  16.952  0.00  0.00    +0.000 C 
ATOM     16  H   UNL     1       9.269   7.891  19.264  0.00  0.00    +0.000 HD
ENDROOT
BRANCH   3  17
ATOM     17  C   UNL     1       9.335   9.931  19.095  0.00  0.00    +0.000 A 
ATOM     18  C   UNL     1       9.333  10.560  20.338  0.00  0.00    +0.000 A 
ATOM     19  C   UNL     1       9.864  11.844  20.479  0.00  0.00    +0.000 A 
ATOM     20  C   UNL     1      10.430  12.509  19.392  0.00  0.00    +0.000 A 
ATOM     21  C   UNL     1      10.437  11.885  18.146  0.00  0.00    +0.000 A 
ATOM     22  C   UNL     1       9.915  10.593  18.007  0.00  0.00    +0.000 A 
BRANCH  20  23
ATOM     23  O   UNL     1      10.868  13.767  19.666  0.00  0.00    +0.000 OA
BRANCH  23  24
ATOM     24  C   UNL     1      10.263  14.878  19.025  0.00  0.00    +0.000 C 
ATOM     25  F   UNL     1      10.713  15.117  17.777  0.00  0.00    +0.000 F 
ATOM     26  F   UNL     1       8.925  14.690  18.977  0.00  0.00    +0.000 F 
ATOM     27  F   UNL     1      10.505  15.981  19.768  0.00  0.00    +0.000 F 
ENDBRANCH  23  24
ENDBRANCH  20  23
ENDBRANCH   3  17
TORSDOF 3
ENDMDL
MODEL 3
REMARK VINA RESULT:      -7.4      7.712     10.004
REMARK  Name = 
REMARK  3 active torsions:
REMARK  status: ('A' for Active; 'I' for Inactive)
REMARK    1  A    between atoms: N_3  and  C_4
REMARK    2  A    between atoms: C_7  and  O_8
REMARK    3  A    between atoms: O_8  and  C_9
REMARK                            x       y       z     vdW  Elec       q    Type
REMARK                         _______ _______ _______ _____ _____    ______ ____
ROOT
ATOM      1  O   UNL     1       2.210   9.342  17.173  0.00  0.00    +0.000 OA
ATOM      2  C   UNL     1       1.802   8.898  18.244  0.00  0.00    +0.000 C 
ATOM      3  N   UNL     1       2.172   7.679  18.763  0.00  0.00    +0.000 N 
ATOM      4  N   UNL     1       0.907   9.624  19.014  0.00  0.00    +0.000 N 
ATOM      5  C   UNL     1       0.419   9.312  20.371  0.00  0.00    +0.000 C 
ATOM      6  C   UNL     1       0.800  10.419  21.375  0.00  0.00    +0.000 C 
ATOM      7  N   UNL     1       0.377  11.714  20.854  0.00  0.00    +0.000 N 
ATOM      8  C   UNL     1      -0.406  12.557  21.593  0.00  0.00    +0.000 A 
ATOM      9  N   UNL     1      -0.686  12.232  22.866  0.00  0.00    +0.000 NA
ATOM     10  C   UNL     1      -1.459  13.073  23.576  0.00  0.00    +0.000 A 
ATOM     11  C   UNL     1      -1.985  14.231  23.064  0.00  0.00    +0.000 A 
ATOM     12  C   UNL     1      -1.660  14.482  21.755  0.00  0.00    +0.000 A 
ATOM     13  N   UNL     1      -0.882  13.672  21.014  0.00  0.00    +0.000 NA
ATOM     14  C   UNL     1       0.839  12.066  19.513  0.00  0.00    +0.000 C 
ATOM     15  C   UNL     1       0.474  10.944  18.523  0.00  0.00    +0.000 C 
ATOM     16  H   UNL     1       1.561   7.284  19.455  0.00  0.00    +0.000 HD
ENDROOT
BRANCH   3  17
ATOM     17  C   UNL     1       3.119   6.783  18.224  0.00  0.00    +0.000 A 
ATOM     18  C   UNL     1       4.409   7.151  17.850  0.00  0.00    +0.000 A 
ATOM     19  C   UNL     1       5.269   6.216  17.270  0.00  0.00    +0.000 A 
ATOM     20  C   UNL     1       4.867   4.895  17.079  0.00  0.00    +0.000 A 
ATOM     21  C   UNL     1       3.578   4.519  17.452  0.00  0.00    +0.000 A 
ATOM     22  C   UNL     1       2.719   5.454  18.044  0.00  0.00    +0.000 A 
BRANCH  20  23
ATOM     23  O   UNL     1       5.790   4.107  16.466  0.00  0.00    +0.000 OA
BRANCH  23  24
ATOM     24  C   UNL     1       6.142   4.357  15.115  0.00  0.00    +0.000 C 
ATOM     25  F   UNL     1       7.301   5.028  14.954  0.00  0.00    +0.000 F 
ATOM     26  F   UNL     1       6.224   3.183  14.451  0.00  0.00    +0.000 F 
ATOM     27  F   UNL     1       5.160   5.092  14.548  0.00  0.00    +0.000 F 
ENDBRANCH  23  24
ENDBRANCH  20  23
ENDBRANCH   3  17
TORSDOF 3
ENDMDL
MODEL 4
REMARK VINA RESULT:      -7.2     10.420     12.254
REMARK  Name = 
REMARK  3 active torsions:
REMARK  status: ('A' for Active; 'I' for Inactive)
REMARK    1  A    between atoms: N_3  and  C_4
REMARK    2  A    between atoms: C_7  and  O_8
REMARK    3  A    between atoms: O_8  and  C_9
REMARK                            x       y       z     vdW  Elec       q    Type
REMARK                         _______ _______ _______ _____ _____    ______ ____
ROOT
ATOM      1  O   UNL     1       1.485  11.956  21.205  0.00  0.00    +0.000 OA
ATOM      2  C   UNL     1       0.336  11.771  20.810  0.00  0.00    +0.000 C 
ATOM      3  N   UNL     1      -0.048  10.703  20.033  0.00  0.00    +0.000 N 
ATOM      4  N   UNL     1      -0.674  12.664  21.131  0.00  0.00    +0.000 N 
ATOM      5  C   UNL     1      -2.118  12.534  20.860  0.00  0.00    +0.000 C 
ATOM      6  C   UNL     1      -2.938  12.521  22.166  0.00  0.00    +0.000 C 
ATOM      7  N   UNL     1      -2.569  13.672  22.983  0.00  0.00    +0.000 N 
ATOM      8  C   UNL     1      -3.513  14.542  23.453  0.00  0.00    +0.000 A 
ATOM      9  N   UNL     1      -4.812  14.259  23.257  0.00  0.00    +0.000 NA
ATOM     10  C   UNL     1      -5.724  15.128  23.726  0.00  0.00    +0.000 A 
ATOM     11  C   UNL     1      -5.398  16.290  24.377  0.00  0.00    +0.000 A 
ATOM     12  C   UNL     1      -4.052  16.509  24.525  0.00  0.00    +0.000 A 
ATOM     13  N   UNL     1      -3.107  15.659  24.080  0.00  0.00    +0.000 NA
ATOM     14  C   UNL     1      -1.148  13.839  23.279  0.00  0.00    +0.000 C 
ATOM     15  C   UNL     1      -0.336  13.828  21.970  0.00  0.00    +0.000 C 
ATOM     16  H   UNL     1      -0.902  10.810  19.517  0.00  0.00    +0.000 HD
ENDROOT
BRANCH   3  17
ATOM     17  C   UNL     1       0.759   9.618  19.631  0.00  0.00    +0.000 A 
ATOM     18  C   UNL     1       1.156   8.589  20.482  0.00  0.00    +0.000 A 
ATOM     19  C   UNL     1       2.003   7.579  20.021  0.00  0.00    +0.000 A 
ATOM     20  C   UNL     1       2.444   7.563  18.698  0.00  0.00    +0.000 A 
ATOM     21  C   UNL     1       2.050   8.588  17.841  0.00  0.00    +0.000 A 
ATOM     22  C   UNL     1       1.192   9.595  18.300  0.00  0.00    +0.000 A 
BRANCH  20  23
ATOM     23  O   UNL     1       3.297   6.547  18.401  0.00  0.00    +0.000 OA
BRANCH  23  24
ATOM     24  C   UNL     1       2.781   5.263  18.092  0.00  0.00    +0.000 C 
ATOM     25  F   UNL     1       3.469   4.596  17.143  0.00  0.00    +0.000 F 
ATOM     26  F   UNL     1       2.753   4.512  19.216  0.00  0.00    +0.000 F 
ATOM     27  F   UNL     1       1.511   5.408  17.654  0.00  0.00    +0.000 F 
ENDBRANCH  23  24
ENDBRANCH  20  23
ENDBRANCH   3  17
TORSDOF 3
ENDMDL
MODEL 5
REMARK VINA RESULT:      -7.1      7.922     10.216
REMARK  Name = 
REMARK  3 active torsions:
REMARK  status: ('A' for Active; 'I' for Inactive)
REMARK    1  A    between atoms: N_3  and  C_4
REMARK    2  A    between atoms: C_7  and  O_8
REMARK    3  A    between atoms: O_8  and  C_9
REMARK                            x       y       z     vdW  Elec       q    Type
REMARK                         _______ _______ _______ _____ _____    ______ ____
ROOT
ATOM      1  O   UNL     1       2.075   9.645  17.364  0.00  0.00    +0.000 OA
ATOM      2  C   UNL     1       1.553   9.187  18.379  0.00  0.00    +0.000 C 
ATOM      3  N   UNL     1       1.751   7.903  18.834  0.00  0.00    +0.000 N 
ATOM      4  N   UNL     1       0.699   9.963  19.146  0.00  0.00    +0.000 N 
ATOM      5  C   UNL     1       0.097   9.628  20.450  0.00  0.00    +0.000 C 
ATOM      6  C   UNL     1       0.536  10.619  21.546  0.00  0.00    +0.000 C 
ATOM      7  N   UNL     1       0.295  11.984  21.093  0.00  0.00    +0.000 N 
ATOM      8  C   UNL     1      -0.432  12.866  21.843  0.00  0.00    +0.000 A 
ATOM      9  N   UNL     1      -0.826  12.499  23.074  0.00  0.00    +0.000 NA
ATOM     10  C   UNL     1      -1.542  13.379  23.796  0.00  0.00    +0.000 A 
ATOM     11  C   UNL     1      -1.901  14.619  23.336  0.00  0.00    +0.000 A 
ATOM     12  C   UNL     1      -1.470  14.910  22.067  0.00  0.00    +0.000 A 
ATOM     13  N   UNL     1      -0.742  14.062  21.316  0.00  0.00    +0.000 NA
ATOM     14  C   UNL     1       0.876  12.362  19.806  0.00  0.00    +0.000 C 
ATOM     15  C   UNL     1       0.449  11.353  18.723  0.00  0.00    +0.000 C 
ATOM     16  H   UNL     1       1.058   7.541  19.463  0.00  0.00    +0.000 HD
ENDROOT
BRANCH   3  17
ATOM     17  C   UNL     1       2.622   6.938  18.287  0.00  0.00    +0.000 A 
ATOM     18  C   UNL     1       2.321   5.582  18.199  0.00  0.00    +0.000 A 
ATOM     19  C   UNL     1       3.262   4.681  17.696  0.00  0.00    +0.000 A 
ATOM     20  C   UNL     1       4.506   5.121  17.247  0.00  0.00    +0.000 A 
ATOM     21  C   UNL     1       4.814   6.477  17.331  0.00  0.00    +0.000 A 
ATOM     22  C   UNL     1       3.866   7.382  17.825  0.00  0.00    +0.000 A 
BRANCH  20  23
ATOM     23  O   UNL     1       5.336   4.130  16.825  0.00  0.00    +0.000 OA
BRANCH  23  24
ATOM     24  C   UNL     1       6.012   4.259  15.585  0.00  0.00    +0.000 C 
ATOM     25  F   UNL     1       5.375   5.026  14.677  0.00  0.00    +0.000 F 
ATOM     26  F   UNL     1       7.244   4.772  15.801  0.00  0.00    +0.000 F 
ATOM     27  F   UNL     1       6.159   3.026  15.051  0.00  0.00    +0.000 F 
ENDBRANCH  23  24
ENDBRANCH  20  23
ENDBRANCH   3  17
TORSDOF 3
ENDMDL
MODEL 6
REMARK VINA RESULT:      -7.1      7.844      9.833
REMARK  Name = 
REMARK  3 active torsions:
REMARK  status: ('A' for Active; 'I' for Inactive)
REMARK    1  A    between atoms: N_3  and  C_4
REMARK    2  A    between atoms: C_7  and  O_8
REMARK    3  A    between atoms: O_8  and  C_9
REMARK                            x       y       z     vdW  Elec       q    Type
REMARK                         _______ _______ _______ _____ _____    ______ ____
ROOT
ATOM      1  O   UNL     1       2.079   9.942  17.894  0.00  0.00    +0.000 OA
ATOM      2  C   UNL     1       1.442   9.330  18.749  0.00  0.00    +0.000 C 
ATOM      3  N   UNL     1       1.731   8.047  19.152  0.00  0.00    +0.000 N 
ATOM      4  N   UNL     1       0.354   9.918  19.374  0.00  0.00    +0.000 N 
ATOM      5  C   UNL     1      -0.435   9.390  20.503  0.00  0.00    +0.000 C 
ATOM      6  C   UNL     1      -0.363  10.325  21.727  0.00  0.00    +0.000 C 
ATOM      7  N   UNL     1      -0.705  11.684  21.322  0.00  0.00    +0.000 N 
ATOM      8  C   UNL     1      -1.683  12.393  21.963  0.00  0.00    +0.000 A 
ATOM      9  N   UNL     1      -2.250  11.867  23.062  0.00  0.00    +0.000 NA
ATOM     10  C   UNL     1      -3.211  12.579  23.677  0.00  0.00    +0.000 A 
ATOM     11  C   UNL     1      -3.649  13.800  23.234  0.00  0.00    +0.000 A 
ATOM     12  C   UNL     1      -3.027  14.258  22.101  0.00  0.00    +0.000 A 
ATOM     13  N   UNL     1      -2.054  13.582  21.461  0.00  0.00    +0.000 NA
ATOM     14  C   UNL     1       0.053  12.249  20.208  0.00  0.00    +0.000 C 
ATOM     15  C   UNL     1      -0.006  11.297  18.999  0.00  0.00    +0.000 C 
ATOM     16  H   UNL     1       0.989   7.543  19.601  0.00  0.00    +0.000 HD
ENDROOT
BRANCH   3  17
ATOM     17  C   UNL     1       2.821   7.255  18.734  0.00  0.00    +0.000 A 
ATOM     18  C   UNL     1       3.517   7.459  17.545  0.00  0.00    +0.000 A 
ATOM     19  C   UNL     1       4.551   6.596  17.175  0.00  0.00    +0.000 A 
ATOM     20  C   UNL     1       4.925   5.534  17.998  0.00  0.00    +0.000 A 
ATOM     21  C   UNL     1       4.234   5.324  19.189  0.00  0.00    +0.000 A 
ATOM     22  C   UNL     1       3.205   6.197  19.566  0.00  0.00    +0.000 A 
BRANCH  20  23
ATOM     23  O   UNL     1       5.916   4.751  17.492  0.00  0.00    +0.000 OA
BRANCH  23  24
ATOM     24  C   UNL     1       7.245   5.242  17.444  0.00  0.00    +0.000 C 
ATOM     25  F   UNL     1       7.531   5.977  16.351  0.00  0.00    +0.000 F 
ATOM     26  F   UNL     1       7.484   5.989  18.545  0.00  0.00    +0.000 F 
ATOM     27  F   UNL     1       8.089   4.186  17.462  0.00  0.00    +0.000 F 
ENDBRANCH  23  24
ENDBRANCH  20  23
ENDBRANCH   3  17
TORSDOF 3
ENDMDL
MODEL 7
REMARK VINA RESULT:      -7.1      8.713     11.710
REMARK  Name = 
REMARK  3 active torsions:
REMARK  status: ('A' for Active; 'I' for Inactive)
REMARK    1  A    between atoms: N_3  and  C_4
REMARK    2  A    between atoms: C_7  and  O_8
REMARK    3  A    between atoms: O_8  and  C_9
REMARK                            x       y       z     vdW  Elec       q    Type
REMARK                         _______ _______ _______ _____ _____    ______ ____
ROOT
ATOM      1  O   UNL     1      -0.574   9.749  18.889  0.00  0.00    +0.000 OA
ATOM      2  C   UNL     1       0.373  10.275  19.471  0.00  0.00    +0.000 C 
ATOM      3  N   UNL     1       1.485   9.590  19.906  0.00  0.00    +0.000 N 
ATOM      4  N   UNL     1       0.371  11.635  19.737  0.00  0.00    +0.000 N 
ATOM      5  C   UNL     1       1.466  12.448  20.299  0.00  0.00    +0.000 C 
ATOM      6  C   UNL     1       1.911  13.550  19.316  0.00  0.00    +0.000 C 
ATOM      7  N   UNL     1       0.746  14.310  18.877  0.00  0.00    +0.000 N 
ATOM      8  C   UNL     1       0.703  15.672  18.984  0.00  0.00    +0.000 A 
ATOM      9  N   UNL     1       1.805  16.326  19.389  0.00  0.00    +0.000 NA
ATOM     10  C   UNL     1       1.742  17.665  19.490  0.00  0.00    +0.000 A 
ATOM     11  C   UNL     1       0.612  18.392  19.216  0.00  0.00    +0.000 A 
ATOM     12  C   UNL     1      -0.470  17.648  18.820  0.00  0.00    +0.000 A 
ATOM     13  N   UNL     1      -0.445  16.307  18.697  0.00  0.00    +0.000 NA
ATOM     14  C   UNL     1      -0.363  13.545  18.311  0.00  0.00    +0.000 C 
ATOM     15  C   UNL     1      -0.784  12.433  19.290  0.00  0.00    +0.000 C 
ATOM     16  H   UNL     1       2.029  10.033  20.623  0.00  0.00    +0.000 HD
ENDROOT
BRANCH   3  17
ATOM     17  C   UNL     1       1.771   8.225  19.697  0.00  0.00    +0.000 A 
ATOM     18  C   UNL     1       1.526   7.229  20.639  0.00  0.00    +0.000 A 
ATOM     19  C   UNL     1       1.891   5.906  20.378  0.00  0.00    +0.000 A 
ATOM     20  C   UNL     1       2.479   5.552  19.165  0.00  0.00    +0.000 A 
ATOM     21  C   UNL     1       2.726   6.543  18.218  0.00  0.00    +0.000 A 
ATOM     22  C   UNL     1       2.350   7.868  18.474  0.00  0.00    +0.000 A 
BRANCH  20  23
ATOM     23  O   UNL     1       2.820   4.239  19.066  0.00  0.00    +0.000 OA
BRANCH  23  24
ATOM     24  C   UNL     1       2.245   3.437  18.048  0.00  0.00    +0.000 C 
ATOM     25  F   UNL     1       2.864   3.520  16.853  0.00  0.00    +0.000 F 
ATOM     26  F   UNL     1       2.242   2.145  18.448  0.00  0.00    +0.000 F 
ATOM     27  F   UNL     1       0.962   3.825  17.875  0.00  0.00    +0.000 F 
ENDBRANCH  23  24
ENDBRANCH  20  23
ENDBRANCH   3  17
TORSDOF 3
ENDMDL
MODEL 8
REMARK VINA RESULT:      -7.0      9.127     11.778
REMARK  Name = 
REMARK  3 active torsions:
REMARK  status: ('A' for Active; 'I' for Inactive)
REMARK    1  A    between atoms: N_3  and  C_4
REMARK    2  A    between atoms: C_7  and  O_8
REMARK    3  A    between atoms: O_8  and  C_9
REMARK                            x       y       z     vdW  Elec       q    Type
REMARK                         _______ _______ _______ _____ _____    ______ ____
ROOT
ATOM      1  O   UNL     1      -0.200   8.616  21.246  0.00  0.00    +0.000 OA
ATOM      2  C   UNL     1       0.611   9.315  20.642  0.00  0.00    +0.000 C 
ATOM      3  N   UNL     1       1.665   8.815  19.912  0.00  0.00    +0.000 N 
ATOM      4  N   UNL     1       0.509  10.697  20.667  0.00  0.00    +0.000 N 
ATOM      5  C   UNL     1       1.301  11.677  19.902  0.00  0.00    +0.000 C 
ATOM      6  C   UNL     1       0.408  12.523  18.973  0.00  0.00    +0.000 C 
ATOM      7  N   UNL     1      -0.693  13.092  19.742  0.00  0.00    +0.000 N 
ATOM      8  C   UNL     1      -0.951  14.434  19.730  0.00  0.00    +0.000 A 
ATOM      9  N   UNL     1      -0.249  15.222  18.898  0.00  0.00    +0.000 NA
ATOM     10  C   UNL     1      -0.516  16.540  18.902  0.00  0.00    +0.000 A 
ATOM     11  C   UNL     1      -1.452  17.120  19.719  0.00  0.00    +0.000 A 
ATOM     12  C   UNL     1      -2.114  16.248  20.545  0.00  0.00    +0.000 A 
ATOM     13  N   UNL     1      -1.885  14.921  20.564  0.00  0.00    +0.000 NA
ATOM     14  C   UNL     1      -1.508  12.156  20.514  0.00  0.00    +0.000 C 
ATOM     15  C   UNL     1      -0.603  11.301  21.422  0.00  0.00    +0.000 C 
ATOM     16  H   UNL     1       2.422   9.448  19.732  0.00  0.00    +0.000 HD
ENDROOT
BRANCH   3  17
ATOM     17  C   UNL     1       1.951   7.457  19.663  0.00  0.00    +0.000 A 
ATOM     18  C   UNL     1       1.815   6.448  20.613  0.00  0.00    +0.000 A 
ATOM     19  C   UNL     1       2.173   5.134  20.304  0.00  0.00    +0.000 A 
ATOM     20  C   UNL     1       2.645   4.801  19.035  0.00  0.00    +0.000 A 
ATOM     21  C   UNL     1       2.782   5.804  18.079  0.00  0.00    +0.000 A 
ATOM     22  C   UNL     1       2.412   7.120  18.385  0.00  0.00    +0.000 A 
BRANCH  20  23
ATOM     23  O   UNL     1       2.995   3.495  18.890  0.00  0.00    +0.000 OA
BRANCH  23  24
ATOM     24  C   UNL     1       2.023   2.546  18.485  0.00  0.00    +0.000 C 
ATOM     25  F   UNL     1       2.385   1.789  17.429  0.00  0.00    +0.000 F 
ATOM     26  F   UNL     1       1.734   1.732  19.525  0.00  0.00    +0.000 F 
ATOM     27  F   UNL     1       0.895   3.210  18.147  0.00  0.00    +0.000 F 
ENDBRANCH  23  24
ENDBRANCH  20  23
ENDBRANCH   3  17
TORSDOF 3
ENDMDL
MODEL 9
REMARK VINA RESULT:      -7.0      7.758      9.799
REMARK  Name = 
REMARK  3 active torsions:
REMARK  status: ('A' for Active; 'I' for Inactive)
REMARK    1  A    between atoms: N_3  and  C_4
REMARK    2  A    between atoms: C_7  and  O_8
REMARK    3  A    between atoms: O_8  and  C_9
REMARK                            x       y       z     vdW  Elec       q    Type
REMARK                         _______ _______ _______ _____ _____    ______ ____
ROOT
ATOM      1  O   UNL     1       2.314   9.901  18.078  0.00  0.00    +0.000 OA
ATOM      2  C   UNL     1       1.585   9.280  18.849  0.00  0.00    +0.000 C 
ATOM      3  N   UNL     1       1.760   7.954  19.173  0.00  0.00    +0.000 N 
ATOM      4  N   UNL     1       0.502   9.899  19.451  0.00  0.00    +0.000 N 
ATOM      5  C   UNL     1      -0.390   9.354  20.491  0.00  0.00    +0.000 C 
ATOM      6  C   UNL     1      -0.332  10.195  21.782  0.00  0.00    +0.000 C 
ATOM      7  N   UNL     1      -0.556  11.599  21.458  0.00  0.00    +0.000 N 
ATOM      8  C   UNL     1      -1.522  12.331  22.091  0.00  0.00    +0.000 A 
ATOM      9  N   UNL     1      -2.191  11.773  23.115  0.00  0.00    +0.000 NA
ATOM     10  C   UNL     1      -3.138  12.508  23.723  0.00  0.00    +0.000 A 
ATOM     11  C   UNL     1      -3.464  13.785  23.346  0.00  0.00    +0.000 A 
ATOM     12  C   UNL     1      -2.743  14.274  22.287  0.00  0.00    +0.000 A 
ATOM     13  N   UNL     1      -1.779  13.576  21.657  0.00  0.00    +0.000 NA
ATOM     14  C   UNL     1       0.307  12.183  20.434  0.00  0.00    +0.000 C 
ATOM     15  C   UNL     1       0.259  11.323  19.157  0.00  0.00    +0.000 C 
ATOM     16  H   UNL     1       0.959   7.475  19.541  0.00  0.00    +0.000 HD
ENDROOT
BRANCH   3  17
ATOM     17  C   UNL     1       2.819   7.117  18.762  0.00  0.00    +0.000 A 
ATOM     18  C   UNL     1       3.224   5.980  19.458  0.00  0.00    +0.000 A 
ATOM     19  C   UNL     1       4.319   5.235  19.016  0.00  0.00    +0.000 A 
ATOM     20  C   UNL     1       5.009   5.594  17.859  0.00  0.00    +0.000 A 
ATOM     21  C   UNL     1       4.609   6.729  17.157  0.00  0.00    +0.000 A 
ATOM     22  C   UNL     1       3.504   7.470  17.594  0.00  0.00    +0.000 A 
BRANCH  20  23
ATOM     23  O   UNL     1       6.079   4.805  17.573  0.00  0.00    +0.000 OA
BRANCH  23  24
ATOM     24  C   UNL     1       7.382   5.223  17.944  0.00  0.00    +0.000 C 
ATOM     25  F   UNL     1       7.497   5.627  19.225  0.00  0.00    +0.000 F 
ATOM     26  F   UNL     1       8.252   4.211  17.727  0.00  0.00    +0.000 F 
ATOM     27  F   UNL     1       7.737   6.258  17.152  0.00  0.00    +0.000 F 
ENDBRANCH  23  24
ENDBRANCH  20  23
ENDBRANCH   3  17
TORSDOF 3
ENDMDL
