MODEL 1
REMARK VINA RESULT:      -8.5      0.000      0.000
REMARK  Name = 
REMARK  5 active torsions:
REMARK  status: ('A' for Active; 'I' for Inactive)
REMARK    1  A    between atoms: N_3  and  C_4
REMARK    2  A    between atoms: C_4  and  C_5
REMARK    3  A    between atoms: C_8  and  C_9
REMARK    4  A    between atoms: N_18  and  C_19
REMARK    5  A    between atoms: C_24  and  N_25
REMARK                            x       y       z     vdW  Elec       q    Type
REMARK                         _______ _______ _______ _____ _____    ______ ____
ROOT
ATOM      1  O   UNL     1       0.703  12.655  20.291  0.00  0.00    +0.000 OA
ATOM      2  C   UNL     1      -0.052  11.693  20.267  0.00  0.00    +0.000 C 
ATOM      3  N   UNL     1       0.238  10.498  19.677  0.00  0.00    +0.000 N 
ATOM      4  N   UNL     1      -1.302  11.703  20.829  0.00  0.00    +0.000 N 
ATOM      5  H   UNL     1      -0.259   9.689  20.018  0.00  0.00    +0.000 HD
ATOM      6  H   UNL     1      -1.971  11.034  20.467  0.00  0.00    +0.000 HD
ENDROOT
BRANCH   4   7
ATOM      7  C   UNL     1      -1.794  12.894  21.525  0.00  0.00    +0.000 C 
ATOM      8  C   UNL     1      -1.576  12.788  23.048  0.00  0.00    +0.000 C 
ATOM      9  O   UNL     1      -2.618  12.157  23.788  0.00  0.00    +0.000 OA
ATOM     10  C   UNL     1      -3.860  12.421  23.405  0.00  0.00    +0.000 A 
ATOM     11  N   UNL     1      -4.914  12.210  24.154  0.00  0.00    +0.000 NA
ATOM     12  C   UNL     1      -5.993  12.500  23.332  0.00  0.00    +0.000 A 
ATOM     13  C   UNL     1      -5.561  12.871  22.070  0.00  0.00    +0.000 A 
ATOM     14  N   UNL     1      -4.199  12.852  22.158  0.00  0.00    +0.000 N 
ATOM     15  C   UNL     1      -3.245  13.243  21.147  0.00  0.00    +0.000 C 
BRANCH  12  16
ATOM     16  N   UNL     1      -7.356  12.379  23.803  0.00  0.00    +0.000 N 
ATOM     17  O   UNL     1      -7.874  13.406  24.262  0.00  0.00    +0.000 OA
ATOM     18  O   UNL     1      -7.904  11.270  23.722  0.00  0.00    +0.000 OA
ENDBRANCH  12  16
ENDBRANCH   4   7
BRANCH   3  19
ATOM     19  C   UNL     1       1.536  10.244  19.079  0.00  0.00    +0.000 C 
BRANCH  19  20
ATOM     20  C   UNL     1       1.801   8.765  18.986  0.00  0.00    +0.000 A 
ATOM     21  C   UNL     1       2.145   8.196  17.757  0.00  0.00    +0.000 A 
ATOM     22  C   UNL     1       2.441   6.833  17.652  0.00  0.00    +0.000 A 
ATOM     23  C   UNL     1       2.427   5.987  18.777  0.00  0.00    +0.000 A 
ATOM     24  C   UNL     1       2.067   6.568  20.006  0.00  0.00    +0.000 A 
ATOM     25  C   UNL     1       1.754   7.935  20.111  0.00  0.00    +0.000 A 
BRANCH  23  26
ATOM     26  C   UNL     1       2.807   4.556  18.657  0.00  0.00    +0.000 A 
ATOM     27  C   UNL     1       3.809   4.001  19.482  0.00  0.00    +0.000 A 
ATOM     28  C   UNL     1       4.193   2.661  19.373  0.00  0.00    +0.000 A 
ATOM     29  C   UNL     1       3.566   1.848  18.444  0.00  0.00    +0.000 A 
ATOM     30  F   UNL     1       3.928   0.562  18.339  0.00  0.00    +0.000 F 
ATOM     31  C   UNL     1       2.566   2.349  17.623  0.00  0.00    +0.000 A 
ATOM     32  C   UNL     1       2.193   3.696  17.726  0.00  0.00    +0.000 A 
ENDBRANCH  23  26
ENDBRANCH  19  20
ENDBRANCH   3  19
TORSDOF 5
ENDMDL
MODEL 2
REMARK VINA RESULT:      -8.5      6.675     12.396
REMARK  Name = 
REMARK  5 active torsions:
REMARK  status: ('A' for Active; 'I' for Inactive)
REMARK    1  A    between atoms: N_3  and  C_4
REMARK    2  A    between atoms: C_4  and  C_5
REMARK    3  A    between atoms: C_8  and  C_9
REMARK    4  A    between atoms: N_18  and  C_19
REMARK    5  A    between atoms: C_24  and  N_25
REMARK                            x       y       z     vdW  Elec       q    Type
REMARK                         _______ _______ _______ _____ _____    ______ ____
ROOT
ATOM      1  O   UNL     1       2.907   4.733  20.527  0.00  0.00    +0.000 OA
ATOM      2  C   UNL     1       3.050   5.738  19.846  0.00  0.00    +0.000 C 
ATOM      3  N   UNL     1       2.318   6.881  19.991  0.00  0.00    +0.000 N 
ATOM      4  N   UNL     1       3.968   5.838  18.834  0.00  0.00    +0.000 N 
ATOM      5  H   UNL     1       2.739   7.737  19.662  0.00  0.00    +0.000 HD
ATOM      6  H   UNL     1       3.785   6.528  18.116  0.00  0.00    +0.000 HD
ENDROOT
BRANCH   4   7
ATOM      7  C   UNL     1       4.862   4.718  18.530  0.00  0.00    +0.000 C 
ATOM      8  C   UNL     1       6.336   5.083  18.800  0.00  0.00    +0.000 C 
ATOM      9  O   UNL     1       7.039   5.692  17.720  0.00  0.00    +0.000 OA
ATOM     10  C   UNL     1       6.779   5.224  16.506  0.00  0.00    +0.000 A 
ATOM     11  N   UNL     1       7.554   5.420  15.468  0.00  0.00    +0.000 NA
ATOM     12  C   UNL     1       6.853   4.879  14.400  0.00  0.00    +0.000 A 
ATOM     13  C   UNL     1       5.635   4.372  14.819  0.00  0.00    +0.000 A 
ATOM     14  N   UNL     1       5.633   4.568  16.171  0.00  0.00    +0.000 N 
ATOM     15  C   UNL     1       4.633   4.143  17.120  0.00  0.00    +0.000 C 
BRANCH  12  16
ATOM     16  N   UNL     1       7.386   4.906  13.054  0.00  0.00    +0.000 N 
ATOM     17  O   UNL     1       6.978   4.028  12.282  0.00  0.00    +0.000 OA
ATOM     18  O   UNL     1       8.208   5.790  12.771  0.00  0.00    +0.000 OA
ENDBRANCH  12  16
ENDBRANCH   4   7
BRANCH   3  19
ATOM     19  C   UNL     1       1.334   7.021  21.048  0.00  0.00    +0.000 C 
BRANCH  19  20
ATOM     20  C   UNL     1       0.837   8.439  21.133  0.00  0.00    +0.000 A 
ATOM     21  C   UNL     1       0.263   8.906  22.318  0.00  0.00    +0.000 A 
ATOM     22  C   UNL     1      -0.166  10.232  22.437  0.00  0.00    +0.000 A 
ATOM     23  C   UNL     1      -0.017  11.151  21.383  0.00  0.00    +0.000 A 
ATOM     24  C   UNL     1       0.550  10.667  20.191  0.00  0.00    +0.000 A 
ATOM     25  C   UNL     1       0.967   9.331  20.063  0.00  0.00    +0.000 A 
BRANCH  23  26
ATOM     26  C   UNL     1      -0.418  12.572  21.551  0.00  0.00    +0.000 A 
ATOM     27  C   UNL     1      -0.938  13.039  22.777  0.00  0.00    +0.000 A 
ATOM     28  C   UNL     1      -1.336  14.368  22.948  0.00  0.00    +0.000 A 
ATOM     29  C   UNL     1      -1.205  15.259  21.896  0.00  0.00    +0.000 A 
ATOM     30  F   UNL     1      -1.582  16.534  22.057  0.00  0.00    +0.000 F 
ATOM     31  C   UNL     1      -0.686  14.844  20.678  0.00  0.00    +0.000 A 
ATOM     32  C   UNL     1      -0.300  13.508  20.505  0.00  0.00    +0.000 A 
ENDBRANCH  23  26
ENDBRANCH  19  20
ENDBRANCH   3  19
TORSDOF 5
ENDMDL
MODEL 3
REMARK VINA RESULT:      -8.4      6.579     12.360
REMARK  Name = 
REMARK  5 active torsions:
REMARK  status: ('A' for Active; 'I' for Inactive)
REMARK    1  A    between atoms: N_3  and  C_4
REMARK    2  A    between atoms: C_4  and  C_5
REMARK    3  A    between atoms: C_8  and  C_9
REMARK    4  A    between atoms: N_18  and  C_19
REMARK    5  A    between atoms: C_24  and  N_25
REMARK                            x       y       z     vdW  Elec       q    Type
REMARK                         _______ _______ _______ _____ _____    ______ ____
ROOT
ATOM      1  O   UNL     1       2.911   4.773  20.494  0.00  0.00    +0.000 OA
ATOM      2  C   UNL     1       3.017   5.745  19.758  0.00  0.00    +0.000 C 
ATOM      3  N   UNL     1       2.327   6.913  19.916  0.00  0.00    +0.000 N 
ATOM      4  N   UNL     1       3.843   5.777  18.666  0.00  0.00    +0.000 N 
ATOM      5  H   UNL     1       2.737   7.742  19.513  0.00  0.00    +0.000 HD
ATOM      6  H   UNL     1       3.613   6.441  17.937  0.00  0.00    +0.000 HD
ENDROOT
BRANCH   4   7
ATOM      7  C   UNL     1       4.681   4.621  18.335  0.00  0.00    +0.000 C 
ATOM      8  C   UNL     1       6.161   4.879  18.686  0.00  0.00    +0.000 C 
ATOM      9  O   UNL     1       6.946   5.500  17.671  0.00  0.00    +0.000 OA
ATOM     10  C   UNL     1       6.712   5.116  16.422  0.00  0.00    +0.000 A 
ATOM     11  N   UNL     1       7.542   5.319  15.430  0.00  0.00    +0.000 NA
ATOM     12  C   UNL     1       6.858   4.882  14.305  0.00  0.00    +0.000 A 
ATOM     13  C   UNL     1       5.594   4.431  14.645  0.00  0.00    +0.000 A 
ATOM     14  N   UNL     1       5.544   4.552  16.005  0.00  0.00    +0.000 N 
ATOM     15  C   UNL     1       4.480   4.140  16.887  0.00  0.00    +0.000 C 
BRANCH  12  16
ATOM     16  N   UNL     1       7.450   4.949  12.986  0.00  0.00    +0.000 N 
ATOM     17  O   UNL     1       7.073   4.098  12.169  0.00  0.00    +0.000 OA
ATOM     18  O   UNL     1       8.286   5.837  12.768  0.00  0.00    +0.000 OA
ENDBRANCH  12  16
ENDBRANCH   4   7
BRANCH   3  19
ATOM     19  C   UNL     1       1.445   7.123  21.049  0.00  0.00    +0.000 C 
BRANCH  19  20
ATOM     20  C   UNL     1       0.897   8.525  21.046  0.00  0.00    +0.000 A 
ATOM     21  C   UNL     1       1.038   9.325  19.910  0.00  0.00    +0.000 A 
ATOM     22  C   UNL     1       0.499  10.615  19.865  0.00  0.00    +0.000 A 
ATOM     23  C   UNL     1      -0.223  11.149  20.948  0.00  0.00    +0.000 A 
ATOM     24  C   UNL     1      -0.348  10.340  22.092  0.00  0.00    +0.000 A 
ATOM     25  C   UNL     1       0.207   9.049  22.145  0.00  0.00    +0.000 A 
BRANCH  23  26
ATOM     26  C   UNL     1      -0.845  12.496  20.859  0.00  0.00    +0.000 A 
ATOM     27  C   UNL     1      -2.001  12.812  21.604  0.00  0.00    +0.000 A 
ATOM     28  C   UNL     1      -2.610  14.067  21.520  0.00  0.00    +0.000 A 
ATOM     29  C   UNL     1      -2.059  15.036  20.698  0.00  0.00    +0.000 A 
ATOM     30  F   UNL     1      -2.638  16.242  20.616  0.00  0.00    +0.000 F 
ATOM     31  C   UNL     1      -0.915  14.772  19.958  0.00  0.00    +0.000 A 
ATOM     32  C   UNL     1      -0.315  13.508  20.035  0.00  0.00    +0.000 A 
ENDBRANCH  23  26
ENDBRANCH  19  20
ENDBRANCH   3  19
TORSDOF 5
ENDMDL
MODEL 4
REMARK VINA RESULT:      -8.3      9.304     12.692
REMARK  Name = 
REMARK  5 active torsions:
REMARK  status: ('A' for Active; 'I' for Inactive)
REMARK    1  A    between atoms: N_3  and  C_4
REMARK    2  A    between atoms: C_4  and  C_5
REMARK    3  A    between atoms: C_8  and  C_9
REMARK    4  A    between atoms: N_18  and  C_19
REMARK    5  A    between atoms: C_24  and  N_25
REMARK                            x       y       z     vdW  Elec       q    Type
REMARK                         _______ _______ _______ _____ _____    ______ ____
ROOT
ATOM      1  O   UNL     1       8.087   6.583  18.812  0.00  0.00    +0.000 OA
ATOM      2  C   UNL     1       7.885   7.367  17.895  0.00  0.00    +0.000 C 
ATOM      3  N   UNL     1       8.190   8.697  17.935  0.00  0.00    +0.000 N 
ATOM      4  N   UNL     1       7.310   7.005  16.706  0.00  0.00    +0.000 N 
ATOM      5  H   UNL     1       8.331   9.159  17.049  0.00  0.00    +0.000 HD
ATOM      6  H   UNL     1       6.863   7.739  16.171  0.00  0.00    +0.000 HD
ENDROOT
BRANCH   4   7
ATOM      7  C   UNL     1       6.923   5.612  16.463  0.00  0.00    +0.000 C 
ATOM      8  C   UNL     1       5.674   5.523  15.562  0.00  0.00    +0.000 C 
ATOM      9  O   UNL     1       4.416   5.558  16.230  0.00  0.00    +0.000 OA
ATOM     10  C   UNL     1       4.338   4.905  17.382  0.00  0.00    +0.000 A 
ATOM     11  N   UNL     1       3.209   4.552  17.946  0.00  0.00    +0.000 NA
ATOM     12  C   UNL     1       3.581   4.018  19.170  0.00  0.00    +0.000 A 
ATOM     13  C   UNL     1       4.954   4.074  19.334  0.00  0.00    +0.000 A 
ATOM     14  N   UNL     1       5.414   4.604  18.162  0.00  0.00    +0.000 N 
ATOM     15  C   UNL     1       6.787   4.800  17.763  0.00  0.00    +0.000 C 
BRANCH  12  16
ATOM     16  N   UNL     1       2.597   3.514  20.105  0.00  0.00    +0.000 N 
ATOM     17  O   UNL     1       2.322   4.247  21.065  0.00  0.00    +0.000 OA
ATOM     18  O   UNL     1       2.108   2.395  19.889  0.00  0.00    +0.000 OA
ENDBRANCH  12  16
ENDBRANCH   4   7
BRANCH   3  19
ATOM     19  C   UNL     1       8.868   9.284  19.076  0.00  0.00    +0.000 C 
BRANCH  19  20
ATOM     20  C   UNL     1       9.236  10.717  18.799  0.00  0.00    +0.000 A 
ATOM     21  C   UNL     1      10.326  11.295  19.456  0.00  0.00    +0.000 A 
ATOM     22  C   UNL     1      10.717  12.610  19.183  0.00  0.00    +0.000 A 
ATOM     23  C   UNL     1      10.046  13.395  18.227  0.00  0.00    +0.000 A 
ATOM     24  C   UNL     1       8.943  12.807  17.582  0.00  0.00    +0.000 A 
ATOM     25  C   UNL     1       8.539  11.491  17.865  0.00  0.00    +0.000 A 
BRANCH  23  26
ATOM     26  C   UNL     1      10.516  14.766  17.904  0.00  0.00    +0.000 A 
ATOM     27  C   UNL     1       9.618  15.855  17.889  0.00  0.00    +0.000 A 
ATOM     28  C   UNL     1      10.038  17.150  17.571  0.00  0.00    +0.000 A 
ATOM     29  C   UNL     1      11.372  17.380  17.277  0.00  0.00    +0.000 A 
ATOM     30  F   UNL     1      11.779  18.620  16.974  0.00  0.00    +0.000 F 
ATOM     31  C   UNL     1      12.290  16.340  17.293  0.00  0.00    +0.000 A 
ATOM     32  C   UNL     1      11.864  15.041  17.600  0.00  0.00    +0.000 A 
ENDBRANCH  23  26
ENDBRANCH  19  20
ENDBRANCH   3  19
TORSDOF 5
ENDMDL
MODEL 5
REMARK VINA RESULT:      -8.3      6.619     12.347
REMARK  Name = 
REMARK  5 active torsions:
REMARK  status: ('A' for Active; 'I' for Inactive)
REMARK    1  A    between atoms: N_3  and  C_4
REMARK    2  A    between atoms: C_4  and  C_5
REMARK    3  A    between atoms: C_8  and  C_9
REMARK    4  A    between atoms: N_18  and  C_19
REMARK    5  A    between atoms: C_24  and  N_25
REMARK                            x       y       z     vdW  Elec       q    Type
REMARK                         _______ _______ _______ _____ _____    ______ ____
ROOT
ATOM      1  O   UNL     1       2.454   4.580  20.233  0.00  0.00    +0.000 OA
ATOM      2  C   UNL     1       2.856   5.652  19.801  0.00  0.00    +0.000 C 
ATOM      3  N   UNL     1       2.279   6.859  20.070  0.00  0.00    +0.000 N 
ATOM      4  N   UNL     1       3.944   5.772  18.976  0.00  0.00    +0.000 N 
ATOM      5  H   UNL     1       2.868   7.674  19.989  0.00  0.00    +0.000 HD
ATOM      6  H   UNL     1       3.989   6.601  18.397  0.00  0.00    +0.000 HD
ENDROOT
BRANCH   4   7
ATOM      7  C   UNL     1       4.711   4.587  18.582  0.00  0.00    +0.000 C 
ATOM      8  C   UNL     1       6.205   4.742  18.930  0.00  0.00    +0.000 C 
ATOM      9  O   UNL     1       7.018   5.365  17.938  0.00  0.00    +0.000 OA
ATOM     10  C   UNL     1       6.752   5.056  16.675  0.00  0.00    +0.000 A 
ATOM     11  N   UNL     1       7.586   5.258  15.685  0.00  0.00    +0.000 NA
ATOM     12  C   UNL     1       6.869   4.916  14.548  0.00  0.00    +0.000 A 
ATOM     13  C   UNL     1       5.584   4.522  14.878  0.00  0.00    +0.000 A 
ATOM     14  N   UNL     1       5.552   4.581  16.242  0.00  0.00    +0.000 N 
ATOM     15  C   UNL     1       4.471   4.188  17.115  0.00  0.00    +0.000 C 
BRANCH  12  16
ATOM     16  N   UNL     1       7.454   5.013  13.227  0.00  0.00    +0.000 N 
ATOM     17  O   UNL     1       8.384   5.820  13.094  0.00  0.00    +0.000 OA
ATOM     18  O   UNL     1       6.988   4.296  12.330  0.00  0.00    +0.000 OA
ENDBRANCH  12  16
ENDBRANCH   4   7
BRANCH   3  19
ATOM     19  C   UNL     1       1.153   6.974  20.978  0.00  0.00    +0.000 C 
BRANCH  19  20
ATOM     20  C   UNL     1       0.810   8.418  21.226  0.00  0.00    +0.000 A 
ATOM     21  C   UNL     1       1.040   9.369  20.228  0.00  0.00    +0.000 A 
ATOM     22  C   UNL     1       0.689  10.709  20.416  0.00  0.00    +0.000 A 
ATOM     23  C   UNL     1       0.074  11.151  21.601  0.00  0.00    +0.000 A 
ATOM     24  C   UNL     1      -0.141  10.188  22.604  0.00  0.00    +0.000 A 
ATOM     25  C   UNL     1       0.226   8.843  22.424  0.00  0.00    +0.000 A 
BRANCH  23  26
ATOM     26  C   UNL     1      -0.351  12.566  21.757  0.00  0.00    +0.000 A 
ATOM     27  C   UNL     1       0.091  13.559  20.857  0.00  0.00    +0.000 A 
ATOM     28  C   UNL     1      -0.285  14.898  20.997  0.00  0.00    +0.000 A 
ATOM     29  C   UNL     1      -1.126  15.264  22.035  0.00  0.00    +0.000 A 
ATOM     30  F   UNL     1      -1.491  16.546  22.172  0.00  0.00    +0.000 F 
ATOM     31  C   UNL     1      -1.594  14.317  22.935  0.00  0.00    +0.000 A 
ATOM     32  C   UNL     1      -1.206  12.977  22.799  0.00  0.00    +0.000 A 
ENDBRANCH  23  26
ENDBRANCH  19  20
ENDBRANCH   3  19
TORSDOF 5
ENDMDL
MODEL 6
REMARK VINA RESULT:      -8.2      0.886      1.446
REMARK  Name = 
REMARK  5 active torsions:
REMARK  status: ('A' for Active; 'I' for Inactive)
REMARK    1  A    between atoms: N_3  and  C_4
REMARK    2  A    between atoms: C_4  and  C_5
REMARK    3  A    between atoms: C_8  and  C_9
REMARK    4  A    between atoms: N_18  and  C_19
REMARK    5  A    between atoms: C_24  and  N_25
REMARK                            x       y       z     vdW  Elec       q    Type
REMARK                         _______ _______ _______ _____ _____    ______ ____
ROOT
ATOM      1  O   UNL     1       0.925  13.129  20.808  0.00  0.00    +0.000 OA
ATOM      2  C   UNL     1      -0.000  12.497  20.316  0.00  0.00    +0.000 C 
ATOM      3  N   UNL     1       0.125  11.636  19.264  0.00  0.00    +0.000 N 
ATOM      4  N   UNL     1      -1.293  12.586  20.759  0.00  0.00    +0.000 N 
ATOM      5  H   UNL     1      -0.576  10.915  19.179  0.00  0.00    +0.000 HD
ATOM      6  H   UNL     1      -2.021  12.331  20.102  0.00  0.00    +0.000 HD
ENDROOT
BRANCH   4   7
ATOM      7  C   UNL     1      -1.631  13.450  21.893  0.00  0.00    +0.000 C 
ATOM      8  C   UNL     1      -1.424  12.723  23.237  0.00  0.00    +0.000 C 
ATOM      9  O   UNL     1      -2.535  11.973  23.721  0.00  0.00    +0.000 OA
ATOM     10  C   UNL     1      -3.736  12.507  23.538  0.00  0.00    +0.000 A 
ATOM     11  N   UNL     1      -4.806  12.137  24.197  0.00  0.00    +0.000 NA
ATOM     12  C   UNL     1      -5.842  12.850  23.612  0.00  0.00    +0.000 A 
ATOM     13  C   UNL     1      -5.371  13.641  22.578  0.00  0.00    +0.000 A 
ATOM     14  N   UNL     1      -4.021  13.433  22.581  0.00  0.00    +0.000 N 
ATOM     15  C   UNL     1      -3.028  14.083  21.759  0.00  0.00    +0.000 C 
BRANCH  12  16
ATOM     16  N   UNL     1      -7.209  12.708  24.067  0.00  0.00    +0.000 N 
ATOM     17  O   UNL     1      -7.720  11.588  23.935  0.00  0.00    +0.000 OA
ATOM     18  O   UNL     1      -7.770  13.705  24.545  0.00  0.00    +0.000 OA
ENDBRANCH  12  16
ENDBRANCH   4   7
BRANCH   3  19
ATOM     19  C   UNL     1       1.420  11.337  18.680  0.00  0.00    +0.000 C 
BRANCH  19  20
ATOM     20  C   UNL     1       1.710   9.862  18.747  0.00  0.00    +0.000 A 
ATOM     21  C   UNL     1       1.407   9.145  19.908  0.00  0.00    +0.000 A 
ATOM     22  C   UNL     1       1.624   7.766  19.980  0.00  0.00    +0.000 A 
ATOM     23  C   UNL     1       2.133   7.042  18.886  0.00  0.00    +0.000 A 
ATOM     24  C   UNL     1       2.446   7.775  17.728  0.00  0.00    +0.000 A 
ATOM     25  C   UNL     1       2.244   9.165  17.658  0.00  0.00    +0.000 A 
BRANCH  23  26
ATOM     26  C   UNL     1       2.296   5.567  18.959  0.00  0.00    +0.000 A 
ATOM     27  C   UNL     1       2.794   4.949  20.126  0.00  0.00    +0.000 A 
ATOM     28  C   UNL     1       2.970   3.564  20.207  0.00  0.00    +0.000 A 
ATOM     29  C   UNL     1       2.633   2.771  19.123  0.00  0.00    +0.000 A 
ATOM     30  F   UNL     1       2.797   1.444  19.197  0.00  0.00    +0.000 F 
ATOM     31  C   UNL     1       2.127   3.337  17.961  0.00  0.00    +0.000 A 
ATOM     32  C   UNL     1       1.964   4.726  17.878  0.00  0.00    +0.000 A 
ENDBRANCH  23  26
ENDBRANCH  19  20
ENDBRANCH   3  19
TORSDOF 5
ENDMDL
MODEL 7
REMARK VINA RESULT:      -8.1      6.332     12.082
REMARK  Name = 
REMARK  5 active torsions:
REMARK  status: ('A' for Active; 'I' for Inactive)
REMARK    1  A    between atoms: N_3  and  C_4
REMARK    2  A    between atoms: C_4  and  C_5
REMARK    3  A    between atoms: C_8  and  C_9
REMARK    4  A    between atoms: N_18  and  C_19
REMARK    5  A    between atoms: C_24  and  N_25
REMARK                            x       y       z     vdW  Elec       q    Type
REMARK                         _______ _______ _______ _____ _____    ______ ____
ROOT
ATOM      1  O   UNL     1       1.312   5.210  20.222  0.00  0.00    +0.000 OA
ATOM      2  C   UNL     1       2.205   6.045  20.188  0.00  0.00    +0.000 C 
ATOM      3  N   UNL     1       2.102   7.308  20.697  0.00  0.00    +0.000 N 
ATOM      4  N   UNL     1       3.430   5.816  19.619  0.00  0.00    +0.000 N 
ATOM      5  H   UNL     1       2.963   7.769  20.950  0.00  0.00    +0.000 HD
ATOM      6  H   UNL     1       3.954   6.629  19.318  0.00  0.00    +0.000 HD
ENDROOT
BRANCH   4   7
ATOM      7  C   UNL     1       3.742   4.511  19.029  0.00  0.00    +0.000 C 
ATOM      8  C   UNL     1       5.135   4.014  19.465  0.00  0.00    +0.000 C 
ATOM      9  O   UNL     1       6.231   4.431  18.654  0.00  0.00    +0.000 OA
ATOM     10  C   UNL     1       6.019   4.467  17.345  0.00  0.00    +0.000 A 
ATOM     11  N   UNL     1       6.978   4.494  16.452  0.00  0.00    +0.000 NA
ATOM     12  C   UNL     1       6.323   4.653  15.240  0.00  0.00    +0.000 A 
ATOM     13  C   UNL     1       4.954   4.739  15.428  0.00  0.00    +0.000 A 
ATOM     14  N   UNL     1       4.787   4.574  16.774  0.00  0.00    +0.000 N 
ATOM     15  C   UNL     1       3.544   4.490  17.503  0.00  0.00    +0.000 C 
BRANCH  12  16
ATOM     16  N   UNL     1       7.052   4.736  13.992  0.00  0.00    +0.000 N 
ATOM     17  O   UNL     1       8.005   5.528  13.962  0.00  0.00    +0.000 OA
ATOM     18  O   UNL     1       6.676   4.026  13.049  0.00  0.00    +0.000 OA
ENDBRANCH  12  16
ENDBRANCH   4   7
BRANCH   3  19
ATOM     19  C   UNL     1       0.913   7.744  21.406  0.00  0.00    +0.000 C 
BRANCH  19  20
ATOM     20  C   UNL     1       0.634   9.198  21.139  0.00  0.00    +0.000 A 
ATOM     21  C   UNL     1       0.819   9.718  19.855  0.00  0.00    +0.000 A 
ATOM     22  C   UNL     1       0.524  11.055  19.570  0.00  0.00    +0.000 A 
ATOM     23  C   UNL     1       0.011  11.922  20.552  0.00  0.00    +0.000 A 
ATOM     24  C   UNL     1      -0.159  11.391  21.844  0.00  0.00    +0.000 A 
ATOM     25  C   UNL     1       0.152  10.052  22.137  0.00  0.00    +0.000 A 
BRANCH  23  26
ATOM     26  C   UNL     1      -0.359  13.321  20.215  0.00  0.00    +0.000 A 
ATOM     27  C   UNL     1       0.294  14.012  19.172  0.00  0.00    +0.000 A 
ATOM     28  C   UNL     1      -0.028  15.334  18.851  0.00  0.00    +0.000 A 
ATOM     29  C   UNL     1      -1.024  15.983  19.561  0.00  0.00    +0.000 A 
ATOM     30  F   UNL     1      -1.338  17.249  19.256  0.00  0.00    +0.000 F 
ATOM     31  C   UNL     1      -1.700  15.336  20.586  0.00  0.00    +0.000 A 
ATOM     32  C   UNL     1      -1.366  14.015  20.913  0.00  0.00    +0.000 A 
ENDBRANCH  23  26
ENDBRANCH  19  20
ENDBRANCH   3  19
TORSDOF 5
ENDMDL
MODEL 8
REMARK VINA RESULT:      -8.0      5.284      8.470
REMARK  Name = 
REMARK  5 active torsions:
REMARK  status: ('A' for Active; 'I' for Inactive)
REMARK    1  A    between atoms: N_3  and  C_4
REMARK    2  A    between atoms: C_4  and  C_5
REMARK    3  A    between atoms: C_8  and  C_9
REMARK    4  A    between atoms: N_18  and  C_19
REMARK    5  A    between atoms: C_24  and  N_25
REMARK                            x       y       z     vdW  Elec       q    Type
REMARK                         _______ _______ _______ _____ _____    ______ ____
ROOT
ATOM      1  O   UNL     1       1.824  12.975  21.326  0.00  0.00    +0.000 OA
ATOM      2  C   UNL     1       1.997  13.165  20.130  0.00  0.00    +0.000 C 
ATOM      3  N   UNL     1       1.421  12.424  19.138  0.00  0.00    +0.000 N 
ATOM      4  N   UNL     1       2.810  14.149  19.633  0.00  0.00    +0.000 N 
ATOM      5  H   UNL     1       1.325  12.867  18.237  0.00  0.00    +0.000 HD
ATOM      6  H   UNL     1       3.172  14.015  18.697  0.00  0.00    +0.000 HD
ENDROOT
BRANCH   4   7
ATOM      7  C   UNL     1       3.510  15.062  20.541  0.00  0.00    +0.000 C 
ATOM      8  C   UNL     1       3.159  16.533  20.242  0.00  0.00    +0.000 C 
ATOM      9  O   UNL     1       3.970  17.185  19.267  0.00  0.00    +0.000 OA
ATOM     10  C   UNL     1       5.265  16.897  19.285  0.00  0.00    +0.000 A 
ATOM     11  N   UNL     1       6.182  17.633  18.708  0.00  0.00    +0.000 NA
ATOM     12  C   UNL     1       7.357  16.912  18.861  0.00  0.00    +0.000 A 
ATOM     13  C   UNL     1       7.119  15.722  19.526  0.00  0.00    +0.000 A 
ATOM     14  N   UNL     1       5.785  15.759  19.821  0.00  0.00    +0.000 N 
ATOM     15  C   UNL     1       5.026  14.802  20.589  0.00  0.00    +0.000 C 
BRANCH  12  16
ATOM     16  N   UNL     1       8.617  17.400  18.342  0.00  0.00    +0.000 N 
ATOM     17  O   UNL     1       8.749  18.630  18.280  0.00  0.00    +0.000 OA
ATOM     18  O   UNL     1       9.464  16.566  17.992  0.00  0.00    +0.000 OA
ENDBRANCH  12  16
ENDBRANCH   4   7
BRANCH   3  19
ATOM     19  C   UNL     1       0.469  11.371  19.436  0.00  0.00    +0.000 C 
BRANCH  19  20
ATOM     20  C   UNL     1       1.097  10.015  19.254  0.00  0.00    +0.000 A 
ATOM     21  C   UNL     1       1.157   9.126  20.330  0.00  0.00    +0.000 A 
ATOM     22  C   UNL     1       1.694   7.844  20.175  0.00  0.00    +0.000 A 
ATOM     23  C   UNL     1       2.174   7.391  18.933  0.00  0.00    +0.000 A 
ATOM     24  C   UNL     1       2.120   8.299  17.860  0.00  0.00    +0.000 A 
ATOM     25  C   UNL     1       1.595   9.593  18.016  0.00  0.00    +0.000 A 
BRANCH  23  26
ATOM     26  C   UNL     1       2.681   6.003  18.773  0.00  0.00    +0.000 A 
ATOM     27  C   UNL     1       3.837   5.570  19.457  0.00  0.00    +0.000 A 
ATOM     28  C   UNL     1       4.339   4.274  19.305  0.00  0.00    +0.000 A 
ATOM     29  C   UNL     1       3.679   3.382  18.477  0.00  0.00    +0.000 A 
ATOM     30  F   UNL     1       4.155   2.138  18.331  0.00  0.00    +0.000 F 
ATOM     31  C   UNL     1       2.531   3.763  17.796  0.00  0.00    +0.000 A 
ATOM     32  C   UNL     1       2.038   5.067  17.940  0.00  0.00    +0.000 A 
ENDBRANCH  23  26
ENDBRANCH  19  20
ENDBRANCH   3  19
TORSDOF 5
ENDMDL
MODEL 9
REMARK VINA RESULT:      -8.0      6.851     12.466
REMARK  Name = 
REMARK  5 active torsions:
REMARK  status: ('A' for Active; 'I' for Inactive)
REMARK    1  A    between atoms: N_3  and  C_4
REMARK    2  A    between atoms: C_4  and  C_5
REMARK    3  A    between atoms: C_8  and  C_9
REMARK    4  A    between atoms: N_18  and  C_19
REMARK    5  A    between atoms: C_24  and  N_25
REMARK                            x       y       z     vdW  Elec       q    Type
REMARK                         _______ _______ _______ _____ _____    ______ ____
ROOT
ATOM      1  O   UNL     1       3.660   4.858  20.017  0.00  0.00    +0.000 OA
ATOM      2  C   UNL     1       3.681   5.893  19.365  0.00  0.00    +0.000 C 
ATOM      3  N   UNL     1       2.754   6.890  19.467  0.00  0.00    +0.000 N 
ATOM      4  N   UNL     1       4.645   6.178  18.434  0.00  0.00    +0.000 N 
ATOM      5  H   UNL     1       3.046   7.814  19.187  0.00  0.00    +0.000 HD
ATOM      6  H   UNL     1       4.402   6.847  17.714  0.00  0.00    +0.000 HD
ENDROOT
BRANCH   4   7
ATOM      7  C   UNL     1       5.740   5.235  18.188  0.00  0.00    +0.000 C 
ATOM      8  C   UNL     1       7.036   5.969  17.789  0.00  0.00    +0.000 C 
ATOM      9  O   UNL     1       7.204   6.234  16.398  0.00  0.00    +0.000 OA
ATOM     10  C   UNL     1       6.802   5.286  15.562  0.00  0.00    +0.000 A 
ATOM     11  N   UNL     1       7.179   5.213  14.309  0.00  0.00    +0.000 NA
ATOM     12  C   UNL     1       6.437   4.166  13.781  0.00  0.00    +0.000 A 
ATOM     13  C   UNL     1       5.596   3.628  14.740  0.00  0.00    +0.000 A 
ATOM     14  N   UNL     1       5.881   4.333  15.875  0.00  0.00    +0.000 N 
ATOM     15  C   UNL     1       5.350   4.121  17.200  0.00  0.00    +0.000 C 
BRANCH  12  16
ATOM     16  N   UNL     1       6.567   3.772  12.394  0.00  0.00    +0.000 N 
ATOM     17  O   UNL     1       5.719   2.976  11.966  0.00  0.00    +0.000 OA
ATOM     18  O   UNL     1       7.507   4.245  11.740  0.00  0.00    +0.000 OA
ENDBRANCH  12  16
ENDBRANCH   4   7
BRANCH   3  19
ATOM     19  C   UNL     1       1.681   6.829  20.442  0.00  0.00    +0.000 C 
BRANCH  19  20
ATOM     20  C   UNL     1       1.210   8.211  20.807  0.00  0.00    +0.000 A 
ATOM     21  C   UNL     1       1.147   9.206  19.827  0.00  0.00    +0.000 A 
ATOM     22  C   UNL     1       0.670  10.485  20.130  0.00  0.00    +0.000 A 
ATOM     23  C   UNL     1       0.217  10.817  21.420  0.00  0.00    +0.000 A 
ATOM     24  C   UNL     1       0.298   9.812  22.401  0.00  0.00    +0.000 A 
ATOM     25  C   UNL     1       0.791   8.529  22.103  0.00  0.00    +0.000 A 
BRANCH  23  26
ATOM     26  C   UNL     1      -0.346  12.161  21.707  0.00  0.00    +0.000 A 
ATOM     27  C   UNL     1      -0.124  13.243  20.829  0.00  0.00    +0.000 A 
ATOM     28  C   UNL     1      -0.632  14.519  21.091  0.00  0.00    +0.000 A 
ATOM     29  C   UNL     1      -1.387  14.729  22.232  0.00  0.00    +0.000 A 
ATOM     30  F   UNL     1      -1.878  15.950  22.486  0.00  0.00    +0.000 F 
ATOM     31  C   UNL     1      -1.641  13.690  23.116  0.00  0.00    +0.000 A 
ATOM     32  C   UNL     1      -1.120  12.415  22.857  0.00  0.00    +0.000 A 
ENDBRANCH  23  26
ENDBRANCH  19  20
ENDBRANCH   3  19
TORSDOF 5
ENDMDL
