MODEL 1
REMARK VINA RESULT:      -6.9      0.000      0.000
REMARK  Name = 
REMARK  12 active torsions:
REMARK  status: ('A' for Active; 'I' for Inactive)
REMARK    1  A    between atoms: C_1  and  C_2
REMARK    2  A    between atoms: C_2  and  C_3
REMARK    3  A    between atoms: C_3  and  C_4
REMARK    4  A    between atoms: C_4  and  C_5
REMARK    5  A    between atoms: C_5  and  C_6
REMARK    6  A    between atoms: C_6  and  C_7
REMARK    7  A    between atoms: C_7  and  C_8
REMARK    8  A    between atoms: C_8  and  N_9
REMARK    9  A    between atoms: N_9  and  C_10
REMARK   10  A    between atoms: C_15  and  C_16
REMARK   11  A    between atoms: N_24  and  C_25
REMARK   12  A    between atoms: C_29  and  C_30
REMARK                            x       y       z     vdW  Elec       q    Type
REMARK                         _______ _______ _______ _____ _____    ______ ____
ROOT
ATOM      1  C   UNL     1      -0.089  11.113  19.414  0.00  0.00    +0.000 A 
ATOM      2  C   UNL     1       0.582   9.940  19.522  0.00  0.00    +0.000 A 
ATOM      3  C   UNL     1       1.326   9.293  18.410  0.00  0.00    +0.000 A 
ATOM      4  O   UNL     1       1.467   9.778  17.296  0.00  0.00    +0.000 OA
ATOM      5  N   UNL     1       1.878   8.083  18.679  0.00  0.00    +0.000 NA
ATOM      6  C   UNL     1       1.857   7.550  19.848  0.00  0.00    +0.000 A 
ATOM      7  N   UNL     1       1.279   8.112  20.947  0.00  0.00    +0.000 NA
ATOM      8  C   UNL     1       0.651   9.255  20.840  0.00  0.00    +0.000 A 
ATOM      9  N   UNL     1       0.053   9.809  21.972  0.00  0.00    +0.000 N 
ATOM     10  C   UNL     1       0.087   9.125  23.263  0.00  0.00    +0.000 C 
ATOM     11  C   UNL     1      -0.616  11.051  21.893  0.00  0.00    +0.000 A 
ATOM     12  C   UNL     1      -1.197  11.668  23.023  0.00  0.00    +0.000 A 
ATOM     13  C   UNL     1      -1.853  12.899  22.947  0.00  0.00    +0.000 A 
ATOM     14  C   UNL     1      -1.974  13.545  21.725  0.00  0.00    +0.000 A 
ATOM     15  C   UNL     1      -2.643  14.881  21.604  0.00  0.00    +0.000 C 
ATOM     16  C   UNL     1      -1.428  12.935  20.588  0.00  0.00    +0.000 A 
ATOM     17  C   UNL     1      -0.717  11.713  20.645  0.00  0.00    +0.000 A 
ENDROOT
BRANCH   6  18
ATOM     18  C   UNL     1       2.482   6.202  20.016  0.00  0.00    +0.000 A 
ATOM     19  C   UNL     1       3.670   5.908  19.324  0.00  0.00    +0.000 A 
ATOM     20  C   UNL     1       4.223   4.630  19.374  0.00  0.00    +0.000 A 
ATOM     21  C   UNL     1       3.604   3.638  20.134  0.00  0.00    +0.000 A 
ATOM     22  C   UNL     1       2.449   3.932  20.858  0.00  0.00    +0.000 A 
ATOM     23  C   UNL     1       1.885   5.210  20.801  0.00  0.00    +0.000 A 
ENDBRANCH   6  18
BRANCH   1  24
ATOM     24  N   UNL     1      -0.232  11.847  18.236  0.00  0.00    +0.000 N 
ATOM     25  H   UNL     1       0.286  12.716  18.203  0.00  0.00    +0.000 HD
BRANCH  24  26
ATOM     26  C   UNL     1      -1.469  11.865  17.463  0.00  0.00    +0.000 C 
BRANCH  26  27
ATOM     27  C   UNL     1      -1.871  10.455  17.053  0.00  0.00    +0.000 C 
BRANCH  27  28
ATOM     28  C   UNL     1      -3.261  10.149  17.600  0.00  0.00    +0.000 C 
BRANCH  28  29
ATOM     29  C   UNL     1      -3.966  11.417  18.056  0.00  0.00    +0.000 C 
BRANCH  29  30
ATOM     30  C   UNL     1      -5.480  11.234  18.003  0.00  0.00    +0.000 C 
BRANCH  30  31
ATOM     31  C   UNL     1      -6.146  11.978  19.154  0.00  0.00    +0.000 C 
BRANCH  31  33
ATOM     32  C   UNL     1      -5.724  12.650  21.530  0.00  0.00    +0.000 C 
ATOM     33  C   UNL     1      -5.114  12.498  20.147  0.00  0.00    +0.000 C 
ENDBRANCH  31  33
ENDBRANCH  30  31
ENDBRANCH  29  30
ENDBRANCH  28  29
ENDBRANCH  27  28
ENDBRANCH  26  27
ENDBRANCH  24  26
ENDBRANCH   1  24
TORSDOF 9
ENDMDL
MODEL 2
REMARK VINA RESULT:      -6.6      0.544      1.065
REMARK  Name = 
REMARK  12 active torsions:
REMARK  status: ('A' for Active; 'I' for Inactive)
REMARK    1  A    between atoms: C_1  and  C_2
REMARK    2  A    between atoms: C_2  and  C_3
REMARK    3  A    between atoms: C_3  and  C_4
REMARK    4  A    between atoms: C_4  and  C_5
REMARK    5  A    between atoms: C_5  and  C_6
REMARK    6  A    between atoms: C_6  and  C_7
REMARK    7  A    between atoms: C_7  and  C_8
REMARK    8  A    between atoms: C_8  and  N_9
REMARK    9  A    between atoms: N_9  and  C_10
REMARK   10  A    between atoms: C_15  and  C_16
REMARK   11  A    between atoms: N_24  and  C_25
REMARK   12  A    between atoms: C_29  and  C_30
REMARK                            x       y       z     vdW  Elec       q    Type
REMARK                         _______ _______ _______ _____ _____    ______ ____
ROOT
ATOM      1  C   UNL     1      -0.064  11.130  19.443  0.00  0.00    +0.000 A 
ATOM      2  C   UNL     1       0.598   9.950  19.513  0.00  0.00    +0.000 A 
ATOM      3  C   UNL     1       1.362   9.348  18.388  0.00  0.00    +0.000 A 
ATOM      4  O   UNL     1       1.528   9.881  17.300  0.00  0.00    +0.000 OA
ATOM      5  N   UNL     1       1.902   8.124  18.615  0.00  0.00    +0.000 NA
ATOM      6  C   UNL     1       1.853   7.540  19.758  0.00  0.00    +0.000 A 
ATOM      7  N   UNL     1       1.256   8.056  20.869  0.00  0.00    +0.000 NA
ATOM      8  C   UNL     1       0.637   9.207  20.800  0.00  0.00    +0.000 A 
ATOM      9  N   UNL     1       0.019   9.714  21.943  0.00  0.00    +0.000 N 
ATOM     10  C   UNL     1       0.023   8.974  23.203  0.00  0.00    +0.000 C 
ATOM     11  C   UNL     1      -0.641  10.963  21.906  0.00  0.00    +0.000 A 
ATOM     12  C   UNL     1      -1.242  11.533  23.050  0.00  0.00    +0.000 A 
ATOM     13  C   UNL     1      -1.890  12.770  23.015  0.00  0.00    +0.000 A 
ATOM     14  C   UNL     1      -1.983  13.470  21.820  0.00  0.00    +0.000 A 
ATOM     15  C   UNL     1      -2.642  14.815  21.746  0.00  0.00    +0.000 C 
ATOM     16  C   UNL     1      -1.417  12.908  20.670  0.00  0.00    +0.000 A 
ATOM     17  C   UNL     1      -0.713  11.679  20.687  0.00  0.00    +0.000 A 
ENDROOT
BRANCH   6  18
ATOM     18  C   UNL     1       2.468   6.182  19.879  0.00  0.00    +0.000 A 
ATOM     19  C   UNL     1       1.842   5.218  20.688  0.00  0.00    +0.000 A 
ATOM     20  C   UNL     1       2.440   3.979  20.908  0.00  0.00    +0.000 A 
ATOM     21  C   UNL     1       3.662   3.684  20.304  0.00  0.00    +0.000 A 
ATOM     22  C   UNL     1       4.271   4.618  19.465  0.00  0.00    +0.000 A 
ATOM     23  C   UNL     1       3.678   5.867  19.251  0.00  0.00    +0.000 A 
ENDBRANCH   6  18
BRANCH   1  24
ATOM     24  N   UNL     1      -0.179  11.917  18.296  0.00  0.00    +0.000 N 
ATOM     25  H   UNL     1       0.397  12.750  18.284  0.00  0.00    +0.000 HD
BRANCH  24  26
ATOM     26  C   UNL     1      -1.425  12.047  17.551  0.00  0.00    +0.000 C 
BRANCH  26  27
ATOM     27  C   UNL     1      -1.879  10.695  17.014  0.00  0.00    +0.000 C 
BRANCH  27  28
ATOM     28  C   UNL     1      -3.158  10.274  17.728  0.00  0.00    +0.000 C 
BRANCH  28  29
ATOM     29  C   UNL     1      -3.946  11.483  18.209  0.00  0.00    +0.000 C 
BRANCH  29  30
ATOM     30  C   UNL     1      -5.176  11.701  17.334  0.00  0.00    +0.000 C 
BRANCH  30  31
ATOM     31  C   UNL     1      -6.441  11.308  18.086  0.00  0.00    +0.000 C 
BRANCH  31  33
ATOM     32  C   UNL     1      -7.289  10.734  20.373  0.00  0.00    +0.000 C 
ATOM     33  C   UNL     1      -6.299  11.571  19.581  0.00  0.00    +0.000 C 
ENDBRANCH  31  33
ENDBRANCH  30  31
ENDBRANCH  29  30
ENDBRANCH  28  29
ENDBRANCH  27  28
ENDBRANCH  26  27
ENDBRANCH  24  26
ENDBRANCH   1  24
TORSDOF 9
ENDMDL
MODEL 3
REMARK VINA RESULT:      -6.5      2.583      4.063
REMARK  Name = 
REMARK  12 active torsions:
REMARK  status: ('A' for Active; 'I' for Inactive)
REMARK    1  A    between atoms: C_1  and  C_2
REMARK    2  A    between atoms: C_2  and  C_3
REMARK    3  A    between atoms: C_3  and  C_4
REMARK    4  A    between atoms: C_4  and  C_5
REMARK    5  A    between atoms: C_5  and  C_6
REMARK    6  A    between atoms: C_6  and  C_7
REMARK    7  A    between atoms: C_7  and  C_8
REMARK    8  A    between atoms: C_8  and  N_9
REMARK    9  A    between atoms: N_9  and  C_10
REMARK   10  A    between atoms: C_15  and  C_16
REMARK   11  A    between atoms: N_24  and  C_25
REMARK   12  A    between atoms: C_29  and  C_30
REMARK                            x       y       z     vdW  Elec       q    Type
REMARK                         _______ _______ _______ _____ _____    ______ ____
ROOT
ATOM      1  C   UNL     1       0.460  11.404  19.370  0.00  0.00    +0.000 A 
ATOM      2  C   UNL     1       0.963  10.150  19.477  0.00  0.00    +0.000 A 
ATOM      3  C   UNL     1       1.757   9.471  18.419  0.00  0.00    +0.000 A 
ATOM      4  O   UNL     1       2.095   9.992  17.365  0.00  0.00    +0.000 OA
ATOM      5  N   UNL     1       2.119   8.187  18.670  0.00  0.00    +0.000 NA
ATOM      6  C   UNL     1       1.886   7.601  19.788  0.00  0.00    +0.000 A 
ATOM      7  N   UNL     1       1.247   8.175  20.847  0.00  0.00    +0.000 NA
ATOM      8  C   UNL     1       0.782   9.394  20.744  0.00  0.00    +0.000 A 
ATOM      9  N   UNL     1       0.119   9.961  21.833  0.00  0.00    +0.000 N 
ATOM     10  C   UNL     1      -0.093   9.212  23.069  0.00  0.00    +0.000 C 
ATOM     11  C   UNL     1      -0.378  11.282  21.759  0.00  0.00    +0.000 A 
ATOM     12  C   UNL     1      -1.017  11.909  22.852  0.00  0.00    +0.000 A 
ATOM     13  C   UNL     1      -1.504  13.216  22.782  0.00  0.00    +0.000 A 
ATOM     14  C   UNL     1      -1.390  13.935  21.601  0.00  0.00    +0.000 A 
ATOM     15  C   UNL     1      -1.870  15.352  21.493  0.00  0.00    +0.000 C 
ATOM     16  C   UNL     1      -0.784  13.320  20.499  0.00  0.00    +0.000 A 
ATOM     17  C   UNL     1      -0.240  12.015  20.556  0.00  0.00    +0.000 A 
ENDROOT
BRANCH   6  18
ATOM     18  C   UNL     1       2.316   6.177  19.938  0.00  0.00    +0.000 A 
ATOM     19  C   UNL     1       1.602   5.335  20.807  0.00  0.00    +0.000 A 
ATOM     20  C   UNL     1       2.037   4.034  21.052  0.00  0.00    +0.000 A 
ATOM     21  C   UNL     1       3.179   3.555  20.412  0.00  0.00    +0.000 A 
ATOM     22  C   UNL     1       3.871   4.369  19.514  0.00  0.00    +0.000 A 
ATOM     23  C   UNL     1       3.443   5.679  19.276  0.00  0.00    +0.000 A 
ENDBRANCH   6  18
BRANCH   1  24
ATOM     24  N   UNL     1       0.557  12.211  18.235  0.00  0.00    +0.000 N 
ATOM     25  H   UNL     1       0.592  11.714  17.354  0.00  0.00    +0.000 HD
BRANCH  24  26
ATOM     26  C   UNL     1       1.275  13.480  18.230  0.00  0.00    +0.000 C 
BRANCH  26  27
ATOM     27  C   UNL     1       2.741  13.273  18.588  0.00  0.00    +0.000 C 
BRANCH  27  28
ATOM     28  C   UNL     1       3.418  14.631  18.741  0.00  0.00    +0.000 C 
BRANCH  28  29
ATOM     29  C   UNL     1       3.477  15.371  17.414  0.00  0.00    +0.000 C 
BRANCH  29  30
ATOM     30  C   UNL     1       3.023  16.817  17.588  0.00  0.00    +0.000 C 
BRANCH  30  31
ATOM     31  C   UNL     1       2.156  16.956  18.834  0.00  0.00    +0.000 C 
BRANCH  31  33
ATOM     32  C   UNL     1      -0.293  16.753  18.351  0.00  0.00    +0.000 C 
ATOM     33  C   UNL     1       0.870  17.714  18.529  0.00  0.00    +0.000 C 
ENDBRANCH  31  33
ENDBRANCH  30  31
ENDBRANCH  29  30
ENDBRANCH  28  29
ENDBRANCH  27  28
ENDBRANCH  26  27
ENDBRANCH  24  26
ENDBRANCH   1  24
TORSDOF 9
ENDMDL
MODEL 4
REMARK VINA RESULT:      -6.5      2.755      3.999
REMARK  Name = 
REMARK  12 active torsions:
REMARK  status: ('A' for Active; 'I' for Inactive)
REMARK    1  A    between atoms: C_1  and  C_2
REMARK    2  A    between atoms: C_2  and  C_3
REMARK    3  A    between atoms: C_3  and  C_4
REMARK    4  A    between atoms: C_4  and  C_5
REMARK    5  A    between atoms: C_5  and  C_6
REMARK    6  A    between atoms: C_6  and  C_7
REMARK    7  A    between atoms: C_7  and  C_8
REMARK    8  A    between atoms: C_8  and  N_9
REMARK    9  A    between atoms: N_9  and  C_10
REMARK   10  A    between atoms: C_15  and  C_16
REMARK   11  A    between atoms: N_24  and  C_25
REMARK   12  A    between atoms: C_29  and  C_30
REMARK                            x       y       z     vdW  Elec       q    Type
REMARK                         _______ _______ _______ _____ _____    ______ ____
ROOT
ATOM      1  C   UNL     1       0.890  11.042  19.350  0.00  0.00    +0.000 A 
ATOM      2  C   UNL     1       1.252   9.746  19.509  0.00  0.00    +0.000 A 
ATOM      3  C   UNL     1       2.065   8.976  18.530  0.00  0.00    +0.000 A 
ATOM      4  O   UNL     1       2.546   9.446  17.508  0.00  0.00    +0.000 OA
ATOM      5  N   UNL     1       2.271   7.666  18.818  0.00  0.00    +0.000 NA
ATOM      6  C   UNL     1       1.881   7.122  19.913  0.00  0.00    +0.000 A 
ATOM      7  N   UNL     1       1.212   7.771  20.907  0.00  0.00    +0.000 NA
ATOM      8  C   UNL     1       0.883   9.030  20.757  0.00  0.00    +0.000 A 
ATOM      9  N   UNL     1       0.186   9.675  21.779  0.00  0.00    +0.000 N 
ATOM     10  C   UNL     1      -0.210   8.967  22.995  0.00  0.00    +0.000 C 
ATOM     11  C   UNL     1      -0.166  11.037  21.655  0.00  0.00    +0.000 A 
ATOM     12  C   UNL     1      -0.834  11.740  22.683  0.00  0.00    +0.000 A 
ATOM     13  C   UNL     1      -1.177  13.089  22.564  0.00  0.00    +0.000 A 
ATOM     14  C   UNL     1      -0.886  13.777  21.394  0.00  0.00    +0.000 A 
ATOM     15  C   UNL     1      -1.209  15.233  21.236  0.00  0.00    +0.000 C 
ATOM     16  C   UNL     1      -0.250  13.089  20.353  0.00  0.00    +0.000 A 
ATOM     17  C   UNL     1       0.152  11.736  20.466  0.00  0.00    +0.000 A 
ENDROOT
BRANCH   6  18
ATOM     18  C   UNL     1       2.150   5.663  20.108  0.00  0.00    +0.000 A 
ATOM     19  C   UNL     1       3.410   5.148  19.759  0.00  0.00    +0.000 A 
ATOM     20  C   UNL     1       3.661   3.779  19.827  0.00  0.00    +0.000 A 
ATOM     21  C   UNL     1       2.659   2.914  20.265  0.00  0.00    +0.000 A 
ATOM     22  C   UNL     1       1.419   3.420  20.655  0.00  0.00    +0.000 A 
ATOM     23  C   UNL     1       1.161   4.793  20.576  0.00  0.00    +0.000 A 
ENDBRANCH   6  18
BRANCH   1  24
ATOM     24  N   UNL     1       1.169  11.819  18.225  0.00  0.00    +0.000 N 
ATOM     25  H   UNL     1       0.817  11.453  17.349  0.00  0.00    +0.000 HD
BRANCH  24  26
ATOM     26  C   UNL     1       2.392  12.602  18.092  0.00  0.00    +0.000 C 
BRANCH  26  27
ATOM     27  C   UNL     1       2.070  14.067  17.826  0.00  0.00    +0.000 C 
BRANCH  27  28
ATOM     28  C   UNL     1       2.631  14.919  18.959  0.00  0.00    +0.000 C 
BRANCH  28  29
ATOM     29  C   UNL     1       2.950  16.329  18.484  0.00  0.00    +0.000 C 
BRANCH  29  30
ATOM     30  C   UNL     1       1.696  17.198  18.511  0.00  0.00    +0.000 C 
BRANCH  30  31
ATOM     31  C   UNL     1       1.506  17.900  17.173  0.00  0.00    +0.000 C 
BRANCH  31  33
ATOM     32  C   UNL     1      -0.844  17.597  17.985  0.00  0.00    +0.000 C 
ATOM     33  C   UNL     1       0.041  18.248  16.936  0.00  0.00    +0.000 C 
ENDBRANCH  31  33
ENDBRANCH  30  31
ENDBRANCH  29  30
ENDBRANCH  28  29
ENDBRANCH  27  28
ENDBRANCH  26  27
ENDBRANCH  24  26
ENDBRANCH   1  24
TORSDOF 9
ENDMDL
MODEL 5
REMARK VINA RESULT:      -6.4      2.284      8.396
REMARK  Name = 
REMARK  12 active torsions:
REMARK  status: ('A' for Active; 'I' for Inactive)
REMARK    1  A    between atoms: C_1  and  C_2
REMARK    2  A    between atoms: C_2  and  C_3
REMARK    3  A    between atoms: C_3  and  C_4
REMARK    4  A    between atoms: C_4  and  C_5
REMARK    5  A    between atoms: C_5  and  C_6
REMARK    6  A    between atoms: C_6  and  C_7
REMARK    7  A    between atoms: C_7  and  C_8
REMARK    8  A    between atoms: C_8  and  N_9
REMARK    9  A    between atoms: N_9  and  C_10
REMARK   10  A    between atoms: C_15  and  C_16
REMARK   11  A    between atoms: N_24  and  C_25
REMARK   12  A    between atoms: C_29  and  C_30
REMARK                            x       y       z     vdW  Elec       q    Type
REMARK                         _______ _______ _______ _____ _____    ______ ____
ROOT
ATOM      1  C   UNL     1      -0.981  11.352  18.640  0.00  0.00    +0.000 A 
ATOM      2  C   UNL     1      -1.128  12.020  19.810  0.00  0.00    +0.000 A 
ATOM      3  C   UNL     1      -0.013  12.341  20.739  0.00  0.00    +0.000 A 
ATOM      4  O   UNL     1       1.165  12.094  20.520  0.00  0.00    +0.000 OA
ATOM      5  N   UNL     1      -0.356  12.953  21.902  0.00  0.00    +0.000 NA
ATOM      6  C   UNL     1      -1.555  13.331  22.164  0.00  0.00    +0.000 A 
ATOM      7  N   UNL     1      -2.622  13.161  21.334  0.00  0.00    +0.000 NA
ATOM      8  C   UNL     1      -2.468  12.534  20.195  0.00  0.00    +0.000 A 
ATOM      9  N   UNL     1      -3.575  12.357  19.364  0.00  0.00    +0.000 N 
ATOM     10  C   UNL     1      -4.902  12.829  19.752  0.00  0.00    +0.000 C 
ATOM     11  C   UNL     1      -3.437  11.701  18.120  0.00  0.00    +0.000 A 
ATOM     12  C   UNL     1      -4.522  11.539  17.229  0.00  0.00    +0.000 A 
ATOM     13  C   UNL     1      -4.385  10.895  15.997  0.00  0.00    +0.000 A 
ATOM     14  C   UNL     1      -3.158  10.365  15.624  0.00  0.00    +0.000 A 
ATOM     15  C   UNL     1      -2.961   9.695  14.298  0.00  0.00    +0.000 C 
ATOM     16  C   UNL     1      -2.078  10.492  16.507  0.00  0.00    +0.000 A 
ATOM     17  C   UNL     1      -2.177  11.181  17.740  0.00  0.00    +0.000 A 
ENDROOT
BRANCH   6  18
ATOM     18  C   UNL     1      -1.813  13.977  23.489  0.00  0.00    +0.000 A 
ATOM     19  C   UNL     1      -3.041  13.750  24.131  0.00  0.00    +0.000 A 
ATOM     20  C   UNL     1      -3.358  14.418  25.313  0.00  0.00    +0.000 A 
ATOM     21  C   UNL     1      -2.439  15.304  25.874  0.00  0.00    +0.000 A 
ATOM     22  C   UNL     1      -1.199  15.503  25.266  0.00  0.00    +0.000 A 
ATOM     23  C   UNL     1      -0.883  14.843  24.074  0.00  0.00    +0.000 A 
ENDBRANCH   6  18
BRANCH   1  24
ATOM     24  N   UNL     1       0.219  10.816  18.170  0.00  0.00    +0.000 N 
ATOM     25  H   UNL     1       0.438  11.028  17.205  0.00  0.00    +0.000 HD
BRANCH  24  26
ATOM     26  C   UNL     1       0.744   9.535  18.629  0.00  0.00    +0.000 C 
BRANCH  26  27
ATOM     27  C   UNL     1       2.001   9.157  17.856  0.00  0.00    +0.000 C 
BRANCH  27  28
ATOM     28  C   UNL     1       2.390   7.723  18.199  0.00  0.00    +0.000 C 
BRANCH  28  29
ATOM     29  C   UNL     1       3.698   7.331  17.528  0.00  0.00    +0.000 C 
BRANCH  29  30
ATOM     30  C   UNL     1       4.229   6.028  18.117  0.00  0.00    +0.000 C 
BRANCH  30  31
ATOM     31  C   UNL     1       3.465   4.837  17.551  0.00  0.00    +0.000 C 
BRANCH  31  33
ATOM     32  C   UNL     1       5.321   4.693  15.875  0.00  0.00    +0.000 C 
ATOM     33  C   UNL     1       4.391   3.903  16.780  0.00  0.00    +0.000 C 
ENDBRANCH  31  33
ENDBRANCH  30  31
ENDBRANCH  29  30
ENDBRANCH  28  29
ENDBRANCH  27  28
ENDBRANCH  26  27
ENDBRANCH  24  26
ENDBRANCH   1  24
TORSDOF 9
ENDMDL
MODEL 6
REMARK VINA RESULT:      -6.4      2.407      8.167
REMARK  Name = 
REMARK  12 active torsions:
REMARK  status: ('A' for Active; 'I' for Inactive)
REMARK    1  A    between atoms: C_1  and  C_2
REMARK    2  A    between atoms: C_2  and  C_3
REMARK    3  A    between atoms: C_3  and  C_4
REMARK    4  A    between atoms: C_4  and  C_5
REMARK    5  A    between atoms: C_5  and  C_6
REMARK    6  A    between atoms: C_6  and  C_7
REMARK    7  A    between atoms: C_7  and  C_8
REMARK    8  A    between atoms: C_8  and  N_9
REMARK    9  A    between atoms: N_9  and  C_10
REMARK   10  A    between atoms: C_15  and  C_16
REMARK   11  A    between atoms: N_24  and  C_25
REMARK   12  A    between atoms: C_29  and  C_30
REMARK                            x       y       z     vdW  Elec       q    Type
REMARK                         _______ _______ _______ _____ _____    ______ ____
ROOT
ATOM      1  C   UNL     1      -0.724  11.529  19.106  0.00  0.00    +0.000 A 
ATOM      2  C   UNL     1      -0.818  12.320  20.202  0.00  0.00    +0.000 A 
ATOM      3  C   UNL     1       0.336  12.722  21.048  0.00  0.00    +0.000 A 
ATOM      4  O   UNL     1       1.502  12.434  20.812  0.00  0.00    +0.000 OA
ATOM      5  N   UNL     1       0.047  13.459  22.150  0.00  0.00    +0.000 NA
ATOM      6  C   UNL     1      -1.136  13.882  22.417  0.00  0.00    +0.000 A 
ATOM      7  N   UNL     1      -2.237  13.641  21.650  0.00  0.00    +0.000 NA
ATOM      8  C   UNL     1      -2.136  12.893  20.581  0.00  0.00    +0.000 A 
ATOM      9  N   UNL     1      -3.276  12.646  19.816  0.00  0.00    +0.000 N 
ATOM     10  C   UNL     1      -4.581  13.178  20.201  0.00  0.00    +0.000 C 
ATOM     11  C   UNL     1      -3.196  11.859  18.646  0.00  0.00    +0.000 A 
ATOM     12  C   UNL     1      -4.316  11.620  17.819  0.00  0.00    +0.000 A 
ATOM     13  C   UNL     1      -4.236  10.846  16.659  0.00  0.00    +0.000 A 
ATOM     14  C   UNL     1      -3.031  10.260  16.299  0.00  0.00    +0.000 A 
ATOM     15  C   UNL     1      -2.894   9.448  15.045  0.00  0.00    +0.000 C 
ATOM     16  C   UNL     1      -1.916  10.463  17.121  0.00  0.00    +0.000 A 
ATOM     17  C   UNL     1      -1.957  11.281  18.276  0.00  0.00    +0.000 A 
ENDROOT
BRANCH   6  18
ATOM     18  C   UNL     1      -1.334  14.670  23.673  0.00  0.00    +0.000 A 
ATOM     19  C   UNL     1      -0.417  15.685  23.994  0.00  0.00    +0.000 A 
ATOM     20  C   UNL     1      -0.508  16.367  25.205  0.00  0.00    +0.000 A 
ATOM     21  C   UNL     1      -1.533  16.055  26.099  0.00  0.00    +0.000 A 
ATOM     22  C   UNL     1      -2.473  15.078  25.770  0.00  0.00    +0.000 A 
ATOM     23  C   UNL     1      -2.377  14.384  24.560  0.00  0.00    +0.000 A 
ENDBRANCH   6  18
BRANCH   1  24
ATOM     24  N   UNL     1       0.450  10.927  18.651  0.00  0.00    +0.000 N 
ATOM     25  H   UNL     1       0.659  11.074  17.672  0.00  0.00    +0.000 HD
BRANCH  24  26
ATOM     26  C   UNL     1       0.941   9.659  19.178  0.00  0.00    +0.000 C 
BRANCH  26  27
ATOM     27  C   UNL     1       1.760   8.919  18.129  0.00  0.00    +0.000 C 
BRANCH  27  28
ATOM     28  C   UNL     1       2.399   7.689  18.765  0.00  0.00    +0.000 C 
BRANCH  28  29
ATOM     29  C   UNL     1       3.124   6.845  17.728  0.00  0.00    +0.000 C 
BRANCH  29  30
ATOM     30  C   UNL     1       3.612   5.540  18.349  0.00  0.00    +0.000 C 
BRANCH  30  31
ATOM     31  C   UNL     1       3.090   4.346  17.559  0.00  0.00    +0.000 C 
BRANCH  31  33
ATOM     32  C   UNL     1       1.251   3.001  18.602  0.00  0.00    +0.000 C 
ATOM     33  C   UNL     1       1.582   4.194  17.722  0.00  0.00    +0.000 C 
ENDBRANCH  31  33
ENDBRANCH  30  31
ENDBRANCH  29  30
ENDBRANCH  28  29
ENDBRANCH  27  28
ENDBRANCH  26  27
ENDBRANCH  24  26
ENDBRANCH   1  24
TORSDOF 9
ENDMDL
MODEL 7
REMARK VINA RESULT:      -6.4      3.736      9.732
REMARK  Name = 
REMARK  12 active torsions:
REMARK  status: ('A' for Active; 'I' for Inactive)
REMARK    1  A    between atoms: C_1  and  C_2
REMARK    2  A    between atoms: C_2  and  C_3
REMARK    3  A    between atoms: C_3  and  C_4
REMARK    4  A    between atoms: C_4  and  C_5
REMARK    5  A    between atoms: C_5  and  C_6
REMARK    6  A    between atoms: C_6  and  C_7
REMARK    7  A    between atoms: C_7  and  C_8
REMARK    8  A    between atoms: C_8  and  N_9
REMARK    9  A    between atoms: N_9  and  C_10
REMARK   10  A    between atoms: C_15  and  C_16
REMARK   11  A    between atoms: N_24  and  C_25
REMARK   12  A    between atoms: C_29  and  C_30
REMARK                            x       y       z     vdW  Elec       q    Type
REMARK                         _______ _______ _______ _____ _____    ______ ____
ROOT
ATOM      1  C   UNL     1       4.071   5.501  18.040  0.00  0.00    +0.000 A 
ATOM      2  C   UNL     1       3.421   6.689  18.035  0.00  0.00    +0.000 A 
ATOM      3  C   UNL     1       3.558   7.717  16.970  0.00  0.00    +0.000 A 
ATOM      4  O   UNL     1       4.223   7.575  15.952  0.00  0.00    +0.000 OA
ATOM      5  N   UNL     1       2.887   8.881  17.166  0.00  0.00    +0.000 NA
ATOM      6  C   UNL     1       2.095   9.071  18.158  0.00  0.00    +0.000 A 
ATOM      7  N   UNL     1       1.837   8.154  19.133  0.00  0.00    +0.000 NA
ATOM      8  C   UNL     1       2.452   6.999  19.119  0.00  0.00    +0.000 A 
ATOM      9  N   UNL     1       2.186   6.077  20.133  0.00  0.00    +0.000 N 
ATOM     10  C   UNL     1       1.261   6.387  21.220  0.00  0.00    +0.000 C 
ATOM     11  C   UNL     1       2.820   4.815  20.136  0.00  0.00    +0.000 A 
ATOM     12  C   UNL     1       2.547   3.836  21.118  0.00  0.00    +0.000 A 
ATOM     13  C   UNL     1       3.170   2.586  21.118  0.00  0.00    +0.000 A 
ATOM     14  C   UNL     1       4.112   2.280  20.146  0.00  0.00    +0.000 A 
ATOM     15  C   UNL     1       4.780   0.939  20.092  0.00  0.00    +0.000 C 
ATOM     16  C   UNL     1       4.415   3.248  19.181  0.00  0.00    +0.000 A 
ATOM     17  C   UNL     1       3.765   4.504  19.128  0.00  0.00    +0.000 A 
ENDROOT
BRANCH   6  18
ATOM     18  C   UNL     1       1.427  10.404  18.277  0.00  0.00    +0.000 A 
ATOM     19  C   UNL     1       2.207  11.570  18.188  0.00  0.00    +0.000 A 
ATOM     20  C   UNL     1       1.636  12.824  18.399  0.00  0.00    +0.000 A 
ATOM     21  C   UNL     1       0.274  12.925  18.681  0.00  0.00    +0.000 A 
ATOM     22  C   UNL     1      -0.516  11.776  18.730  0.00  0.00    +0.000 A 
ATOM     23  C   UNL     1       0.056  10.516  18.530  0.00  0.00    +0.000 A 
ENDBRANCH   6  18
BRANCH   1  24
ATOM     24  N   UNL     1       5.007   5.096  17.087  0.00  0.00    +0.000 N 
ATOM     25  H   UNL     1       4.814   4.207  16.644  0.00  0.00    +0.000 HD
BRANCH  24  26
ATOM     26  C   UNL     1       6.427   5.411  17.192  0.00  0.00    +0.000 C 
BRANCH  26  27
ATOM     27  C   UNL     1       7.221   4.695  16.107  0.00  0.00    +0.000 C 
BRANCH  27  28
ATOM     28  C   UNL     1       6.582   4.973  14.751  0.00  0.00    +0.000 C 
BRANCH  28  29
ATOM     29  C   UNL     1       6.164   3.682  14.063  0.00  0.00    +0.000 C 
BRANCH  29  30
ATOM     30  C   UNL     1       6.514   3.731  12.579  0.00  0.00    +0.000 C 
BRANCH  30  31
ATOM     31  C   UNL     1       5.536   2.885  11.773  0.00  0.00    +0.000 C 
BRANCH  31  33
ATOM     32  C   UNL     1       3.445   3.172  10.423  0.00  0.00    +0.000 C 
ATOM     33  C   UNL     1       4.161   3.540  11.711  0.00  0.00    +0.000 C 
ENDBRANCH  31  33
ENDBRANCH  30  31
ENDBRANCH  29  30
ENDBRANCH  28  29
ENDBRANCH  27  28
ENDBRANCH  26  27
ENDBRANCH  24  26
ENDBRANCH   1  24
TORSDOF 9
ENDMDL
MODEL 8
REMARK VINA RESULT:      -6.4      2.264      8.058
REMARK  Name = 
REMARK  12 active torsions:
REMARK  status: ('A' for Active; 'I' for Inactive)
REMARK    1  A    between atoms: C_1  and  C_2
REMARK    2  A    between atoms: C_2  and  C_3
REMARK    3  A    between atoms: C_3  and  C_4
REMARK    4  A    between atoms: C_4  and  C_5
REMARK    5  A    between atoms: C_5  and  C_6
REMARK    6  A    between atoms: C_6  and  C_7
REMARK    7  A    between atoms: C_7  and  C_8
REMARK    8  A    between atoms: C_8  and  N_9
REMARK    9  A    between atoms: N_9  and  C_10
REMARK   10  A    between atoms: C_15  and  C_16
REMARK   11  A    between atoms: N_24  and  C_25
REMARK   12  A    between atoms: C_29  and  C_30
REMARK                            x       y       z     vdW  Elec       q    Type
REMARK                         _______ _______ _______ _____ _____    ______ ____
ROOT
ATOM      1  C   UNL     1      -0.812  11.570  19.007  0.00  0.00    +0.000 A 
ATOM      2  C   UNL     1      -0.879  12.331  20.125  0.00  0.00    +0.000 A 
ATOM      3  C   UNL     1       0.297  12.725  20.944  0.00  0.00    +0.000 A 
ATOM      4  O   UNL     1       1.458  12.458  20.663  0.00  0.00    +0.000 OA
ATOM      5  N   UNL     1       0.035  13.429  22.075  0.00  0.00    +0.000 NA
ATOM      6  C   UNL     1      -1.144  13.830  22.390  0.00  0.00    +0.000 A 
ATOM      7  N   UNL     1      -2.266  13.595  21.654  0.00  0.00    +0.000 NA
ATOM      8  C   UNL     1      -2.191  12.877  20.562  0.00  0.00    +0.000 A 
ATOM      9  N   UNL     1      -3.352  12.635  19.828  0.00  0.00    +0.000 N 
ATOM     10  C   UNL     1      -4.651  13.140  20.269  0.00  0.00    +0.000 C 
ATOM     11  C   UNL     1      -3.301  11.880  18.635  0.00  0.00    +0.000 A 
ATOM     12  C   UNL     1      -4.445  11.648  17.839  0.00  0.00    +0.000 A 
ATOM     13  C   UNL     1      -4.393  10.906  16.657  0.00  0.00    +0.000 A 
ATOM     14  C   UNL     1      -3.193  10.345  16.243  0.00  0.00    +0.000 A 
ATOM     15  C   UNL     1      -3.087   9.568  14.965  0.00  0.00    +0.000 C 
ATOM     16  C   UNL     1      -2.054  10.541  17.034  0.00  0.00    +0.000 A 
ATOM     17  C   UNL     1      -2.068  11.328  18.210  0.00  0.00    +0.000 A 
ENDROOT
BRANCH   6  18
ATOM     18  C   UNL     1      -1.310  14.582  23.673  0.00  0.00    +0.000 A 
ATOM     19  C   UNL     1      -2.385  14.261  24.518  0.00  0.00    +0.000 A 
ATOM     20  C   UNL     1      -2.633  15.010  25.667  0.00  0.00    +0.000 A 
ATOM     21  C   UNL     1      -1.793  16.075  25.992  0.00  0.00    +0.000 A 
ATOM     22  C   UNL     1      -0.697  16.374  25.182  0.00  0.00    +0.000 A 
ATOM     23  C   UNL     1      -0.454  15.631  24.022  0.00  0.00    +0.000 A 
ENDBRANCH   6  18
BRANCH   1  24
ATOM     24  N   UNL     1       0.354  10.995  18.499  0.00  0.00    +0.000 N 
ATOM     25  H   UNL     1       0.578  11.245  17.543  0.00  0.00    +0.000 HD
BRANCH  24  26
ATOM     26  C   UNL     1       0.810   9.665  18.885  0.00  0.00    +0.000 C 
BRANCH  26  27
ATOM     27  C   UNL     1       2.124   9.322  18.194  0.00  0.00    +0.000 C 
BRANCH  27  28
ATOM     28  C   UNL     1       2.046   7.903  17.641  0.00  0.00    +0.000 C 
BRANCH  28  29
ATOM     29  C   UNL     1       3.331   7.135  17.909  0.00  0.00    +0.000 C 
BRANCH  29  30
ATOM     30  C   UNL     1       3.018   5.727  18.405  0.00  0.00    +0.000 C 
BRANCH  30  31
ATOM     31  C   UNL     1       2.580   5.760  19.864  0.00  0.00    +0.000 C 
BRANCH  31  33
ATOM     32  C   UNL     1       1.993   3.831  21.350  0.00  0.00    +0.000 C 
ATOM     33  C   UNL     1       1.558   4.669  20.159  0.00  0.00    +0.000 C 
ENDBRANCH  31  33
ENDBRANCH  30  31
ENDBRANCH  29  30
ENDBRANCH  28  29
ENDBRANCH  27  28
ENDBRANCH  26  27
ENDBRANCH  24  26
ENDBRANCH   1  24
TORSDOF 9
ENDMDL
MODEL 9
REMARK VINA RESULT:      -6.4      2.868      4.223
REMARK  Name = 
REMARK  12 active torsions:
REMARK  status: ('A' for Active; 'I' for Inactive)
REMARK    1  A    between atoms: C_1  and  C_2
REMARK    2  A    between atoms: C_2  and  C_3
REMARK    3  A    between atoms: C_3  and  C_4
REMARK    4  A    between atoms: C_4  and  C_5
REMARK    5  A    between atoms: C_5  and  C_6
REMARK    6  A    between atoms: C_6  and  C_7
REMARK    7  A    between atoms: C_7  and  C_8
REMARK    8  A    between atoms: C_8  and  N_9
REMARK    9  A    between atoms: N_9  and  C_10
REMARK   10  A    between atoms: C_15  and  C_16
REMARK   11  A    between atoms: N_24  and  C_25
REMARK   12  A    between atoms: C_29  and  C_30
REMARK                            x       y       z     vdW  Elec       q    Type
REMARK                         _______ _______ _______ _____ _____    ______ ____
ROOT
ATOM      1  C   UNL     1       0.654  11.814  19.587  0.00  0.00    +0.000 A 
ATOM      2  C   UNL     1       1.220  10.651  19.184  0.00  0.00    +0.000 A 
ATOM      3  C   UNL     1       2.124  10.519  18.011  0.00  0.00    +0.000 A 
ATOM      4  O   UNL     1       2.505  11.455  17.321  0.00  0.00    +0.000 OA
ATOM      5  N   UNL     1       2.540   9.263  17.710  0.00  0.00    +0.000 NA
ATOM      6  C   UNL     1       2.262   8.242  18.438  0.00  0.00    +0.000 A 
ATOM      7  N   UNL     1       1.518   8.282  19.579  0.00  0.00    +0.000 NA
ATOM      8  C   UNL     1       0.993   9.413  19.975  0.00  0.00    +0.000 A 
ATOM      9  N   UNL     1       0.223   9.433  21.139  0.00  0.00    +0.000 N 
ATOM     10  C   UNL     1      -0.033   8.214  21.903  0.00  0.00    +0.000 C 
ATOM     11  C   UNL     1      -0.342  10.642  21.602  0.00  0.00    +0.000 A 
ATOM     12  C   UNL     1      -1.092  10.715  22.798  0.00  0.00    +0.000 A 
ATOM     13  C   UNL     1      -1.646  11.911  23.259  0.00  0.00    +0.000 A 
ATOM     14  C   UNL     1      -1.490  13.076  22.522  0.00  0.00    +0.000 A 
ATOM     15  C   UNL     1      -2.042  14.387  22.997  0.00  0.00    +0.000 C 
ATOM     16  C   UNL     1      -0.774  13.018  21.321  0.00  0.00    +0.000 A 
ATOM     17  C   UNL     1      -0.161  11.830  20.854  0.00  0.00    +0.000 A 
ENDROOT
BRANCH   6  18
ATOM     18  C   UNL     1       2.762   6.904  17.992  0.00  0.00    +0.000 A 
ATOM     19  C   UNL     1       1.973   5.766  18.231  0.00  0.00    +0.000 A 
ATOM     20  C   UNL     1       2.452   4.493  17.925  0.00  0.00    +0.000 A 
ATOM     21  C   UNL     1       3.717   4.349  17.357  0.00  0.00    +0.000 A 
ATOM     22  C   UNL     1       4.490   5.477  17.076  0.00  0.00    +0.000 A 
ATOM     23  C   UNL     1       4.016   6.754  17.392  0.00  0.00    +0.000 A 
ENDBRANCH   6  18
BRANCH   1  24
ATOM     24  N   UNL     1       0.785  13.038  18.929  0.00  0.00    +0.000 N 
ATOM     25  H   UNL     1       0.507  13.036  17.955  0.00  0.00    +0.000 HD
BRANCH  24  26
ATOM     26  C   UNL     1       1.842  13.992  19.241  0.00  0.00    +0.000 C 
BRANCH  26  27
ATOM     27  C   UNL     1       1.327  15.422  19.139  0.00  0.00    +0.000 C 
BRANCH  27  28
ATOM     28  C   UNL     1      -0.173  15.398  18.869  0.00  0.00    +0.000 C 
BRANCH  28  29
ATOM     29  C   UNL     1      -0.820  16.728  19.228  0.00  0.00    +0.000 C 
BRANCH  29  30
ATOM     30  C   UNL     1      -0.998  17.588  17.981  0.00  0.00    +0.000 C 
BRANCH  30  31
ATOM     31  C   UNL     1       0.125  18.612  17.875  0.00  0.00    +0.000 C 
BRANCH  31  33
ATOM     32  C   UNL     1       2.025  17.790  16.463  0.00  0.00    +0.000 C 
ATOM     33  C   UNL     1       0.745  18.608  16.482  0.00  0.00    +0.000 C 
ENDBRANCH  31  33
ENDBRANCH  30  31
ENDBRANCH  29  30
ENDBRANCH  28  29
ENDBRANCH  27  28
ENDBRANCH  26  27
ENDBRANCH  24  26
ENDBRANCH   1  24
TORSDOF 9
ENDMDL
