MODEL 1
REMARK VINA RESULT:      -8.1      0.000      0.000
REMARK  Name = 
REMARK  9 active torsions:
REMARK  status: ('A' for Active; 'I' for Inactive)
REMARK    1  A    between atoms: C_1  and  C_2
REMARK    2  A    between atoms: C_2  and  C_3
REMARK    3  A    between atoms: C_7  and  C_8
REMARK    4  A    between atoms: C_9  and  O_10
REMARK    5  A    between atoms: O_10  and  C_11
REMARK    6  A    between atoms: C_11  and  C_13
REMARK    7  A    between atoms: C_14  and  C_15
REMARK    8  A    between atoms: C_18  and  O_19
REMARK    9  A    between atoms: C_20  and  O_21
REMARK                            x       y       z     vdW  Elec       q    Type
REMARK                         _______ _______ _______ _____ _____    ______ ____
ROOT
ATOM      1  C   UNL     1       5.782   5.011  19.023  0.00  0.00    +0.000 C 
ATOM      2  O   UNL     1       6.413   5.038  20.065  0.00  0.00    +0.000 OA
ENDROOT
BRANCH   1   3
ATOM      3  C   UNL     1       6.368   4.953  17.668  0.00  0.00    +0.000 C 
ATOM      4  C   UNL     1       5.668   4.419  16.655  0.00  0.00    +0.000 C 
BRANCH   4   5
ATOM      5  C   UNL     1       6.139   4.398  15.263  0.00  0.00    +0.000 A 
ATOM      6  C   UNL     1       5.435   3.626  14.322  0.00  0.00    +0.000 A 
ATOM      7  C   UNL     1       5.835   3.579  12.983  0.00  0.00    +0.000 A 
ATOM      8  C   UNL     1       6.939   4.321  12.581  0.00  0.00    +0.000 A 
ATOM      9  C   UNL     1       7.624   5.110  13.500  0.00  0.00    +0.000 A 
ATOM     10  C   UNL     1       7.232   5.162  14.830  0.00  0.00    +0.000 A 
BRANCH   8  11
ATOM     11  O   UNL     1       7.382   4.315  11.288  0.00  0.00    +0.000 OA
ATOM     12  H   UNL     1       7.688   5.210  11.069  0.00  0.00    +0.000 HD
ENDBRANCH   8  11
BRANCH   9  13
ATOM     13  O   UNL     1       8.697   5.852  13.091  0.00  0.00    +0.000 OA
ATOM     14  H   UNL     1       9.398   5.652  13.743  0.00  0.00    +0.000 HD
ENDBRANCH   9  13
ENDBRANCH   4   5
ENDBRANCH   1   3
BRANCH   1  15
ATOM     15  O   UNL     1       4.440   4.871  18.882  0.00  0.00    +0.000 OA
BRANCH  15  24
ATOM     16  C   UNL     1       0.735   2.263  18.713  0.00  0.00    +0.000 C 
ATOM     17  C   UNL     1       1.707   3.427  18.998  0.00  0.00    +0.000 C 
ATOM     18  C   UNL     1       1.838   4.195  17.666  0.00  0.00    +0.000 C 
ATOM     19  C   UNL     1       1.311   4.329  20.193  0.00  0.00    +0.000 C 
ATOM     20  C   UNL     1       1.346   3.369  21.399  0.00  0.00    +0.000 C 
ATOM     21  C   UNL     1       2.540   2.456  21.074  0.00  0.00    +0.000 C 
ATOM     22  C   UNL     1       3.036   3.002  19.704  0.00  0.00    +0.000 C 
ATOM     23  C   UNL     1       3.880   1.983  18.958  0.00  0.00    +0.000 C 
ATOM     24  C   UNL     1       3.736   4.367  20.024  0.00  0.00    +0.000 C 
ATOM     25  C   UNL     1       2.527   5.280  20.344  0.00  0.00    +0.000 C 
ENDBRANCH  15  24
ENDBRANCH   1  15
TORSDOF 6
ENDMDL
MODEL 2
REMARK VINA RESULT:      -7.9      0.605      1.421
REMARK  Name = 
REMARK  9 active torsions:
REMARK  status: ('A' for Active; 'I' for Inactive)
REMARK    1  A    between atoms: C_1  and  C_2
REMARK    2  A    between atoms: C_2  and  C_3
REMARK    3  A    between atoms: C_7  and  C_8
REMARK    4  A    between atoms: C_9  and  O_10
REMARK    5  A    between atoms: O_10  and  C_11
REMARK    6  A    between atoms: C_11  and  C_13
REMARK    7  A    between atoms: C_14  and  C_15
REMARK    8  A    between atoms: C_18  and  O_19
REMARK    9  A    between atoms: C_20  and  O_21
REMARK                            x       y       z     vdW  Elec       q    Type
REMARK                         _______ _______ _______ _____ _____    ______ ____
ROOT
ATOM      1  C   UNL     1       5.733   5.088  18.870  0.00  0.00    +0.000 C 
ATOM      2  O   UNL     1       6.374   5.229  19.896  0.00  0.00    +0.000 OA
ENDROOT
BRANCH   1   3
ATOM      3  C   UNL     1       6.304   4.948  17.514  0.00  0.00    +0.000 C 
ATOM      4  C   UNL     1       5.531   4.536  16.498  0.00  0.00    +0.000 C 
BRANCH   4   5
ATOM      5  C   UNL     1       5.995   4.449  15.106  0.00  0.00    +0.000 A 
ATOM      6  C   UNL     1       7.195   5.092  14.752  0.00  0.00    +0.000 A 
ATOM      7  C   UNL     1       7.687   5.031  13.444  0.00  0.00    +0.000 A 
ATOM      8  C   UNL     1       6.980   4.311  12.490  0.00  0.00    +0.000 A 
ATOM      9  C   UNL     1       5.807   3.648  12.838  0.00  0.00    +0.000 A 
ATOM     10  C   UNL     1       5.314   3.703  14.135  0.00  0.00    +0.000 A 
BRANCH   8  11
ATOM     11  O   UNL     1       7.406   4.217  11.194  0.00  0.00    +0.000 OA
ATOM     12  H   UNL     1       6.627   4.262  10.615  0.00  0.00    +0.000 HD
ENDBRANCH   8  11
BRANCH   9  13
ATOM     13  O   UNL     1       5.130   2.926  11.896  0.00  0.00    +0.000 OA
ATOM     14  H   UNL     1       5.031   3.539  11.140  0.00  0.00    +0.000 HD
ENDBRANCH   9  13
ENDBRANCH   4   5
ENDBRANCH   1   3
BRANCH   1  15
ATOM     15  O   UNL     1       4.398   4.875  18.761  0.00  0.00    +0.000 OA
BRANCH  15  24
ATOM     16  C   UNL     1       0.643   2.334  18.740  0.00  0.00    +0.000 C 
ATOM     17  C   UNL     1       1.648   3.476  18.994  0.00  0.00    +0.000 C 
ATOM     18  C   UNL     1       1.724   4.266  17.671  0.00  0.00    +0.000 C 
ATOM     19  C   UNL     1       1.332   4.361  20.224  0.00  0.00    +0.000 C 
ATOM     20  C   UNL     1       1.412   3.378  21.409  0.00  0.00    +0.000 C 
ATOM     21  C   UNL     1       2.571   2.451  21.006  0.00  0.00    +0.000 C 
ATOM     22  C   UNL     1       3.005   3.015  19.622  0.00  0.00    +0.000 C 
ATOM     23  C   UNL     1       3.791   1.996  18.814  0.00  0.00    +0.000 C 
ATOM     24  C   UNL     1       3.744   4.361  19.930  0.00  0.00    +0.000 C 
ATOM     25  C   UNL     1       2.570   5.289  20.329  0.00  0.00    +0.000 C 
ENDBRANCH  15  24
ENDBRANCH   1  15
TORSDOF 6
ENDMDL
MODEL 3
REMARK VINA RESULT:      -7.7      4.053      7.050
REMARK  Name = 
REMARK  9 active torsions:
REMARK  status: ('A' for Active; 'I' for Inactive)
REMARK    1  A    between atoms: C_1  and  C_2
REMARK    2  A    between atoms: C_2  and  C_3
REMARK    3  A    between atoms: C_7  and  C_8
REMARK    4  A    between atoms: C_9  and  O_10
REMARK    5  A    between atoms: O_10  and  C_11
REMARK    6  A    between atoms: C_11  and  C_13
REMARK    7  A    between atoms: C_14  and  C_15
REMARK    8  A    between atoms: C_18  and  O_19
REMARK    9  A    between atoms: C_20  and  O_21
REMARK                            x       y       z     vdW  Elec       q    Type
REMARK                         _______ _______ _______ _____ _____    ______ ____
ROOT
ATOM      1  C   UNL     1       4.004   6.729  17.553  0.00  0.00    +0.000 C 
ATOM      2  O   UNL     1       4.717   6.639  16.569  0.00  0.00    +0.000 OA
ENDROOT
BRANCH   1   3
ATOM      3  C   UNL     1       2.989   7.777  17.784  0.00  0.00    +0.000 C 
ATOM      4  C   UNL     1       2.304   7.808  18.938  0.00  0.00    +0.000 C 
BRANCH   4   5
ATOM      5  C   UNL     1       1.339   8.862  19.283  0.00  0.00    +0.000 A 
ATOM      6  C   UNL     1       0.907   8.972  20.617  0.00  0.00    +0.000 A 
ATOM      7  C   UNL     1      -0.002   9.964  21.000  0.00  0.00    +0.000 A 
ATOM      8  C   UNL     1      -0.469  10.858  20.045  0.00  0.00    +0.000 A 
ATOM      9  C   UNL     1      -0.025  10.773  18.729  0.00  0.00    +0.000 A 
ATOM     10  C   UNL     1       0.878   9.793  18.342  0.00  0.00    +0.000 A 
BRANCH   8  11
ATOM     11  O   UNL     1      -1.361  11.847  20.356  0.00  0.00    +0.000 OA
ATOM     12  H   UNL     1      -2.087  11.813  19.711  0.00  0.00    +0.000 HD
ENDBRANCH   8  11
BRANCH   9  13
ATOM     13  O   UNL     1      -0.475  11.669  17.801  0.00  0.00    +0.000 OA
ATOM     14  H   UNL     1      -1.300  12.028  18.185  0.00  0.00    +0.000 HD
ENDBRANCH   9  13
ENDBRANCH   4   5
ENDBRANCH   1   3
BRANCH   1  15
ATOM     15  O   UNL     1       3.874   5.824  18.556  0.00  0.00    +0.000 OA
BRANCH  15  24
ATOM     16  C   UNL     1       1.203   2.522  20.142  0.00  0.00    +0.000 C 
ATOM     17  C   UNL     1       2.436   3.378  19.789  0.00  0.00    +0.000 C 
ATOM     18  C   UNL     1       2.431   4.550  20.792  0.00  0.00    +0.000 C 
ATOM     19  C   UNL     1       3.777   2.604  19.751  0.00  0.00    +0.000 C 
ATOM     20  C   UNL     1       3.569   1.573  18.624  0.00  0.00    +0.000 C 
ATOM     21  C   UNL     1       2.736   2.356  17.595  0.00  0.00    +0.000 C 
ATOM     22  C   UNL     1       2.557   3.744  18.273  0.00  0.00    +0.000 C 
ATOM     23  C   UNL     1       1.386   4.515  17.688  0.00  0.00    +0.000 C 
ATOM     24  C   UNL     1       3.955   4.444  18.173  0.00  0.00    +0.000 C 
ATOM     25  C   UNL     1       4.784   3.655  19.215  0.00  0.00    +0.000 C 
ENDBRANCH  15  24
ENDBRANCH   1  15
TORSDOF 6
ENDMDL
MODEL 4
REMARK VINA RESULT:      -7.6      4.015      7.145
REMARK  Name = 
REMARK  9 active torsions:
REMARK  status: ('A' for Active; 'I' for Inactive)
REMARK    1  A    between atoms: C_1  and  C_2
REMARK    2  A    between atoms: C_2  and  C_3
REMARK    3  A    between atoms: C_7  and  C_8
REMARK    4  A    between atoms: C_9  and  O_10
REMARK    5  A    between atoms: O_10  and  C_11
REMARK    6  A    between atoms: C_11  and  C_13
REMARK    7  A    between atoms: C_14  and  C_15
REMARK    8  A    between atoms: C_18  and  O_19
REMARK    9  A    between atoms: C_20  and  O_21
REMARK                            x       y       z     vdW  Elec       q    Type
REMARK                         _______ _______ _______ _____ _____    ______ ____
ROOT
ATOM      1  C   UNL     1       4.028   6.715  17.541  0.00  0.00    +0.000 C 
ATOM      2  O   UNL     1       4.715   6.596  16.543  0.00  0.00    +0.000 OA
ENDROOT
BRANCH   1   3
ATOM      3  C   UNL     1       3.060   7.803  17.791  0.00  0.00    +0.000 C 
ATOM      4  C   UNL     1       2.292   7.780  18.891  0.00  0.00    +0.000 C 
BRANCH   4   5
ATOM      5  C   UNL     1       1.365   8.860  19.259  0.00  0.00    +0.000 A 
ATOM      6  C   UNL     1       0.853   9.687  18.244  0.00  0.00    +0.000 A 
ATOM      7  C   UNL     1      -0.040  10.723  18.538  0.00  0.00    +0.000 A 
ATOM      8  C   UNL     1      -0.433  10.921  19.856  0.00  0.00    +0.000 A 
ATOM      9  C   UNL     1       0.048  10.090  20.863  0.00  0.00    +0.000 A 
ATOM     10  C   UNL     1       0.933   9.060  20.577  0.00  0.00    +0.000 A 
BRANCH   8  11
ATOM     11  O   UNL     1      -1.300  11.918  20.209  0.00  0.00    +0.000 OA
ATOM     12  H   UNL     1      -1.282  12.595  19.512  0.00  0.00    +0.000 HD
ENDBRANCH   8  11
BRANCH   9  13
ATOM     13  O   UNL     1      -0.360  10.281  22.154  0.00  0.00    +0.000 OA
ATOM     14  H   UNL     1      -0.134  11.213  22.347  0.00  0.00    +0.000 HD
ENDBRANCH   9  13
ENDBRANCH   4   5
ENDBRANCH   1   3
BRANCH   1  15
ATOM     15  O   UNL     1       3.883   5.817  18.547  0.00  0.00    +0.000 OA
BRANCH  15  24
ATOM     16  C   UNL     1       1.198   2.535  20.152  0.00  0.00    +0.000 C 
ATOM     17  C   UNL     1       2.435   3.384  19.795  0.00  0.00    +0.000 C 
ATOM     18  C   UNL     1       2.433   4.563  20.791  0.00  0.00    +0.000 C 
ATOM     19  C   UNL     1       3.773   2.606  19.764  0.00  0.00    +0.000 C 
ATOM     20  C   UNL     1       3.562   1.567  18.643  0.00  0.00    +0.000 C 
ATOM     21  C   UNL     1       2.733   2.347  17.608  0.00  0.00    +0.000 C 
ATOM     22  C   UNL     1       2.559   3.740  18.277  0.00  0.00    +0.000 C 
ATOM     23  C   UNL     1       1.390   4.511  17.685  0.00  0.00    +0.000 C 
ATOM     24  C   UNL     1       3.959   4.434  18.174  0.00  0.00    +0.000 C 
ATOM     25  C   UNL     1       4.784   3.649  19.222  0.00  0.00    +0.000 C 
ENDBRANCH  15  24
ENDBRANCH   1  15
TORSDOF 6
ENDMDL
MODEL 5
REMARK VINA RESULT:      -7.4      0.975      1.912
REMARK  Name = 
REMARK  9 active torsions:
REMARK  status: ('A' for Active; 'I' for Inactive)
REMARK    1  A    between atoms: C_1  and  C_2
REMARK    2  A    between atoms: C_2  and  C_3
REMARK    3  A    between atoms: C_7  and  C_8
REMARK    4  A    between atoms: C_9  and  O_10
REMARK    5  A    between atoms: O_10  and  C_11
REMARK    6  A    between atoms: C_11  and  C_13
REMARK    7  A    between atoms: C_14  and  C_15
REMARK    8  A    between atoms: C_18  and  O_19
REMARK    9  A    between atoms: C_20  and  O_21
REMARK                            x       y       z     vdW  Elec       q    Type
REMARK                         _______ _______ _______ _____ _____    ______ ____
ROOT
ATOM      1  C   UNL     1       6.331   5.163  19.331  0.00  0.00    +0.000 C 
ATOM      2  O   UNL     1       7.176   5.549  20.118  0.00  0.00    +0.000 OA
ENDROOT
BRANCH   1   3
ATOM      3  C   UNL     1       6.593   4.683  17.958  0.00  0.00    +0.000 C 
ATOM      4  C   UNL     1       6.090   5.346  16.905  0.00  0.00    +0.000 C 
BRANCH   4   5
ATOM      5  C   UNL     1       6.370   4.987  15.508  0.00  0.00    +0.000 A 
ATOM      6  C   UNL     1       5.537   4.051  14.870  0.00  0.00    +0.000 A 
ATOM      7  C   UNL     1       5.754   3.682  13.538  0.00  0.00    +0.000 A 
ATOM      8  C   UNL     1       6.801   4.266  12.838  0.00  0.00    +0.000 A 
ATOM      9  C   UNL     1       7.613   5.215  13.453  0.00  0.00    +0.000 A 
ATOM     10  C   UNL     1       7.403   5.585  14.774  0.00  0.00    +0.000 A 
BRANCH   8  11
ATOM     11  O   UNL     1       7.067   3.946  11.535  0.00  0.00    +0.000 OA
ATOM     12  H   UNL     1       8.017   4.076  11.380  0.00  0.00    +0.000 HD
ENDBRANCH   8  11
BRANCH   9  13
ATOM     13  O   UNL     1       8.629   5.798  12.749  0.00  0.00    +0.000 OA
ATOM     14  H   UNL     1       8.269   5.914  11.848  0.00  0.00    +0.000 HD
ENDBRANCH   9  13
ENDBRANCH   4   5
ENDBRANCH   1   3
BRANCH   1  15
ATOM     15  O   UNL     1       5.016   4.942  19.583  0.00  0.00    +0.000 OA
BRANCH  15  24
ATOM     16  C   UNL     1       0.647   3.761  19.848  0.00  0.00    +0.000 C 
ATOM     17  C   UNL     1       2.188   3.734  19.917  0.00  0.00    +0.000 C 
ATOM     18  C   UNL     1       2.562   4.548  21.174  0.00  0.00    +0.000 C 
ATOM     19  C   UNL     1       2.817   2.320  19.889  0.00  0.00    +0.000 C 
ATOM     20  C   UNL     1       2.388   1.760  18.518  0.00  0.00    +0.000 C 
ATOM     21  C   UNL     1       2.454   2.998  17.608  0.00  0.00    +0.000 C 
ATOM     22  C   UNL     1       2.902   4.125  18.582  0.00  0.00    +0.000 C 
ATOM     23  C   UNL     1       2.574   5.507  18.041  0.00  0.00    +0.000 C 
ATOM     24  C   UNL     1       4.415   3.847  18.878  0.00  0.00    +0.000 C 
ATOM     25  C   UNL     1       4.339   2.605  19.798  0.00  0.00    +0.000 C 
ENDBRANCH  15  24
ENDBRANCH   1  15
TORSDOF 6
ENDMDL
MODEL 6
REMARK VINA RESULT:      -7.3      4.852      6.272
REMARK  Name = 
REMARK  9 active torsions:
REMARK  status: ('A' for Active; 'I' for Inactive)
REMARK    1  A    between atoms: C_1  and  C_2
REMARK    2  A    between atoms: C_2  and  C_3
REMARK    3  A    between atoms: C_7  and  C_8
REMARK    4  A    between atoms: C_9  and  O_10
REMARK    5  A    between atoms: O_10  and  C_11
REMARK    6  A    between atoms: C_11  and  C_13
REMARK    7  A    between atoms: C_14  and  C_15
REMARK    8  A    between atoms: C_18  and  O_19
REMARK    9  A    between atoms: C_20  and  O_21
REMARK                            x       y       z     vdW  Elec       q    Type
REMARK                         _______ _______ _______ _____ _____    ______ ____
ROOT
ATOM      1  C   UNL     1       6.982   6.887  17.150  0.00  0.00    +0.000 C 
ATOM      2  O   UNL     1       7.727   6.208  16.467  0.00  0.00    +0.000 OA
ENDROOT
BRANCH   1   3
ATOM      3  C   UNL     1       7.240   8.278  17.578  0.00  0.00    +0.000 C 
ATOM      4  C   UNL     1       8.411   8.601  18.147  0.00  0.00    +0.000 C 
BRANCH   4   5
ATOM      5  C   UNL     1       8.781   9.972  18.525  0.00  0.00    +0.000 A 
ATOM      6  C   UNL     1       9.429  10.183  19.755  0.00  0.00    +0.000 A 
ATOM      7  C   UNL     1       9.812  11.467  20.157  0.00  0.00    +0.000 A 
ATOM      8  C   UNL     1       9.558  12.542  19.315  0.00  0.00    +0.000 A 
ATOM      9  C   UNL     1       8.944  12.339  18.084  0.00  0.00    +0.000 A 
ATOM     10  C   UNL     1       8.562  11.067  17.678  0.00  0.00    +0.000 A 
BRANCH   8  11
ATOM     11  O   UNL     1       9.906  13.821  19.652  0.00  0.00    +0.000 OA
ATOM     12  H   UNL     1       9.934  13.882  20.622  0.00  0.00    +0.000 HD
ENDBRANCH   8  11
BRANCH   9  13
ATOM     13  O   UNL     1       8.716  13.401  17.254  0.00  0.00    +0.000 OA
ATOM     14  H   UNL     1       9.490  13.416  16.656  0.00  0.00    +0.000 HD
ENDBRANCH   9  13
ENDBRANCH   4   5
ENDBRANCH   1   3
BRANCH   1  15
ATOM     15  O   UNL     1       5.714   6.586  17.528  0.00  0.00    +0.000 OA
BRANCH  15  24
ATOM     16  C   UNL     1       1.787   4.325  17.678  0.00  0.00    +0.000 C 
ATOM     17  C   UNL     1       3.078   5.065  18.084  0.00  0.00    +0.000 C 
ATOM     18  C   UNL     1       2.783   6.564  17.871  0.00  0.00    +0.000 C 
ATOM     19  C   UNL     1       3.600   4.735  19.504  0.00  0.00    +0.000 C 
ATOM     20  C   UNL     1       3.912   3.227  19.435  0.00  0.00    +0.000 C 
ATOM     21  C   UNL     1       4.462   3.058  18.009  0.00  0.00    +0.000 C 
ATOM     22  C   UNL     1       4.381   4.499  17.429  0.00  0.00    +0.000 C 
ATOM     23  C   UNL     1       4.408   4.503  15.910  0.00  0.00    +0.000 C 
ATOM     24  C   UNL     1       5.527   5.301  18.136  0.00  0.00    +0.000 C 
ATOM     25  C   UNL     1       4.963   5.471  19.568  0.00  0.00    +0.000 C 
ENDBRANCH  15  24
ENDBRANCH   1  15
TORSDOF 6
ENDMDL
MODEL 7
REMARK VINA RESULT:      -7.3      4.831      6.452
REMARK  Name = 
REMARK  9 active torsions:
REMARK  status: ('A' for Active; 'I' for Inactive)
REMARK    1  A    between atoms: C_1  and  C_2
REMARK    2  A    between atoms: C_2  and  C_3
REMARK    3  A    between atoms: C_7  and  C_8
REMARK    4  A    between atoms: C_9  and  O_10
REMARK    5  A    between atoms: O_10  and  C_11
REMARK    6  A    between atoms: C_11  and  C_13
REMARK    7  A    between atoms: C_14  and  C_15
REMARK    8  A    between atoms: C_18  and  O_19
REMARK    9  A    between atoms: C_20  and  O_21
REMARK                            x       y       z     vdW  Elec       q    Type
REMARK                         _______ _______ _______ _____ _____    ______ ____
ROOT
ATOM      1  C   UNL     1       7.183   6.889  17.112  0.00  0.00    +0.000 C 
ATOM      2  O   UNL     1       7.808   6.167  16.356  0.00  0.00    +0.000 OA
ENDROOT
BRANCH   1   3
ATOM      3  C   UNL     1       7.518   8.293  17.430  0.00  0.00    +0.000 C 
ATOM      4  C   UNL     1       8.417   8.570  18.387  0.00  0.00    +0.000 C 
BRANCH   4   5
ATOM      5  C   UNL     1       8.869   9.931  18.709  0.00  0.00    +0.000 A 
ATOM      6  C   UNL     1       8.735  10.936  17.735  0.00  0.00    +0.000 A 
ATOM      7  C   UNL     1       9.140  12.250  17.994  0.00  0.00    +0.000 A 
ATOM      8  C   UNL     1       9.668  12.560  19.240  0.00  0.00    +0.000 A 
ATOM      9  C   UNL     1       9.777  11.578  20.220  0.00  0.00    +0.000 A 
ATOM     10  C   UNL     1       9.376  10.273  19.970  0.00  0.00    +0.000 A 
BRANCH   8  11
ATOM     11  O   UNL     1      10.084  13.824  19.554  0.00  0.00    +0.000 OA
ATOM     12  H   UNL     1       9.908  13.976  20.497  0.00  0.00    +0.000 HD
ENDBRANCH   8  11
BRANCH   9  13
ATOM     13  O   UNL     1      10.279  11.898  21.450  0.00  0.00    +0.000 OA
ATOM     14  H   UNL     1      11.169  11.494  21.465  0.00  0.00    +0.000 HD
ENDBRANCH   9  13
ENDBRANCH   4   5
ENDBRANCH   1   3
BRANCH   1  15
ATOM     15  O   UNL     1       5.985   6.627  17.692  0.00  0.00    +0.000 OA
BRANCH  15  24
ATOM     16  C   UNL     1       1.989   4.486  17.642  0.00  0.00    +0.000 C 
ATOM     17  C   UNL     1       3.316   5.119  18.109  0.00  0.00    +0.000 C 
ATOM     18  C   UNL     1       3.067   6.642  18.127  0.00  0.00    +0.000 C 
ATOM     19  C   UNL     1       3.866   4.568  19.447  0.00  0.00    +0.000 C 
ATOM     20  C   UNL     1       4.125   3.078  19.146  0.00  0.00    +0.000 C 
ATOM     21  C   UNL     1       4.627   3.105  17.693  0.00  0.00    +0.000 C 
ATOM     22  C   UNL     1       4.579   4.618  17.334  0.00  0.00    +0.000 C 
ATOM     23  C   UNL     1       4.562   4.846  15.832  0.00  0.00    +0.000 C 
ATOM     24  C   UNL     1       5.772   5.272  18.112  0.00  0.00    +0.000 C 
ATOM     25  C   UNL     1       5.256   5.246  19.571  0.00  0.00    +0.000 C 
ENDBRANCH  15  24
ENDBRANCH   1  15
TORSDOF 6
ENDMDL
MODEL 8
REMARK VINA RESULT:      -7.2      1.013      1.722
REMARK  Name = 
REMARK  9 active torsions:
REMARK  status: ('A' for Active; 'I' for Inactive)
REMARK    1  A    between atoms: C_1  and  C_2
REMARK    2  A    between atoms: C_2  and  C_3
REMARK    3  A    between atoms: C_7  and  C_8
REMARK    4  A    between atoms: C_9  and  O_10
REMARK    5  A    between atoms: O_10  and  C_11
REMARK    6  A    between atoms: C_11  and  C_13
REMARK    7  A    between atoms: C_14  and  C_15
REMARK    8  A    between atoms: C_18  and  O_19
REMARK    9  A    between atoms: C_20  and  O_21
REMARK                            x       y       z     vdW  Elec       q    Type
REMARK                         _______ _______ _______ _____ _____    ______ ____
ROOT
ATOM      1  C   UNL     1       6.305   4.860  18.747  0.00  0.00    +0.000 C 
ATOM      2  O   UNL     1       6.915   5.422  19.638  0.00  0.00    +0.000 OA
ENDROOT
BRANCH   1   3
ATOM      3  C   UNL     1       6.779   4.689  17.358  0.00  0.00    +0.000 C 
ATOM      4  C   UNL     1       5.895   4.593  16.353  0.00  0.00    +0.000 C 
BRANCH   4   5
ATOM      5  C   UNL     1       6.280   4.506  14.937  0.00  0.00    +0.000 A 
ATOM      6  C   UNL     1       7.369   5.273  14.484  0.00  0.00    +0.000 A 
ATOM      7  C   UNL     1       7.783   5.218  13.148  0.00  0.00    +0.000 A 
ATOM      8  C   UNL     1       7.112   4.380  12.267  0.00  0.00    +0.000 A 
ATOM      9  C   UNL     1       6.052   3.597  12.714  0.00  0.00    +0.000 A 
ATOM     10  C   UNL     1       5.637   3.645  14.037  0.00  0.00    +0.000 A 
BRANCH   8  11
ATOM     11  O   UNL     1       7.466   4.285  10.950  0.00  0.00    +0.000 OA
ATOM     12  H   UNL     1       7.964   5.085  10.712  0.00  0.00    +0.000 HD
ENDBRANCH   8  11
BRANCH   9  13
ATOM     13  O   UNL     1       5.411   2.761  11.843  0.00  0.00    +0.000 OA
ATOM     14  H   UNL     1       5.966   2.771  11.038  0.00  0.00    +0.000 HD
ENDBRANCH   9  13
ENDBRANCH   4   5
ENDBRANCH   1   3
BRANCH   1  15
ATOM     15  O   UNL     1       5.157   4.146  18.865  0.00  0.00    +0.000 OA
BRANCH  15  24
ATOM     16  C   UNL     1       0.855   2.734  19.089  0.00  0.00    +0.000 C 
ATOM     17  C   UNL     1       2.111   3.606  18.889  0.00  0.00    +0.000 C 
ATOM     18  C   UNL     1       2.710   3.169  17.536  0.00  0.00    +0.000 C 
ATOM     19  C   UNL     1       1.869   5.132  18.992  0.00  0.00    +0.000 C 
ATOM     20  C   UNL     1       1.376   5.324  20.441  0.00  0.00    +0.000 C 
ATOM     21  C   UNL     1       2.216   4.301  21.225  0.00  0.00    +0.000 C 
ATOM     22  C   UNL     1       3.081   3.635  20.116  0.00  0.00    +0.000 C 
ATOM     23  C   UNL     1       3.626   2.286  20.555  0.00  0.00    +0.000 C 
ATOM     24  C   UNL     1       4.150   4.708  19.716  0.00  0.00    +0.000 C 
ATOM     25  C   UNL     1       3.298   5.730  18.924  0.00  0.00    +0.000 C 
ENDBRANCH  15  24
ENDBRANCH   1  15
TORSDOF 6
ENDMDL
MODEL 9
REMARK VINA RESULT:      -7.2      4.079      7.029
REMARK  Name = 
REMARK  9 active torsions:
REMARK  status: ('A' for Active; 'I' for Inactive)
REMARK    1  A    between atoms: C_1  and  C_2
REMARK    2  A    between atoms: C_2  and  C_3
REMARK    3  A    between atoms: C_7  and  C_8
REMARK    4  A    between atoms: C_9  and  O_10
REMARK    5  A    between atoms: O_10  and  C_11
REMARK    6  A    between atoms: C_11  and  C_13
REMARK    7  A    between atoms: C_14  and  C_15
REMARK    8  A    between atoms: C_18  and  O_19
REMARK    9  A    between atoms: C_20  and  O_21
REMARK                            x       y       z     vdW  Elec       q    Type
REMARK                         _______ _______ _______ _____ _____    ______ ____
ROOT
ATOM      1  C   UNL     1       3.733   6.425  17.538  0.00  0.00    +0.000 C 
ATOM      2  O   UNL     1       4.551   6.743  16.695  0.00  0.00    +0.000 OA
ENDROOT
BRANCH   1   3
ATOM      3  C   UNL     1       2.484   7.156  17.840  0.00  0.00    +0.000 C 
ATOM      4  C   UNL     1       2.512   8.233  18.640  0.00  0.00    +0.000 C 
BRANCH   4   5
ATOM      5  C   UNL     1       1.334   9.065  18.925  0.00  0.00    +0.000 A 
ATOM      6  C   UNL     1       1.009   9.341  20.264  0.00  0.00    +0.000 A 
ATOM      7  C   UNL     1      -0.095  10.137  20.590  0.00  0.00    +0.000 A 
ATOM      8  C   UNL     1      -0.868  10.670  19.566  0.00  0.00    +0.000 A 
ATOM      9  C   UNL     1      -0.537  10.425  18.237  0.00  0.00    +0.000 A 
ATOM     10  C   UNL     1       0.558   9.638  17.907  0.00  0.00    +0.000 A 
BRANCH   8  11
ATOM     11  O   UNL     1      -1.961  11.452  19.819  0.00  0.00    +0.000 OA
ATOM     12  H   UNL     1      -1.865  12.277  19.316  0.00  0.00    +0.000 HD
ENDBRANCH   8  11
BRANCH   9  13
ATOM     13  O   UNL     1      -1.292  10.970  17.237  0.00  0.00    +0.000 OA
ATOM     14  H   UNL     1      -2.145  10.494  17.286  0.00  0.00    +0.000 HD
ENDBRANCH   9  13
ENDBRANCH   4   5
ENDBRANCH   1   3
BRANCH   1  15
ATOM     15  O   UNL     1       3.703   5.276  18.259  0.00  0.00    +0.000 OA
BRANCH  15  24
ATOM     16  C   UNL     1       2.552   2.157  21.341  0.00  0.00    +0.000 C 
ATOM     17  C   UNL     1       2.864   2.866  20.008  0.00  0.00    +0.000 C 
ATOM     18  C   UNL     1       4.403   2.946  19.929  0.00  0.00    +0.000 C 
ATOM     19  C   UNL     1       2.216   2.220  18.759  0.00  0.00    +0.000 C 
ATOM     20  C   UNL     1       0.703   2.348  19.028  0.00  0.00    +0.000 C 
ATOM     21  C   UNL     1       0.595   3.715  19.725  0.00  0.00    +0.000 C 
ATOM     22  C   UNL     1       2.073   4.196  19.781  0.00  0.00    +0.000 C 
ATOM     23  C   UNL     1       2.281   5.271  20.836  0.00  0.00    +0.000 C 
ATOM     24  C   UNL     1       2.440   4.599  18.313  0.00  0.00    +0.000 C 
ATOM     25  C   UNL     1       2.553   3.218  17.621  0.00  0.00    +0.000 C 
ENDBRANCH  15  24
ENDBRANCH   1  15
TORSDOF 6
ENDMDL
