MODEL 1
REMARK VINA RESULT:      -9.1      0.000      0.000
REMARK  Name = 
REMARK  8 active torsions:
REMARK  status: ('A' for Active; 'I' for Inactive)
REMARK    1  A    between atoms: C_1  and  C_2
REMARK    2  A    between atoms: C_5  and  C_6
REMARK    3  A    between atoms: N_10  and  C_11
REMARK    4  A    between atoms: C_11  and  C_12
REMARK    5  A    between atoms: C_11  and  P_20
REMARK    6  A    between atoms: C_12  and  C_13
REMARK    7  A    between atoms: P_20  and  O_22
REMARK    8  A    between atoms: P_20  and  O_23
REMARK                            x       y       z     vdW  Elec       q    Type
REMARK                         _______ _______ _______ _____ _____    ______ ____
ROOT
ATOM      1  C   UNL     1       1.694   7.507  20.174  0.00  0.00    +0.000 A 
ATOM      2  C   UNL     1       2.660   7.306  19.196  0.00  0.00    +0.000 A 
ATOM      3  C   UNL     1       2.976   5.911  18.963  0.00  0.00    +0.000 A 
ATOM      4  C   UNL     1       3.844   5.215  18.073  0.00  0.00    +0.000 A 
ATOM      5  N   UNL     1       4.565   5.826  17.042  0.00  0.00    +0.000 N 
ATOM      6  N   UNL     1       3.925   3.870  18.204  0.00  0.00    +0.000 NA
ATOM      7  C   UNL     1       3.112   3.238  19.070  0.00  0.00    +0.000 A 
ATOM      8  N   UNL     1       2.255   3.786  19.923  0.00  0.00    +0.000 NA
ATOM      9  C   UNL     1       2.238   5.123  19.836  0.00  0.00    +0.000 A 
ATOM     10  S   UNL     1       1.220   6.012  20.863  0.00  0.00    +0.000 S 
ATOM     11  H   UNL     1       4.502   6.836  17.113  0.00  0.00    +0.000 HD
ENDROOT
BRANCH   1  16
ATOM     12  C   UNL     1      -0.622  12.455  22.198  0.00  0.00    +0.000 C 
ATOM     13  C   UNL     1      -0.029  11.184  21.654  0.00  0.00    +0.000 A 
ATOM     14  C   UNL     1       0.025  10.044  22.466  0.00  0.00    +0.000 A 
ATOM     15  C   UNL     1       0.579   8.850  21.985  0.00  0.00    +0.000 A 
ATOM     16  C   UNL     1       1.096   8.758  20.681  0.00  0.00    +0.000 A 
ATOM     17  C   UNL     1       1.032   9.898  19.870  0.00  0.00    +0.000 A 
ATOM     18  C   UNL     1       0.479  11.093  20.350  0.00  0.00    +0.000 A 
ATOM     19 CL   UNL     1       0.447  12.451  19.280  0.00  0.00    +0.000 Cl
ENDBRANCH   1  16
BRANCH   5  20
ATOM     20  C   UNL     1       5.951   5.371  16.721  0.00  0.00    +0.000 C 
BRANCH  20  21
ATOM     21  P   UNL     1       7.226   5.312  18.011  0.00  0.00    +0.000 P 
ATOM     22  O   UNL     1       7.899   6.618  18.318  0.00  0.00    +0.000 OA
BRANCH  21  23
ATOM     23  O   UNL     1       6.493   4.733  19.323  0.00  0.00    +0.000 OA
ATOM     24  H   UNL     1       6.438   3.754  19.241  0.00  0.00    +0.000 HD
ENDBRANCH  21  23
BRANCH  21  25
ATOM     25  O   UNL     1       8.299   4.144  17.755  0.00  0.00    +0.000 OA
ATOM     26  H   UNL     1       8.251   3.853  16.823  0.00  0.00    +0.000 HD
ENDBRANCH  21  25
ENDBRANCH  20  21
BRANCH  20  27
ATOM     27  C   UNL     1       5.949   4.060  15.892  0.00  0.00    +0.000 C 
BRANCH  27  28
ATOM     28  C   UNL     1       6.378   4.050  14.438  0.00  0.00    +0.000 A 
ATOM     29  C   UNL     1       7.363   4.965  14.012  0.00  0.00    +0.000 A 
ATOM     30  C   UNL     1       7.741   5.062  12.669  0.00  0.00    +0.000 A 
ATOM     31  C   UNL     1       7.129   4.252  11.720  0.00  0.00    +0.000 A 
ATOM     32  C   UNL     1       6.143   3.361  12.126  0.00  0.00    +0.000 A 
ATOM     33  F   UNL     1       5.530   2.604  11.207  0.00  0.00    +0.000 F 
ATOM     34  C   UNL     1       5.763   3.254  13.467  0.00  0.00    +0.000 A 
ENDBRANCH  27  28
ENDBRANCH  20  27
ENDBRANCH   5  20
TORSDOF 7
ENDMDL
MODEL 2
REMARK VINA RESULT:      -9.0      1.566      2.134
REMARK  Name = 
REMARK  8 active torsions:
REMARK  status: ('A' for Active; 'I' for Inactive)
REMARK    1  A    between atoms: C_1  and  C_2
REMARK    2  A    between atoms: C_5  and  C_6
REMARK    3  A    between atoms: N_10  and  C_11
REMARK    4  A    between atoms: C_11  and  C_12
REMARK    5  A    between atoms: C_11  and  P_20
REMARK    6  A    between atoms: C_12  and  C_13
REMARK    7  A    between atoms: P_20  and  O_22
REMARK    8  A    between atoms: P_20  and  O_23
REMARK                            x       y       z     vdW  Elec       q    Type
REMARK                         _______ _______ _______ _____ _____    ______ ____
ROOT
ATOM      1  C   UNL     1       1.439   8.767  19.833  0.00  0.00    +0.000 A 
ATOM      2  C   UNL     1       2.288   8.166  18.913  0.00  0.00    +0.000 A 
ATOM      3  C   UNL     1       2.533   6.761  19.172  0.00  0.00    +0.000 A 
ATOM      4  C   UNL     1       3.278   5.736  18.521  0.00  0.00    +0.000 A 
ATOM      5  N   UNL     1       3.905   5.890  17.279  0.00  0.00    +0.000 N 
ATOM      6  N   UNL     1       3.331   4.524  19.121  0.00  0.00    +0.000 NA
ATOM      7  C   UNL     1       2.595   4.298  20.224  0.00  0.00    +0.000 A 
ATOM      8  N   UNL     1       1.852   5.170  20.894  0.00  0.00    +0.000 NA
ATOM      9  C   UNL     1       1.868   6.387  20.332  0.00  0.00    +0.000 A 
ATOM     10  S   UNL     1       0.994   7.650  21.055  0.00  0.00    +0.000 S 
ATOM     11  H   UNL     1       3.881   6.861  16.986  0.00  0.00    +0.000 HD
ENDROOT
BRANCH   1  16
ATOM     12  C   UNL     1      -0.580  14.225  20.090  0.00  0.00    +0.000 C 
ATOM     13  C   UNL     1      -0.057  12.815  20.047  0.00  0.00    +0.000 A 
ATOM     14  C   UNL     1       0.612  12.361  18.904  0.00  0.00    +0.000 A 
ATOM     15  C   UNL     1       1.102  11.051  18.836  0.00  0.00    +0.000 A 
ATOM     16  C   UNL     1       0.938  10.153  19.905  0.00  0.00    +0.000 A 
ATOM     17  C   UNL     1       0.275  10.613  21.050  0.00  0.00    +0.000 A 
ATOM     18  C   UNL     1      -0.216  11.925  21.119  0.00  0.00    +0.000 A 
ATOM     19 CL   UNL     1      -1.027  12.404  22.570  0.00  0.00    +0.000 Cl
ENDBRANCH   1  16
BRANCH   5  20
ATOM     20  C   UNL     1       5.233   5.257  17.023  0.00  0.00    +0.000 C 
BRANCH  20  21
ATOM     21  P   UNL     1       6.296   4.748  18.403  0.00  0.00    +0.000 P 
ATOM     22  O   UNL     1       6.365   5.707  19.556  0.00  0.00    +0.000 OA
BRANCH  21  23
ATOM     23  O   UNL     1       5.726   3.322  18.889  0.00  0.00    +0.000 OA
ATOM     24  H   UNL     1       5.196   2.934  18.157  0.00  0.00    +0.000 HD
ENDBRANCH  21  23
BRANCH  21  25
ATOM     25  O   UNL     1       7.761   4.309  17.915  0.00  0.00    +0.000 OA
ATOM     26  H   UNL     1       8.051   4.890  17.184  0.00  0.00    +0.000 HD
ENDBRANCH  21  25
ENDBRANCH  20  21
BRANCH  20  27
ATOM     27  C   UNL     1       5.139   4.132  15.959  0.00  0.00    +0.000 C 
BRANCH  27  28
ATOM     28  C   UNL     1       5.829   4.262  14.616  0.00  0.00    +0.000 A 
ATOM     29  C   UNL     1       5.349   3.503  13.528  0.00  0.00    +0.000 A 
ATOM     30  C   UNL     1       5.992   3.515  12.286  0.00  0.00    +0.000 A 
ATOM     31  C   UNL     1       7.140   4.278  12.111  0.00  0.00    +0.000 A 
ATOM     32  C   UNL     1       7.632   5.013  13.182  0.00  0.00    +0.000 A 
ATOM     33  F   UNL     1       8.757   5.723  13.023  0.00  0.00    +0.000 F 
ATOM     34  C   UNL     1       6.993   5.011  14.425  0.00  0.00    +0.000 A 
ENDBRANCH  27  28
ENDBRANCH  20  27
ENDBRANCH   5  20
TORSDOF 7
ENDMDL
MODEL 3
REMARK VINA RESULT:      -8.9      1.630      2.114
REMARK  Name = 
REMARK  8 active torsions:
REMARK  status: ('A' for Active; 'I' for Inactive)
REMARK    1  A    between atoms: C_1  and  C_2
REMARK    2  A    between atoms: C_5  and  C_6
REMARK    3  A    between atoms: N_10  and  C_11
REMARK    4  A    between atoms: C_11  and  C_12
REMARK    5  A    between atoms: C_11  and  P_20
REMARK    6  A    between atoms: C_12  and  C_13
REMARK    7  A    between atoms: P_20  and  O_22
REMARK    8  A    between atoms: P_20  and  O_23
REMARK                            x       y       z     vdW  Elec       q    Type
REMARK                         _______ _______ _______ _____ _____    ______ ____
ROOT
ATOM      1  C   UNL     1       1.454   8.918  19.458  0.00  0.00    +0.000 A 
ATOM      2  C   UNL     1       2.312   8.246  18.595  0.00  0.00    +0.000 A 
ATOM      3  C   UNL     1       2.574   6.874  18.983  0.00  0.00    +0.000 A 
ATOM      4  C   UNL     1       3.332   5.803  18.428  0.00  0.00    +0.000 A 
ATOM      5  N   UNL     1       3.957   5.850  17.177  0.00  0.00    +0.000 N 
ATOM      6  N   UNL     1       3.400   4.652  19.136  0.00  0.00    +0.000 NA
ATOM      7  C   UNL     1       2.666   4.519  20.257  0.00  0.00    +0.000 A 
ATOM      8  N   UNL     1       1.912   5.440  20.844  0.00  0.00    +0.000 NA
ATOM      9  C   UNL     1       1.913   6.600  20.172  0.00  0.00    +0.000 A 
ATOM     10  S   UNL     1       1.023   7.913  20.777  0.00  0.00    +0.000 S 
ATOM     11  H   UNL     1       3.922   6.789  16.796  0.00  0.00    +0.000 HD
ENDROOT
BRANCH   1  16
ATOM     12  C   UNL     1      -0.575  14.376  19.289  0.00  0.00    +0.000 C 
ATOM     13  C   UNL     1      -0.038  12.972  19.314  0.00  0.00    +0.000 A 
ATOM     14  C   UNL     1      -0.808  11.947  19.877  0.00  0.00    +0.000 A 
ATOM     15  C   UNL     1      -0.328  10.632  19.919  0.00  0.00    +0.000 A 
ATOM     16  C   UNL     1       0.936  10.299  19.402  0.00  0.00    +0.000 A 
ATOM     17  C   UNL     1       1.701  11.325  18.832  0.00  0.00    +0.000 A 
ATOM     18  C   UNL     1       1.220  12.642  18.790  0.00  0.00    +0.000 A 
ATOM     19 CL   UNL     1       2.236  13.845  18.073  0.00  0.00    +0.000 Cl
ENDBRANCH   1  16
BRANCH   5  20
ATOM     20  C   UNL     1       5.294   5.213  16.979  0.00  0.00    +0.000 C 
BRANCH  20  21
ATOM     21  P   UNL     1       6.300   4.715  18.405  0.00  0.00    +0.000 P 
ATOM     22  O   UNL     1       6.335   5.689  19.547  0.00  0.00    +0.000 OA
BRANCH  21  23
ATOM     23  O   UNL     1       5.700   3.300  18.889  0.00  0.00    +0.000 OA
ATOM     24  H   UNL     1       6.354   2.597  18.678  0.00  0.00    +0.000 HD
ENDBRANCH  21  23
BRANCH  21  25
ATOM     25  O   UNL     1       7.779   4.257  17.978  0.00  0.00    +0.000 OA
ATOM     26  H   UNL     1       7.726   3.651  17.212  0.00  0.00    +0.000 HD
ENDBRANCH  21  25
ENDBRANCH  20  21
BRANCH  20  27
ATOM     27  C   UNL     1       5.240   4.079  15.923  0.00  0.00    +0.000 C 
BRANCH  27  28
ATOM     28  C   UNL     1       5.914   4.230  14.574  0.00  0.00    +0.000 A 
ATOM     29  C   UNL     1       5.457   3.447  13.492  0.00  0.00    +0.000 A 
ATOM     30  C   UNL     1       6.090   3.479  12.246  0.00  0.00    +0.000 A 
ATOM     31  C   UNL     1       7.206   4.286  12.059  0.00  0.00    +0.000 A 
ATOM     32  C   UNL     1       7.676   5.045  13.123  0.00  0.00    +0.000 A 
ATOM     33  F   UNL     1       8.771   5.798  12.952  0.00  0.00    +0.000 F 
ATOM     34  C   UNL     1       7.046   5.023  14.370  0.00  0.00    +0.000 A 
ENDBRANCH  27  28
ENDBRANCH  20  27
ENDBRANCH   5  20
TORSDOF 7
ENDMDL
MODEL 4
REMARK VINA RESULT:      -8.9      1.335      1.989
REMARK  Name = 
REMARK  8 active torsions:
REMARK  status: ('A' for Active; 'I' for Inactive)
REMARK    1  A    between atoms: C_1  and  C_2
REMARK    2  A    between atoms: C_5  and  C_6
REMARK    3  A    between atoms: N_10  and  C_11
REMARK    4  A    between atoms: C_11  and  C_12
REMARK    5  A    between atoms: C_11  and  P_20
REMARK    6  A    between atoms: C_12  and  C_13
REMARK    7  A    between atoms: P_20  and  O_22
REMARK    8  A    between atoms: P_20  and  O_23
REMARK                            x       y       z     vdW  Elec       q    Type
REMARK                         _______ _______ _______ _____ _____    ______ ____
ROOT
ATOM      1  C   UNL     1       1.586   8.015  19.956  0.00  0.00    +0.000 A 
ATOM      2  C   UNL     1       2.555   7.692  19.014  0.00  0.00    +0.000 A 
ATOM      3  C   UNL     1       2.956   6.299  19.041  0.00  0.00    +0.000 A 
ATOM      4  C   UNL     1       3.858   5.501  18.281  0.00  0.00    +0.000 A 
ATOM      5  N   UNL     1       4.531   5.949  17.139  0.00  0.00    +0.000 N 
ATOM      6  N   UNL     1       4.026   4.213  18.660  0.00  0.00    +0.000 NA
ATOM      7  C   UNL     1       3.261   3.707  19.645  0.00  0.00    +0.000 A 
ATOM      8  N   UNL     1       2.379   4.353  20.398  0.00  0.00    +0.000 NA
ATOM      9  C   UNL     1       2.277   5.647  20.061  0.00  0.00    +0.000 A 
ATOM     10  S   UNL     1       1.213   6.650  20.924  0.00  0.00    +0.000 S 
ATOM     11  H   UNL     1       4.405   6.949  17.020  0.00  0.00    +0.000 HD
ENDROOT
BRANCH   1  16
ATOM     12  C   UNL     1      -1.106  13.072  21.014  0.00  0.00    +0.000 C 
ATOM     13  C   UNL     1      -0.409  11.763  20.764  0.00  0.00    +0.000 A 
ATOM     14  C   UNL     1       0.269  11.561  19.555  0.00  0.00    +0.000 A 
ATOM     15  C   UNL     1       0.920  10.348  19.295  0.00  0.00    +0.000 A 
ATOM     16  C   UNL     1       0.914   9.300  20.231  0.00  0.00    +0.000 A 
ATOM     17  C   UNL     1       0.242   9.509  21.442  0.00  0.00    +0.000 A 
ATOM     18  C   UNL     1      -0.410  10.722  21.703  0.00  0.00    +0.000 A 
ATOM     19 CL   UNL     1      -1.219  10.888  23.223  0.00  0.00    +0.000 Cl
ENDBRANCH   1  16
BRANCH   5  20
ATOM     20  C   UNL     1       5.940   5.526  16.881  0.00  0.00    +0.000 C 
BRANCH  20  21
ATOM     21  P   UNL     1       7.130   5.397  18.244  0.00  0.00    +0.000 P 
ATOM     22  O   UNL     1       8.156   4.309  18.110  0.00  0.00    +0.000 OA
BRANCH  21  23
ATOM     23  O   UNL     1       7.846   6.837  18.336  0.00  0.00    +0.000 OA
ATOM     24  H   UNL     1       7.181   7.496  18.638  0.00  0.00    +0.000 HD
ENDBRANCH  21  23
BRANCH  21  25
ATOM     25  O   UNL     1       6.412   5.353  19.680  0.00  0.00    +0.000 OA
ATOM     26  H   UNL     1       6.534   6.210  20.134  0.00  0.00    +0.000 HD
ENDBRANCH  21  25
ENDBRANCH  20  21
BRANCH  20  27
ATOM     27  C   UNL     1       6.007   4.270  15.974  0.00  0.00    +0.000 C 
BRANCH  27  28
ATOM     28  C   UNL     1       6.416   4.373  14.518  0.00  0.00    +0.000 A 
ATOM     29  C   UNL     1       5.887   3.447  13.594  0.00  0.00    +0.000 A 
ATOM     30  C   UNL     1       6.290   3.437  12.255  0.00  0.00    +0.000 A 
ATOM     31  C   UNL     1       7.242   4.347  11.815  0.00  0.00    +0.000 A 
ATOM     32  C   UNL     1       7.784   5.251  12.720  0.00  0.00    +0.000 A 
ATOM     33  F   UNL     1       8.726   6.107  12.302  0.00  0.00    +0.000 F 
ATOM     34  C   UNL     1       7.384   5.271  14.059  0.00  0.00    +0.000 A 
ENDBRANCH  27  28
ENDBRANCH  20  27
ENDBRANCH   5  20
TORSDOF 7
ENDMDL
MODEL 5
REMARK VINA RESULT:      -8.9      1.006      1.571
REMARK  Name = 
REMARK  8 active torsions:
REMARK  status: ('A' for Active; 'I' for Inactive)
REMARK    1  A    between atoms: C_1  and  C_2
REMARK    2  A    between atoms: C_5  and  C_6
REMARK    3  A    between atoms: N_10  and  C_11
REMARK    4  A    between atoms: C_11  and  C_12
REMARK    5  A    between atoms: C_11  and  P_20
REMARK    6  A    between atoms: C_12  and  C_13
REMARK    7  A    between atoms: P_20  and  O_22
REMARK    8  A    between atoms: P_20  and  O_23
REMARK                            x       y       z     vdW  Elec       q    Type
REMARK                         _______ _______ _______ _____ _____    ______ ____
ROOT
ATOM      1  C   UNL     1       1.603   8.015  19.887  0.00  0.00    +0.000 A 
ATOM      2  C   UNL     1       2.558   7.669  18.938  0.00  0.00    +0.000 A 
ATOM      3  C   UNL     1       2.972   6.282  19.003  0.00  0.00    +0.000 A 
ATOM      4  C   UNL     1       3.868   5.467  18.252  0.00  0.00    +0.000 A 
ATOM      5  N   UNL     1       4.515   5.883  17.084  0.00  0.00    +0.000 N 
ATOM      6  N   UNL     1       4.054   4.193  18.671  0.00  0.00    +0.000 NA
ATOM      7  C   UNL     1       3.312   3.714  19.686  0.00  0.00    +0.000 A 
ATOM      8  N   UNL     1       2.438   4.377  20.433  0.00  0.00    +0.000 NA
ATOM      9  C   UNL     1       2.318   5.658  20.056  0.00  0.00    +0.000 A 
ATOM     10  S   UNL     1       1.261   6.680  20.905  0.00  0.00    +0.000 S 
ATOM     11  H   UNL     1       4.378   6.877  16.935  0.00  0.00    +0.000 HD
ENDROOT
BRANCH   1  16
ATOM     12  C   UNL     1      -1.115  13.080  20.829  0.00  0.00    +0.000 C 
ATOM     13  C   UNL     1      -0.410  11.770  20.609  0.00  0.00    +0.000 A 
ATOM     14  C   UNL     1       0.235  11.529  19.390  0.00  0.00    +0.000 A 
ATOM     15  C   UNL     1       0.893  10.314  19.157  0.00  0.00    +0.000 A 
ATOM     16  C   UNL     1       0.925   9.303  20.133  0.00  0.00    +0.000 A 
ATOM     17  C   UNL     1       0.285   9.550  21.353  0.00  0.00    +0.000 A 
ATOM     18  C   UNL     1      -0.373  10.766  21.587  0.00  0.00    +0.000 A 
ATOM     19 CL   UNL     1      -1.141  10.982  23.122  0.00  0.00    +0.000 Cl
ENDBRANCH   1  16
BRANCH   5  20
ATOM     20  C   UNL     1       5.923   5.464  16.814  0.00  0.00    +0.000 C 
BRANCH  20  21
ATOM     21  P   UNL     1       7.163   5.480  18.140  0.00  0.00    +0.000 P 
ATOM     22  O   UNL     1       8.223   4.421  18.050  0.00  0.00    +0.000 OA
BRANCH  21  23
ATOM     23  O   UNL     1       7.827   6.947  18.097  0.00  0.00    +0.000 OA
ATOM     24  H   UNL     1       8.805   6.846  18.127  0.00  0.00    +0.000 HD
ENDBRANCH  21  23
BRANCH  21  25
ATOM     25  O   UNL     1       6.495   5.521  19.599  0.00  0.00    +0.000 OA
ATOM     26  H   UNL     1       6.485   6.441  19.930  0.00  0.00    +0.000 HD
ENDBRANCH  21  25
ENDBRANCH  20  21
BRANCH  20  27
ATOM     27  C   UNL     1       5.986   4.132  16.022  0.00  0.00    +0.000 C 
BRANCH  27  28
ATOM     28  C   UNL     1       6.389   4.105  14.561  0.00  0.00    +0.000 A 
ATOM     29  C   UNL     1       7.358   5.024  14.105  0.00  0.00    +0.000 A 
ATOM     30  C   UNL     1       7.711   5.106  12.754  0.00  0.00    +0.000 A 
ATOM     31  C   UNL     1       7.091   4.277  11.828  0.00  0.00    +0.000 A 
ATOM     32  C   UNL     1       6.122   3.382  12.264  0.00  0.00    +0.000 A 
ATOM     33  F   UNL     1       5.501   2.605  11.366  0.00  0.00    +0.000 F 
ATOM     34  C   UNL     1       5.766   3.290  13.612  0.00  0.00    +0.000 A 
ENDBRANCH  27  28
ENDBRANCH  20  27
ENDBRANCH   5  20
TORSDOF 7
ENDMDL
MODEL 6
REMARK VINA RESULT:      -8.8      1.004      1.322
REMARK  Name = 
REMARK  8 active torsions:
REMARK  status: ('A' for Active; 'I' for Inactive)
REMARK    1  A    between atoms: C_1  and  C_2
REMARK    2  A    between atoms: C_5  and  C_6
REMARK    3  A    between atoms: N_10  and  C_11
REMARK    4  A    between atoms: C_11  and  C_12
REMARK    5  A    between atoms: C_11  and  P_20
REMARK    6  A    between atoms: C_12  and  C_13
REMARK    7  A    between atoms: P_20  and  O_22
REMARK    8  A    between atoms: P_20  and  O_23
REMARK                            x       y       z     vdW  Elec       q    Type
REMARK                         _______ _______ _______ _____ _____    ______ ____
ROOT
ATOM      1  C   UNL     1       1.508   7.728  20.320  0.00  0.00    +0.000 A 
ATOM      2  C   UNL     1       2.397   7.464  19.285  0.00  0.00    +0.000 A 
ATOM      3  C   UNL     1       2.675   6.053  19.099  0.00  0.00    +0.000 A 
ATOM      4  C   UNL     1       3.466   5.300  18.184  0.00  0.00    +0.000 A 
ATOM      5  N   UNL     1       4.117   5.848  17.074  0.00  0.00    +0.000 N 
ATOM      6  N   UNL     1       3.539   3.962  18.375  0.00  0.00    +0.000 NA
ATOM      7  C   UNL     1       2.783   3.387  19.329  0.00  0.00    +0.000 A 
ATOM      8  N   UNL     1       1.999   3.990  20.214  0.00  0.00    +0.000 NA
ATOM      9  C   UNL     1       1.994   5.322  20.062  0.00  0.00    +0.000 A 
ATOM     10  S   UNL     1       1.066   6.276  21.116  0.00  0.00    +0.000 S 
ATOM     11  H   UNL     1       4.073   6.861  17.099  0.00  0.00    +0.000 HD
ENDROOT
BRANCH   1  16
ATOM     12  C   UNL     1      -0.590  12.800  22.272  0.00  0.00    +0.000 C 
ATOM     13  C   UNL     1      -0.050  11.499  21.746  0.00  0.00    +0.000 A 
ATOM     14  C   UNL     1      -0.244  10.323  22.481  0.00  0.00    +0.000 A 
ATOM     15  C   UNL     1       0.255   9.099  22.016  0.00  0.00    +0.000 A 
ATOM     16  C   UNL     1       0.966   9.012  20.807  0.00  0.00    +0.000 A 
ATOM     17  C   UNL     1       1.152  10.189  20.071  0.00  0.00    +0.000 A 
ATOM     18  C   UNL     1       0.652  11.414  20.535  0.00  0.00    +0.000 A 
ATOM     19 CL   UNL     1       0.935  12.817  19.564  0.00  0.00    +0.000 Cl
ENDBRANCH   1  16
BRANCH   5  20
ATOM     20  C   UNL     1       5.469   5.354  16.675  0.00  0.00    +0.000 C 
BRANCH  20  21
ATOM     21  P   UNL     1       6.732   5.004  17.930  0.00  0.00    +0.000 P 
ATOM     22  O   UNL     1       7.003   6.113  18.905  0.00  0.00    +0.000 OA
BRANCH  21  23
ATOM     23  O   UNL     1       6.223   3.686  18.704  0.00  0.00    +0.000 OA
ATOM     24  H   UNL     1       6.286   3.850  19.672  0.00  0.00    +0.000 HD
ENDBRANCH  21  23
BRANCH  21  25
ATOM     25  O   UNL     1       8.091   4.441  17.288  0.00  0.00    +0.000 OA
ATOM     26  H   UNL     1       7.879   3.776  16.603  0.00  0.00    +0.000 HD
ENDBRANCH  21  25
ENDBRANCH  20  21
BRANCH  20  27
ATOM     27  C   UNL     1       5.379   4.194  15.650  0.00  0.00    +0.000 C 
BRANCH  27  28
ATOM     28  C   UNL     1       6.048   4.292  14.293  0.00  0.00    +0.000 A 
ATOM     29  C   UNL     1       5.617   3.435  13.258  0.00  0.00    +0.000 A 
ATOM     30  C   UNL     1       6.250   3.417  12.011  0.00  0.00    +0.000 A 
ATOM     31  C   UNL     1       7.337   4.249  11.778  0.00  0.00    +0.000 A 
ATOM     32  C   UNL     1       7.782   5.083  12.796  0.00  0.00    +0.000 A 
ATOM     33  F   UNL     1       8.851   5.861  12.582  0.00  0.00    +0.000 F 
ATOM     34  C   UNL     1       7.153   5.110  14.044  0.00  0.00    +0.000 A 
ENDBRANCH  27  28
ENDBRANCH  20  27
ENDBRANCH   5  20
TORSDOF 7
ENDMDL
MODEL 7
REMARK VINA RESULT:      -8.7      4.795      9.116
REMARK  Name = 
REMARK  8 active torsions:
REMARK  status: ('A' for Active; 'I' for Inactive)
REMARK    1  A    between atoms: C_1  and  C_2
REMARK    2  A    between atoms: C_5  and  C_6
REMARK    3  A    between atoms: N_10  and  C_11
REMARK    4  A    between atoms: C_11  and  C_12
REMARK    5  A    between atoms: C_11  and  P_20
REMARK    6  A    between atoms: C_12  and  C_13
REMARK    7  A    between atoms: P_20  and  O_22
REMARK    8  A    between atoms: P_20  and  O_23
REMARK                            x       y       z     vdW  Elec       q    Type
REMARK                         _______ _______ _______ _____ _____    ______ ____
ROOT
ATOM      1  C   UNL     1       4.298   5.142  17.144  0.00  0.00    +0.000 A 
ATOM      2  C   UNL     1       3.745   6.272  17.734  0.00  0.00    +0.000 A 
ATOM      3  C   UNL     1       2.912   5.983  18.885  0.00  0.00    +0.000 A 
ATOM      4  C   UNL     1       2.178   6.774  19.814  0.00  0.00    +0.000 A 
ATOM      5  N   UNL     1       2.224   8.171  19.864  0.00  0.00    +0.000 N 
ATOM      6  N   UNL     1       1.436   6.123  20.741  0.00  0.00    +0.000 NA
ATOM      7  C   UNL     1       1.511   4.782  20.827  0.00  0.00    +0.000 A 
ATOM      8  N   UNL     1       2.179   3.956  20.030  0.00  0.00    +0.000 NA
ATOM      9  C   UNL     1       2.850   4.609  19.071  0.00  0.00    +0.000 A 
ATOM     10  S   UNL     1       3.750   3.724  17.936  0.00  0.00    +0.000 S 
ATOM     11  H   UNL     1       2.725   8.540  19.063  0.00  0.00    +0.000 HD
ENDROOT
BRANCH   1  16
ATOM     12  C   UNL     1       7.887   4.611  12.586  0.00  0.00    +0.000 C 
ATOM     13  C   UNL     1       6.942   4.746  13.748  0.00  0.00    +0.000 A 
ATOM     14  C   UNL     1       7.362   5.413  14.906  0.00  0.00    +0.000 A 
ATOM     15  C   UNL     1       6.503   5.547  16.005  0.00  0.00    +0.000 A 
ATOM     16  C   UNL     1       5.201   5.018  15.983  0.00  0.00    +0.000 A 
ATOM     17  C   UNL     1       4.782   4.358  14.821  0.00  0.00    +0.000 A 
ATOM     18  C   UNL     1       5.641   4.224  13.721  0.00  0.00    +0.000 A 
ATOM     19 CL   UNL     1       5.040   3.389  12.330  0.00  0.00    +0.000 Cl
ENDBRANCH   1  16
BRANCH   5  20
ATOM     20  C   UNL     1       0.988   8.955  20.163  0.00  0.00    +0.000 C 
BRANCH  20  21
ATOM     21  P   UNL     1       0.626   9.501  21.856  0.00  0.00    +0.000 P 
ATOM     22  O   UNL     1      -0.583   8.879  22.493  0.00  0.00    +0.000 OA
BRANCH  21  23
ATOM     23  O   UNL     1       1.949   9.168  22.712  0.00  0.00    +0.000 OA
ATOM     24  H   UNL     1       2.730   9.513  22.225  0.00  0.00    +0.000 HD
ENDBRANCH  21  23
BRANCH  21  25
ATOM     25  O   UNL     1       0.605  11.100  21.990  0.00  0.00    +0.000 OA
ATOM     26  H   UNL     1      -0.227  11.450  21.613  0.00  0.00    +0.000 HD
ENDBRANCH  21  25
ENDBRANCH  20  21
BRANCH  20  27
ATOM     27  C   UNL     1       0.787  10.118  19.157  0.00  0.00    +0.000 C 
BRANCH  27  28
ATOM     28  C   UNL     1      -0.580  10.435  18.585  0.00  0.00    +0.000 A 
ATOM     29  C   UNL     1      -1.393  11.381  19.245  0.00  0.00    +0.000 A 
ATOM     30  C   UNL     1      -2.695  11.655  18.815  0.00  0.00    +0.000 A 
ATOM     31  C   UNL     1      -3.218  10.975  17.722  0.00  0.00    +0.000 A 
ATOM     32  C   UNL     1      -2.433  10.027  17.077  0.00  0.00    +0.000 A 
ATOM     33  F   UNL     1      -2.949   9.348  16.043  0.00  0.00    +0.000 F 
ATOM     34  C   UNL     1      -1.129   9.751  17.497  0.00  0.00    +0.000 A 
ENDBRANCH  27  28
ENDBRANCH  20  27
ENDBRANCH   5  20
TORSDOF 7
ENDMDL
MODEL 8
REMARK VINA RESULT:      -8.7      1.145      1.665
REMARK  Name = 
REMARK  8 active torsions:
REMARK  status: ('A' for Active; 'I' for Inactive)
REMARK    1  A    between atoms: C_1  and  C_2
REMARK    2  A    between atoms: C_5  and  C_6
REMARK    3  A    between atoms: N_10  and  C_11
REMARK    4  A    between atoms: C_11  and  C_12
REMARK    5  A    between atoms: C_11  and  P_20
REMARK    6  A    between atoms: C_12  and  C_13
REMARK    7  A    between atoms: P_20  and  O_22
REMARK    8  A    between atoms: P_20  and  O_23
REMARK                            x       y       z     vdW  Elec       q    Type
REMARK                         _______ _______ _______ _____ _____    ______ ____
ROOT
ATOM      1  C   UNL     1       1.462   8.031  20.053  0.00  0.00    +0.000 A 
ATOM      2  C   UNL     1       2.402   7.713  19.080  0.00  0.00    +0.000 A 
ATOM      3  C   UNL     1       2.836   6.330  19.117  0.00  0.00    +0.000 A 
ATOM      4  C   UNL     1       3.728   5.539  18.336  0.00  0.00    +0.000 A 
ATOM      5  N   UNL     1       4.346   5.981  17.162  0.00  0.00    +0.000 N 
ATOM      6  N   UNL     1       3.940   4.262  18.732  0.00  0.00    +0.000 NA
ATOM      7  C   UNL     1       3.225   3.758  19.754  0.00  0.00    +0.000 A 
ATOM      8  N   UNL     1       2.357   4.398  20.529  0.00  0.00    +0.000 NA
ATOM      9  C   UNL     1       2.212   5.682  20.173  0.00  0.00    +0.000 A 
ATOM     10  S   UNL     1       1.159   6.677  21.058  0.00  0.00    +0.000 S 
ATOM     11  H   UNL     1       4.192   6.975  17.030  0.00  0.00    +0.000 HD
ENDROOT
BRANCH   1  16
ATOM     12  C   UNL     1      -1.217  13.086  21.153  0.00  0.00    +0.000 C 
ATOM     13  C   UNL     1      -0.538  11.779  20.849  0.00  0.00    +0.000 A 
ATOM     14  C   UNL     1      -0.011  11.014  21.898  0.00  0.00    +0.000 A 
ATOM     15  C   UNL     1       0.632   9.796  21.641  0.00  0.00    +0.000 A 
ATOM     16  C   UNL     1       0.772   9.306  20.331  0.00  0.00    +0.000 A 
ATOM     17  C   UNL     1       0.238  10.070  19.286  0.00  0.00    +0.000 A 
ATOM     18  C   UNL     1      -0.407  11.289  19.542  0.00  0.00    +0.000 A 
ATOM     19 CL   UNL     1      -1.031  12.167  18.189  0.00  0.00    +0.000 Cl
ENDBRANCH   1  16
BRANCH   5  20
ATOM     20  C   UNL     1       5.754   5.586  16.857  0.00  0.00    +0.000 C 
BRANCH  20  21
ATOM     21  P   UNL     1       6.992   5.487  18.180  0.00  0.00    +0.000 P 
ATOM     22  O   UNL     1       7.972   4.354  18.068  0.00  0.00    +0.000 OA
BRANCH  21  23
ATOM     23  O   UNL     1       7.762   6.901  18.162  0.00  0.00    +0.000 OA
ATOM     24  H   UNL     1       7.915   7.160  17.226  0.00  0.00    +0.000 HD
ENDBRANCH  21  23
BRANCH  21  25
ATOM     25  O   UNL     1       6.331   5.549  19.641  0.00  0.00    +0.000 OA
ATOM     26  H   UNL     1       6.279   6.479  19.938  0.00  0.00    +0.000 HD
ENDBRANCH  21  25
ENDBRANCH  20  21
BRANCH  20  27
ATOM     27  C   UNL     1       5.815   4.327  15.953  0.00  0.00    +0.000 C 
BRANCH  27  28
ATOM     28  C   UNL     1       6.311   4.410  14.524  0.00  0.00    +0.000 A 
ATOM     29  C   UNL     1       5.784   3.517  13.566  0.00  0.00    +0.000 A 
ATOM     30  C   UNL     1       6.261   3.488  12.252  0.00  0.00    +0.000 A 
ATOM     31  C   UNL     1       7.287   4.343  11.871  0.00  0.00    +0.000 A 
ATOM     32  C   UNL     1       7.826   5.212  12.811  0.00  0.00    +0.000 A 
ATOM     33  F   UNL     1       8.838   6.014  12.451  0.00  0.00    +0.000 F 
ATOM     34  C   UNL     1       7.353   5.252  14.125  0.00  0.00    +0.000 A 
ENDBRANCH  27  28
ENDBRANCH  20  27
ENDBRANCH   5  20
TORSDOF 7
ENDMDL
MODEL 9
REMARK VINA RESULT:      -8.6      1.642      2.090
REMARK  Name = 
REMARK  8 active torsions:
REMARK  status: ('A' for Active; 'I' for Inactive)
REMARK    1  A    between atoms: C_1  and  C_2
REMARK    2  A    between atoms: C_5  and  C_6
REMARK    3  A    between atoms: N_10  and  C_11
REMARK    4  A    between atoms: C_11  and  C_12
REMARK    5  A    between atoms: C_11  and  P_20
REMARK    6  A    between atoms: C_12  and  C_13
REMARK    7  A    between atoms: P_20  and  O_22
REMARK    8  A    between atoms: P_20  and  O_23
REMARK                            x       y       z     vdW  Elec       q    Type
REMARK                         _______ _______ _______ _____ _____    ______ ____
ROOT
ATOM      1  C   UNL     1       1.589   9.271  19.130  0.00  0.00    +0.000 A 
ATOM      2  C   UNL     1       2.423   8.507  18.323  0.00  0.00    +0.000 A 
ATOM      3  C   UNL     1       2.606   7.148  18.793  0.00  0.00    +0.000 A 
ATOM      4  C   UNL     1       3.315   6.009  18.313  0.00  0.00    +0.000 A 
ATOM      5  N   UNL     1       3.961   5.952  17.073  0.00  0.00    +0.000 N 
ATOM      6  N   UNL     1       3.311   4.899  19.087  0.00  0.00    +0.000 NA
ATOM      7  C   UNL     1       2.555   4.869  20.199  0.00  0.00    +0.000 A 
ATOM      8  N   UNL     1       1.841   5.860  20.720  0.00  0.00    +0.000 NA
ATOM      9  C   UNL     1       1.914   6.978  19.983  0.00  0.00    +0.000 A 
ATOM     10  S   UNL     1       1.085   8.368  20.496  0.00  0.00    +0.000 S 
ATOM     11  H   UNL     1       3.981   6.868  16.638  0.00  0.00    +0.000 HD
ENDROOT
BRANCH   1  16
ATOM     12  C   UNL     1      -0.157  14.806  18.618  0.00  0.00    +0.000 C 
ATOM     13  C   UNL     1       0.310  13.381  18.734  0.00  0.00    +0.000 A 
ATOM     14  C   UNL     1      -0.595  12.386  19.125  0.00  0.00    +0.000 A 
ATOM     15  C   UNL     1      -0.183  11.053  19.248  0.00  0.00    +0.000 A 
ATOM     16  C   UNL     1       1.145  10.672  18.987  0.00  0.00    +0.000 A 
ATOM     17  C   UNL     1       2.046  11.668  18.590  0.00  0.00    +0.000 A 
ATOM     18  C   UNL     1       1.634  13.003  18.466  0.00  0.00    +0.000 A 
ATOM     19 CL   UNL     1       2.816  14.166  17.975  0.00  0.00    +0.000 Cl
ENDBRANCH   1  16
BRANCH   5  20
ATOM     20  C   UNL     1       5.265   5.236  16.936  0.00  0.00    +0.000 C 
BRANCH  20  21
ATOM     21  P   UNL     1       6.232   4.787  18.405  0.00  0.00    +0.000 P 
ATOM     22  O   UNL     1       6.215   5.789  19.523  0.00  0.00    +0.000 OA
BRANCH  21  23
ATOM     23  O   UNL     1       5.637   3.376  18.903  0.00  0.00    +0.000 OA
ATOM     24  H   UNL     1       5.548   2.784  18.123  0.00  0.00    +0.000 HD
ENDBRANCH  21  23
BRANCH  21  25
ATOM     25  O   UNL     1       7.730   4.342  18.037  0.00  0.00    +0.000 OA
ATOM     26  H   UNL     1       8.354   5.050  18.294  0.00  0.00    +0.000 HD
ENDBRANCH  21  25
ENDBRANCH  20  21
BRANCH  20  27
ATOM     27  C   UNL     1       5.163   4.036  15.959  0.00  0.00    +0.000 C 
BRANCH  27  28
ATOM     28  C   UNL     1       5.888   4.043  14.628  0.00  0.00    +0.000 A 
ATOM     29  C   UNL     1       6.958   4.942  14.440  0.00  0.00    +0.000 A 
ATOM     30  C   UNL     1       7.612   5.055  13.209  0.00  0.00    +0.000 A 
ATOM     31  C   UNL     1       7.198   4.278  12.134  0.00  0.00    +0.000 A 
ATOM     32  C   UNL     1       6.132   3.404  12.303  0.00  0.00    +0.000 A 
ATOM     33  F   UNL     1       5.712   2.678  11.258  0.00  0.00    +0.000 F 
ATOM     34  C   UNL     1       5.476   3.281  13.531  0.00  0.00    +0.000 A 
ENDBRANCH  27  28
ENDBRANCH  20  27
ENDBRANCH   5  20
TORSDOF 7
ENDMDL
