MODEL 1
REMARK VINA RESULT:      -8.4      0.000      0.000
REMARK  Name = 
REMARK  7 active torsions:
REMARK  status: ('A' for Active; 'I' for Inactive)
REMARK    1  A    between atoms: N_3  and  C_4
REMARK    2  A    between atoms: C_4  and  C_5
REMARK    3  A    between atoms: C_5  and  C_6
REMARK    4  A    between atoms: N_13  and  C_14
REMARK    5  A    between atoms: C_14  and  C_15
REMARK    6  A    between atoms: C_15  and  C_16
REMARK    7  A    between atoms: C_22  and  O_23
REMARK                            x       y       z     vdW  Elec       q    Type
REMARK                         _______ _______ _______ _____ _____    ______ ____
ROOT
ATOM      1  O   UNL     1       6.906   6.716  18.483  0.00  0.00    +0.000 OA
ATOM      2  C   UNL     1       7.337   6.994  17.372  0.00  0.00    +0.000 C 
ATOM      3  N   UNL     1       7.311   6.135  16.302  0.00  0.00    +0.000 N 
ATOM      4  N   UNL     1       7.933   8.188  17.060  0.00  0.00    +0.000 N 
ATOM      5  H   UNL     1       7.666   6.452  15.415  0.00  0.00    +0.000 HD
ATOM      6  H   UNL     1       7.964   8.421  16.079  0.00  0.00    +0.000 HD
ENDROOT
BRANCH   3   7
ATOM      7  C   UNL     1       6.781   4.788  16.437  0.00  0.00    +0.000 C 
BRANCH   7   8
ATOM      8  C   UNL     1       5.359   4.655  15.886  0.00  0.00    +0.000 C 
BRANCH   8   9
ATOM      9  C   UNL     1       4.312   4.520  16.968  0.00  0.00    +0.000 A 
ATOM     10  C   UNL     1       3.680   5.658  17.491  0.00  0.00    +0.000 A 
ATOM     11  C   UNL     1       2.695   5.533  18.477  0.00  0.00    +0.000 A 
ATOM     12  C   UNL     1       2.343   4.272  18.949  0.00  0.00    +0.000 A 
ATOM     13 CL   UNL     1       1.122   4.118  20.153  0.00  0.00    +0.000 Cl
ATOM     14  C   UNL     1       2.970   3.134  18.449  0.00  0.00    +0.000 A 
ATOM     15  C   UNL     1       3.953   3.257  17.464  0.00  0.00    +0.000 A 
ENDBRANCH   8   9
ENDBRANCH   7   8
ENDBRANCH   3   7
BRANCH   4  16
ATOM     16  C   UNL     1       7.950   9.291  18.011  0.00  0.00    +0.000 C 
BRANCH  16  17
ATOM     17  C   UNL     1       9.183   9.304  18.927  0.00  0.00    +0.000 C 
BRANCH  17  18
ATOM     18  C   UNL     1       9.483  10.657  19.489  0.00  0.00    +0.000 A 
ATOM     19  C   UNL     1       9.130  11.155  20.734  0.00  0.00    +0.000 A 
ATOM     20  N   UNL     1       9.574  12.452  20.819  0.00  0.00    +0.000 N 
ATOM     21  C   UNL     1      10.219  12.815  19.661  0.00  0.00    +0.000 A 
ATOM     22  C   UNL     1      10.814  14.025  19.289  0.00  0.00    +0.000 A 
ATOM     23  C   UNL     1      11.401  14.104  18.018  0.00  0.00    +0.000 A 
ATOM     24  C   UNL     1      11.394  13.002  17.171  0.00  0.00    +0.000 A 
ATOM     25  C   UNL     1      10.814  11.797  17.557  0.00  0.00    +0.000 A 
ATOM     26  C   UNL     1      10.200  11.702  18.820  0.00  0.00    +0.000 A 
ATOM     27  H   UNL     1       9.445  13.055  21.613  0.00  0.00    +0.000 HD
BRANCH  24  28
ATOM     28  O   UNL     1      11.941  13.053  15.923  0.00  0.00    +0.000 OA
ATOM     29  H   UNL     1      12.432  13.885  15.832  0.00  0.00    +0.000 HD
ENDBRANCH  24  28
ENDBRANCH  17  18
ENDBRANCH  16  17
ENDBRANCH   4  16
TORSDOF 7
ENDMDL
MODEL 2
REMARK VINA RESULT:      -8.3      0.349      1.025
REMARK  Name = 
REMARK  7 active torsions:
REMARK  status: ('A' for Active; 'I' for Inactive)
REMARK    1  A    between atoms: N_3  and  C_4
REMARK    2  A    between atoms: C_4  and  C_5
REMARK    3  A    between atoms: C_5  and  C_6
REMARK    4  A    between atoms: N_13  and  C_14
REMARK    5  A    between atoms: C_14  and  C_15
REMARK    6  A    between atoms: C_15  and  C_16
REMARK    7  A    between atoms: C_22  and  O_23
REMARK                            x       y       z     vdW  Elec       q    Type
REMARK                         _______ _______ _______ _____ _____    ______ ____
ROOT
ATOM      1  O   UNL     1       7.286   6.580  18.594  0.00  0.00    +0.000 OA
ATOM      2  C   UNL     1       7.458   6.921  17.431  0.00  0.00    +0.000 C 
ATOM      3  N   UNL     1       7.329   6.076  16.357  0.00  0.00    +0.000 N 
ATOM      4  N   UNL     1       7.834   8.182  17.051  0.00  0.00    +0.000 N 
ATOM      5  H   UNL     1       7.465   6.444  15.430  0.00  0.00    +0.000 HD
ATOM      6  H   UNL     1       7.648   8.427  16.091  0.00  0.00    +0.000 HD
ENDROOT
BRANCH   3   7
ATOM      7  C   UNL     1       7.001   4.672  16.545  0.00  0.00    +0.000 C 
BRANCH   7   8
ATOM      8  C   UNL     1       5.644   4.298  15.942  0.00  0.00    +0.000 C 
BRANCH   8   9
ATOM      9  C   UNL     1       4.521   4.306  16.955  0.00  0.00    +0.000 A 
ATOM     10  C   UNL     1       4.025   3.102  17.475  0.00  0.00    +0.000 A 
ATOM     11  C   UNL     1       3.002   3.108  18.429  0.00  0.00    +0.000 A 
ATOM     12  C   UNL     1       2.466   4.318  18.863  0.00  0.00    +0.000 A 
ATOM     13 CL   UNL     1       1.216   4.326  20.046  0.00  0.00    +0.000 Cl
ATOM     14  C   UNL     1       2.940   5.521  18.347  0.00  0.00    +0.000 A 
ATOM     15  C   UNL     1       3.962   5.516  17.395  0.00  0.00    +0.000 A 
ENDBRANCH   8   9
ENDBRANCH   7   8
ENDBRANCH   3   7
BRANCH   4  16
ATOM     16  C   UNL     1       7.902   9.270  18.018  0.00  0.00    +0.000 C 
BRANCH  16  17
ATOM     17  C   UNL     1       9.215   9.313  18.816  0.00  0.00    +0.000 C 
BRANCH  17  18
ATOM     18  C   UNL     1       9.458  10.632  19.477  0.00  0.00    +0.000 A 
ATOM     19  C   UNL     1       9.212  10.975  20.798  0.00  0.00    +0.000 A 
ATOM     20  N   UNL     1       9.546  12.297  20.965  0.00  0.00    +0.000 N 
ATOM     21  C   UNL     1      10.013  12.828  19.787  0.00  0.00    +0.000 A 
ATOM     22  C   UNL     1      10.450  14.121  19.478  0.00  0.00    +0.000 A 
ATOM     23  C   UNL     1      10.871  14.374  18.164  0.00  0.00    +0.000 A 
ATOM     24  C   UNL     1      10.861  13.358  17.215  0.00  0.00    +0.000 A 
ATOM     25  C   UNL     1      10.441  12.071  17.537  0.00  0.00    +0.000 A 
ATOM     26  C   UNL     1       9.993  11.800  18.843  0.00  0.00    +0.000 A 
ATOM     27  H   UNL     1       9.459  12.810  21.827  0.00  0.00    +0.000 HD
BRANCH  24  28
ATOM     28  O   UNL     1      11.248  13.579  15.926  0.00  0.00    +0.000 OA
ATOM     29  H   UNL     1      10.864  12.888  15.363  0.00  0.00    +0.000 HD
ENDBRANCH  24  28
ENDBRANCH  17  18
ENDBRANCH  16  17
ENDBRANCH   4  16
TORSDOF 7
ENDMDL
MODEL 3
REMARK VINA RESULT:      -8.1      3.909     10.623
REMARK  Name = 
REMARK  7 active torsions:
REMARK  status: ('A' for Active; 'I' for Inactive)
REMARK    1  A    between atoms: N_3  and  C_4
REMARK    2  A    between atoms: C_4  and  C_5
REMARK    3  A    between atoms: C_5  and  C_6
REMARK    4  A    between atoms: N_13  and  C_14
REMARK    5  A    between atoms: C_14  and  C_15
REMARK    6  A    between atoms: C_15  and  C_16
REMARK    7  A    between atoms: C_22  and  O_23
REMARK                            x       y       z     vdW  Elec       q    Type
REMARK                         _______ _______ _______ _____ _____    ______ ____
ROOT
ATOM      1  O   UNL     1       7.345   7.502  16.957  0.00  0.00    +0.000 OA
ATOM      2  C   UNL     1       7.793   7.236  18.065  0.00  0.00    +0.000 C 
ATOM      3  N   UNL     1       8.511   8.119  18.833  0.00  0.00    +0.000 N 
ATOM      4  N   UNL     1       7.663   6.014  18.669  0.00  0.00    +0.000 N 
ATOM      5  H   UNL     1       8.823   7.827  19.745  0.00  0.00    +0.000 HD
ATOM      6  H   UNL     1       7.789   6.002  19.670  0.00  0.00    +0.000 HD
ENDROOT
BRANCH   3   7
ATOM      7  C   UNL     1       8.821   9.453  18.347  0.00  0.00    +0.000 C 
BRANCH   7   8
ATOM      8  C   UNL     1       9.356  10.372  19.449  0.00  0.00    +0.000 C 
BRANCH   8   9
ATOM      9  C   UNL     1       9.913  11.674  18.919  0.00  0.00    +0.000 A 
ATOM     10  C   UNL     1       9.756  12.862  19.646  0.00  0.00    +0.000 A 
ATOM     11  C   UNL     1      10.291  14.063  19.168  0.00  0.00    +0.000 A 
ATOM     12  C   UNL     1      10.979  14.083  17.958  0.00  0.00    +0.000 A 
ATOM     13 CL   UNL     1      11.647  15.558  17.376  0.00  0.00    +0.000 Cl
ATOM     14  C   UNL     1      11.133  12.913  17.218  0.00  0.00    +0.000 A 
ATOM     15  C   UNL     1      10.599  11.713  17.695  0.00  0.00    +0.000 A 
ENDBRANCH   8   9
ENDBRANCH   7   8
ENDBRANCH   3   7
BRANCH   4  16
ATOM     16  C   UNL     1       6.828   4.972  18.087  0.00  0.00    +0.000 C 
BRANCH  16  17
ATOM     17  C   UNL     1       5.834   4.344  19.077  0.00  0.00    +0.000 C 
BRANCH  17  18
ATOM     18  C   UNL     1       4.533   3.968  18.443  0.00  0.00    +0.000 A 
ATOM     19  C   UNL     1       4.199   4.021  17.098  0.00  0.00    +0.000 A 
ATOM     20  N   UNL     1       2.891   3.621  16.966  0.00  0.00    +0.000 N 
ATOM     21  C   UNL     1       2.362   3.297  18.192  0.00  0.00    +0.000 A 
ATOM     22  C   UNL     1       1.081   2.860  18.546  0.00  0.00    +0.000 A 
ATOM     23  C   UNL     1       0.825   2.610  19.902  0.00  0.00    +0.000 A 
ATOM     24  C   UNL     1       1.826   2.784  20.850  0.00  0.00    +0.000 A 
ATOM     25  C   UNL     1       3.103   3.202  20.486  0.00  0.00    +0.000 A 
ATOM     26  C   UNL     1       3.375   3.480  19.133  0.00  0.00    +0.000 A 
ATOM     27  H   UNL     1       2.388   3.573  16.096  0.00  0.00    +0.000 HD
BRANCH  24  28
ATOM     28  O   UNL     1       1.603   2.565  22.177  0.00  0.00    +0.000 OA
ATOM     29  H   UNL     1       0.672   2.756  22.371  0.00  0.00    +0.000 HD
ENDBRANCH  24  28
ENDBRANCH  17  18
ENDBRANCH  16  17
ENDBRANCH   4  16
TORSDOF 7
ENDMDL
MODEL 4
REMARK VINA RESULT:      -8.1      3.731      9.721
REMARK  Name = 
REMARK  7 active torsions:
REMARK  status: ('A' for Active; 'I' for Inactive)
REMARK    1  A    between atoms: N_3  and  C_4
REMARK    2  A    between atoms: C_4  and  C_5
REMARK    3  A    between atoms: C_5  and  C_6
REMARK    4  A    between atoms: N_13  and  C_14
REMARK    5  A    between atoms: C_14  and  C_15
REMARK    6  A    between atoms: C_15  and  C_16
REMARK    7  A    between atoms: C_22  and  O_23
REMARK                            x       y       z     vdW  Elec       q    Type
REMARK                         _______ _______ _______ _____ _____    ______ ____
ROOT
ATOM      1  O   UNL     1       6.902   5.937  18.902  0.00  0.00    +0.000 OA
ATOM      2  C   UNL     1       7.003   6.221  17.716  0.00  0.00    +0.000 C 
ATOM      3  N   UNL     1       7.619   7.355  17.249  0.00  0.00    +0.000 N 
ATOM      4  N   UNL     1       6.487   5.459  16.701  0.00  0.00    +0.000 N 
ATOM      5  H   UNL     1       7.679   7.500  16.254  0.00  0.00    +0.000 HD
ATOM      6  H   UNL     1       6.885   5.615  15.788  0.00  0.00    +0.000 HD
ENDROOT
BRANCH   3   7
ATOM      7  C   UNL     1       8.177   8.336  18.166  0.00  0.00    +0.000 C 
BRANCH   7   8
ATOM      8  C   UNL     1       8.539   9.652  17.472  0.00  0.00    +0.000 C 
BRANCH   8   9
ATOM      9  C   UNL     1       8.978  10.730  18.437  0.00  0.00    +0.000 A 
ATOM     10  C   UNL     1       8.926  12.081  18.064  0.00  0.00    +0.000 A 
ATOM     11  C   UNL     1       9.311  13.081  18.963  0.00  0.00    +0.000 A 
ATOM     12  C   UNL     1       9.754  12.735  20.237  0.00  0.00    +0.000 A 
ATOM     13 CL   UNL     1      10.215  13.967  21.347  0.00  0.00    +0.000 Cl
ATOM     14  C   UNL     1       9.822  11.398  20.618  0.00  0.00    +0.000 A 
ATOM     15  C   UNL     1       9.439  10.398  19.721  0.00  0.00    +0.000 A 
ENDBRANCH   8   9
ENDBRANCH   7   8
ENDBRANCH   3   7
BRANCH   4  16
ATOM     16  C   UNL     1       5.906   4.149  16.964  0.00  0.00    +0.000 C 
BRANCH  16  17
ATOM     17  C   UNL     1       4.471   3.987  16.438  0.00  0.00    +0.000 C 
BRANCH  17  18
ATOM     18  C   UNL     1       3.544   3.379  17.441  0.00  0.00    +0.000 A 
ATOM     19  C   UNL     1       3.112   2.062  17.506  0.00  0.00    +0.000 A 
ATOM     20  N   UNL     1       2.239   1.949  18.561  0.00  0.00    +0.000 N 
ATOM     21  C   UNL     1       2.095   3.160  19.196  0.00  0.00    +0.000 A 
ATOM     22  C   UNL     1       1.310   3.525  20.295  0.00  0.00    +0.000 A 
ATOM     23  C   UNL     1       1.363   4.859  20.723  0.00  0.00    +0.000 A 
ATOM     24  C   UNL     1       2.185   5.774  20.074  0.00  0.00    +0.000 A 
ATOM     25  C   UNL     1       2.975   5.396  18.993  0.00  0.00    +0.000 A 
ATOM     26  C   UNL     1       2.920   4.067  18.532  0.00  0.00    +0.000 A 
ATOM     27  H   UNL     1       1.768   1.103  18.832  0.00  0.00    +0.000 HD
BRANCH  24  28
ATOM     28  O   UNL     1       2.245   7.081  20.457  0.00  0.00    +0.000 OA
ATOM     29  H   UNL     1       1.347   7.388  20.659  0.00  0.00    +0.000 HD
ENDBRANCH  24  28
ENDBRANCH  17  18
ENDBRANCH  16  17
ENDBRANCH   4  16
TORSDOF 7
ENDMDL
MODEL 5
REMARK VINA RESULT:      -8.1      1.213      1.472
REMARK  Name = 
REMARK  7 active torsions:
REMARK  status: ('A' for Active; 'I' for Inactive)
REMARK    1  A    between atoms: N_3  and  C_4
REMARK    2  A    between atoms: C_4  and  C_5
REMARK    3  A    between atoms: C_5  and  C_6
REMARK    4  A    between atoms: N_13  and  C_14
REMARK    5  A    between atoms: C_14  and  C_15
REMARK    6  A    between atoms: C_15  and  C_16
REMARK    7  A    between atoms: C_22  and  O_23
REMARK                            x       y       z     vdW  Elec       q    Type
REMARK                         _______ _______ _______ _____ _____    ______ ____
ROOT
ATOM      1  O   UNL     1       8.310   7.049  18.709  0.00  0.00    +0.000 OA
ATOM      2  C   UNL     1       7.806   7.784  17.870  0.00  0.00    +0.000 C 
ATOM      3  N   UNL     1       6.891   7.366  16.936  0.00  0.00    +0.000 N 
ATOM      4  N   UNL     1       8.115   9.111  17.731  0.00  0.00    +0.000 N 
ATOM      5  H   UNL     1       6.507   8.042  16.296  0.00  0.00    +0.000 HD
ATOM      6  H   UNL     1       7.439   9.671  17.235  0.00  0.00    +0.000 HD
ENDROOT
BRANCH   3   7
ATOM      7  C   UNL     1       6.475   5.975  16.866  0.00  0.00    +0.000 C 
BRANCH   7   8
ATOM      8  C   UNL     1       5.095   5.804  16.223  0.00  0.00    +0.000 C 
BRANCH   8   9
ATOM      9  C   UNL     1       4.053   5.281  17.186  0.00  0.00    +0.000 A 
ATOM     10  C   UNL     1       3.393   6.154  18.062  0.00  0.00    +0.000 A 
ATOM     11  C   UNL     1       2.413   5.675  18.938  0.00  0.00    +0.000 A 
ATOM     12  C   UNL     1       2.092   4.320  18.944  0.00  0.00    +0.000 A 
ATOM     13 CL   UNL     1       0.876   3.733  20.012  0.00  0.00    +0.000 Cl
ATOM     14  C   UNL     1       2.746   3.438  18.088  0.00  0.00    +0.000 A 
ATOM     15  C   UNL     1       3.726   3.915  17.214  0.00  0.00    +0.000 A 
ENDBRANCH   8   9
ENDBRANCH   7   8
ENDBRANCH   3   7
BRANCH   4  16
ATOM     16  C   UNL     1       8.967   9.790  18.698  0.00  0.00    +0.000 C 
BRANCH  16  17
ATOM     17  C   UNL     1       9.941  10.799  18.070  0.00  0.00    +0.000 C 
BRANCH  17  18
ATOM     18  C   UNL     1      10.273  11.939  18.979  0.00  0.00    +0.000 A 
ATOM     19  C   UNL     1      10.368  11.920  20.362  0.00  0.00    +0.000 A 
ATOM     20  N   UNL     1      10.655  13.193  20.789  0.00  0.00    +0.000 N 
ATOM     21  C   UNL     1      10.759  14.047  19.717  0.00  0.00    +0.000 A 
ATOM     22  C   UNL     1      11.020  15.421  19.668  0.00  0.00    +0.000 A 
ATOM     23  C   UNL     1      11.060  16.035  18.407  0.00  0.00    +0.000 A 
ATOM     24  C   UNL     1      10.859  15.286  17.254  0.00  0.00    +0.000 A 
ATOM     25  C   UNL     1      10.617  13.917  17.313  0.00  0.00    +0.000 A 
ATOM     26  C   UNL     1      10.550  13.284  18.569  0.00  0.00    +0.000 A 
ATOM     27  H   UNL     1      10.771  13.467  21.750  0.00  0.00    +0.000 HD
BRANCH  24  28
ATOM     28  O   UNL     1      10.875  15.858  16.016  0.00  0.00    +0.000 OA
ATOM     29  H   UNL     1      11.778  15.817  15.666  0.00  0.00    +0.000 HD
ENDBRANCH  24  28
ENDBRANCH  17  18
ENDBRANCH  16  17
ENDBRANCH   4  16
TORSDOF 7
ENDMDL
MODEL 6
REMARK VINA RESULT:      -8.0      3.699      8.974
REMARK  Name = 
REMARK  7 active torsions:
REMARK  status: ('A' for Active; 'I' for Inactive)
REMARK    1  A    between atoms: N_3  and  C_4
REMARK    2  A    between atoms: C_4  and  C_5
REMARK    3  A    between atoms: C_5  and  C_6
REMARK    4  A    between atoms: N_13  and  C_14
REMARK    5  A    between atoms: C_14  and  C_15
REMARK    6  A    between atoms: C_15  and  C_16
REMARK    7  A    between atoms: C_22  and  O_23
REMARK                            x       y       z     vdW  Elec       q    Type
REMARK                         _______ _______ _______ _____ _____    ______ ____
ROOT
ATOM      1  O   UNL     1       7.120   6.629  18.610  0.00  0.00    +0.000 OA
ATOM      2  C   UNL     1       7.378   6.890  17.442  0.00  0.00    +0.000 C 
ATOM      3  N   UNL     1       7.745   8.135  16.997  0.00  0.00    +0.000 N 
ATOM      4  N   UNL     1       7.301   5.980  16.420  0.00  0.00    +0.000 N 
ATOM      5  H   UNL     1       7.963   8.258  16.022  0.00  0.00    +0.000 HD
ATOM      6  H   UNL     1       7.817   6.210  15.586  0.00  0.00    +0.000 HD
ENDROOT
BRANCH   3   7
ATOM      7  C   UNL     1       7.822   9.263  17.911  0.00  0.00    +0.000 C 
BRANCH   7   8
ATOM      8  C   UNL     1       9.053   9.203  18.820  0.00  0.00    +0.000 C 
BRANCH   8   9
ATOM      9  C   UNL     1       9.607  10.568  19.160  0.00  0.00    +0.000 A 
ATOM     10  C   UNL     1       9.631  11.014  20.489  0.00  0.00    +0.000 A 
ATOM     11  C   UNL     1      10.164  12.267  20.809  0.00  0.00    +0.000 A 
ATOM     12  C   UNL     1      10.670  13.083  19.800  0.00  0.00    +0.000 A 
ATOM     13 CL   UNL     1      11.338  14.619  20.195  0.00  0.00    +0.000 Cl
ATOM     14  C   UNL     1      10.643  12.659  18.474  0.00  0.00    +0.000 A 
ATOM     15  C   UNL     1      10.111  11.408  18.154  0.00  0.00    +0.000 A 
ENDBRANCH   8   9
ENDBRANCH   7   8
ENDBRANCH   3   7
BRANCH   4  16
ATOM     16  C   UNL     1       7.054   4.569  16.687  0.00  0.00    +0.000 C 
BRANCH  16  17
ATOM     17  C   UNL     1       5.587   4.148  16.505  0.00  0.00    +0.000 C 
BRANCH  17  18
ATOM     18  C   UNL     1       4.776   4.293  17.753  0.00  0.00    +0.000 A 
ATOM     19  C   UNL     1       4.642   3.380  18.788  0.00  0.00    +0.000 A 
ATOM     20  N   UNL     1       3.772   3.904  19.712  0.00  0.00    +0.000 N 
ATOM     21  C   UNL     1       3.338   5.145  19.312  0.00  0.00    +0.000 A 
ATOM     22  C   UNL     1       2.446   6.038  19.917  0.00  0.00    +0.000 A 
ATOM     23  C   UNL     1       2.186   7.249  19.260  0.00  0.00    +0.000 A 
ATOM     24  C   UNL     1       2.812   7.544  18.055  0.00  0.00    +0.000 A 
ATOM     25  C   UNL     1       3.711   6.657  17.470  0.00  0.00    +0.000 A 
ATOM     26  C   UNL     1       3.970   5.426  18.101  0.00  0.00    +0.000 A 
ATOM     27  H   UNL     1       3.488   3.447  20.562  0.00  0.00    +0.000 HD
BRANCH  24  28
ATOM     28  O   UNL     1       2.566   8.707  17.385  0.00  0.00    +0.000 OA
ATOM     29  H   UNL     1       1.612   8.880  17.402  0.00  0.00    +0.000 HD
ENDBRANCH  24  28
ENDBRANCH  17  18
ENDBRANCH  16  17
ENDBRANCH   4  16
TORSDOF 7
ENDMDL
MODEL 7
REMARK VINA RESULT:      -8.0      3.726      9.540
REMARK  Name = 
REMARK  7 active torsions:
REMARK  status: ('A' for Active; 'I' for Inactive)
REMARK    1  A    between atoms: N_3  and  C_4
REMARK    2  A    between atoms: C_4  and  C_5
REMARK    3  A    between atoms: C_5  and  C_6
REMARK    4  A    between atoms: N_13  and  C_14
REMARK    5  A    between atoms: C_14  and  C_15
REMARK    6  A    between atoms: C_15  and  C_16
REMARK    7  A    between atoms: C_22  and  O_23
REMARK                            x       y       z     vdW  Elec       q    Type
REMARK                         _______ _______ _______ _____ _____    ______ ____
ROOT
ATOM      1  O   UNL     1       6.313   6.526  18.408  0.00  0.00    +0.000 OA
ATOM      2  C   UNL     1       6.864   6.608  17.318  0.00  0.00    +0.000 C 
ATOM      3  N   UNL     1       7.544   7.718  16.884  0.00  0.00    +0.000 N 
ATOM      4  N   UNL     1       6.848   5.613  16.377  0.00  0.00    +0.000 N 
ATOM      5  H   UNL     1       7.989   7.693  15.981  0.00  0.00    +0.000 HD
ATOM      6  H   UNL     1       7.569   5.660  15.674  0.00  0.00    +0.000 HD
ENDROOT
BRANCH   3   7
ATOM      7  C   UNL     1       7.624   8.915  17.705  0.00  0.00    +0.000 C 
BRANCH   7   8
ATOM      8  C   UNL     1       8.768   8.858  18.720  0.00  0.00    +0.000 C 
BRANCH   8   9
ATOM      9  C   UNL     1       9.354  10.217  19.032  0.00  0.00    +0.000 A 
ATOM     10  C   UNL     1       9.532  10.625  20.362  0.00  0.00    +0.000 A 
ATOM     11  C   UNL     1      10.094  11.873  20.653  0.00  0.00    +0.000 A 
ATOM     12  C   UNL     1      10.474  12.721  19.615  0.00  0.00    +0.000 A 
ATOM     13 CL   UNL     1      11.177  14.251  19.973  0.00  0.00    +0.000 Cl
ATOM     14  C   UNL     1      10.292  12.335  18.290  0.00  0.00    +0.000 A 
ATOM     15  C   UNL     1       9.731  11.089  17.998  0.00  0.00    +0.000 A 
ENDBRANCH   8   9
ENDBRANCH   7   8
ENDBRANCH   3   7
BRANCH   4  16
ATOM     16  C   UNL     1       6.293   4.300  16.680  0.00  0.00    +0.000 C 
BRANCH  16  17
ATOM     17  C   UNL     1       4.791   4.175  16.383  0.00  0.00    +0.000 C 
BRANCH  17  18
ATOM     18  C   UNL     1       4.006   3.643  17.539  0.00  0.00    +0.000 A 
ATOM     19  C   UNL     1       3.810   2.316  17.891  0.00  0.00    +0.000 A 
ATOM     20  N   UNL     1       2.994   2.282  18.995  0.00  0.00    +0.000 N 
ATOM     21  C   UNL     1       2.657   3.557  19.382  0.00  0.00    +0.000 A 
ATOM     22  C   UNL     1       1.845   4.008  20.429  0.00  0.00    +0.000 A 
ATOM     23  C   UNL     1       1.677   5.392  20.577  0.00  0.00    +0.000 A 
ATOM     24  C   UNL     1       2.313   6.275  19.712  0.00  0.00    +0.000 A 
ATOM     25  C   UNL     1       3.131   5.817  18.685  0.00  0.00    +0.000 A 
ATOM     26  C   UNL     1       3.297   4.431  18.504  0.00  0.00    +0.000 A 
ATOM     27  H   UNL     1       2.682   1.445  19.457  0.00  0.00    +0.000 HD
BRANCH  24  28
ATOM     28  O   UNL     1       2.154   7.625  19.822  0.00  0.00    +0.000 OA
ATOM     29  H   UNL     1       2.072   8.002  18.932  0.00  0.00    +0.000 HD
ENDBRANCH  24  28
ENDBRANCH  17  18
ENDBRANCH  16  17
ENDBRANCH   4  16
TORSDOF 7
ENDMDL
MODEL 8
REMARK VINA RESULT:      -7.9      1.106      1.518
REMARK  Name = 
REMARK  7 active torsions:
REMARK  status: ('A' for Active; 'I' for Inactive)
REMARK    1  A    between atoms: N_3  and  C_4
REMARK    2  A    between atoms: C_4  and  C_5
REMARK    3  A    between atoms: C_5  and  C_6
REMARK    4  A    between atoms: N_13  and  C_14
REMARK    5  A    between atoms: C_14  and  C_15
REMARK    6  A    between atoms: C_15  and  C_16
REMARK    7  A    between atoms: C_22  and  O_23
REMARK                            x       y       z     vdW  Elec       q    Type
REMARK                         _______ _______ _______ _____ _____    ______ ____
ROOT
ATOM      1  O   UNL     1       7.642   6.682  18.791  0.00  0.00    +0.000 OA
ATOM      2  C   UNL     1       7.495   7.256  17.720  0.00  0.00    +0.000 C 
ATOM      3  N   UNL     1       6.807   6.730  16.656  0.00  0.00    +0.000 N 
ATOM      4  N   UNL     1       8.027   8.485  17.432  0.00  0.00    +0.000 N 
ATOM      5  H   UNL     1       6.714   7.280  15.817  0.00  0.00    +0.000 HD
ATOM      6  H   UNL     1       7.598   8.982  16.667  0.00  0.00    +0.000 HD
ENDROOT
BRANCH   3   7
ATOM      7  C   UNL     1       6.219   5.402  16.727  0.00  0.00    +0.000 C 
BRANCH   7   8
ATOM      8  C   UNL     1       4.719   5.404  16.423  0.00  0.00    +0.000 C 
BRANCH   8   9
ATOM      9  C   UNL     1       3.899   4.682  17.468  0.00  0.00    +0.000 A 
ATOM     10  C   UNL     1       4.318   3.439  17.965  0.00  0.00    +0.000 A 
ATOM     11  C   UNL     1       3.572   2.780  18.948  0.00  0.00    +0.000 A 
ATOM     12  C   UNL     1       2.403   3.357  19.434  0.00  0.00    +0.000 A 
ATOM     13 CL   UNL     1       1.493   2.551  20.654  0.00  0.00    +0.000 Cl
ATOM     14  C   UNL     1       1.967   4.585  18.943  0.00  0.00    +0.000 A 
ATOM     15  C   UNL     1       2.710   5.244  17.961  0.00  0.00    +0.000 A 
ENDBRANCH   8   9
ENDBRANCH   7   8
ENDBRANCH   3   7
BRANCH   4  16
ATOM     16  C   UNL     1       8.685   9.279  18.462  0.00  0.00    +0.000 C 
BRANCH  16  17
ATOM     17  C   UNL     1       8.715  10.786  18.162  0.00  0.00    +0.000 C 
BRANCH  17  18
ATOM     18  C   UNL     1       9.745  11.523  18.957  0.00  0.00    +0.000 A 
ATOM     19  C   UNL     1      10.216  11.215  20.225  0.00  0.00    +0.000 A 
ATOM     20  N   UNL     1      11.126  12.177  20.589  0.00  0.00    +0.000 N 
ATOM     21  C   UNL     1      11.269  13.106  19.586  0.00  0.00    +0.000 A 
ATOM     22  C   UNL     1      12.061  14.257  19.515  0.00  0.00    +0.000 A 
ATOM     23  C   UNL     1      11.993  15.028  18.346  0.00  0.00    +0.000 A 
ATOM     24  C   UNL     1      11.171  14.641  17.295  0.00  0.00    +0.000 A 
ATOM     25  C   UNL     1      10.400  13.485  17.368  0.00  0.00    +0.000 A 
ATOM     26  C   UNL     1      10.435  12.708  18.541  0.00  0.00    +0.000 A 
ATOM     27  H   UNL     1      11.618  12.204  21.466  0.00  0.00    +0.000 HD
BRANCH  24  28
ATOM     28  O   UNL     1      11.071  15.379  16.153  0.00  0.00    +0.000 OA
ATOM     29  H   UNL     1      11.157  16.318  16.380  0.00  0.00    +0.000 HD
ENDBRANCH  24  28
ENDBRANCH  17  18
ENDBRANCH  16  17
ENDBRANCH   4  16
TORSDOF 7
ENDMDL
MODEL 9
REMARK VINA RESULT:      -7.9      3.831     10.186
REMARK  Name = 
REMARK  7 active torsions:
REMARK  status: ('A' for Active; 'I' for Inactive)
REMARK    1  A    between atoms: N_3  and  C_4
REMARK    2  A    between atoms: C_4  and  C_5
REMARK    3  A    between atoms: C_5  and  C_6
REMARK    4  A    between atoms: N_13  and  C_14
REMARK    5  A    between atoms: C_14  and  C_15
REMARK    6  A    between atoms: C_15  and  C_16
REMARK    7  A    between atoms: C_22  and  O_23
REMARK                            x       y       z     vdW  Elec       q    Type
REMARK                         _______ _______ _______ _____ _____    ______ ____
ROOT
ATOM      1  O   UNL     1       7.310   6.625  18.770  0.00  0.00    +0.000 OA
ATOM      2  C   UNL     1       7.280   6.964  17.595  0.00  0.00    +0.000 C 
ATOM      3  N   UNL     1       7.832   8.127  17.118  0.00  0.00    +0.000 N 
ATOM      4  N   UNL     1       6.663   6.244  16.606  0.00  0.00    +0.000 N 
ATOM      5  H   UNL     1       7.784   8.318  16.131  0.00  0.00    +0.000 HD
ATOM      6  H   UNL     1       6.959   6.446  15.664  0.00  0.00    +0.000 HD
ENDROOT
BRANCH   3   7
ATOM      7  C   UNL     1       8.478   9.071  18.015  0.00  0.00    +0.000 C 
BRANCH   7   8
ATOM      8  C   UNL     1       8.163  10.528  17.663  0.00  0.00    +0.000 C 
BRANCH   8   9
ATOM      9  C   UNL     1       9.196  11.501  18.183  0.00  0.00    +0.000 A 
ATOM     10  C   UNL     1      10.323  11.038  18.877  0.00  0.00    +0.000 A 
ATOM     11  C   UNL     1      11.292  11.936  19.339  0.00  0.00    +0.000 A 
ATOM     12  C   UNL     1      11.135  13.301  19.114  0.00  0.00    +0.000 A 
ATOM     13 CL   UNL     1      12.333  14.404  19.671  0.00  0.00    +0.000 Cl
ATOM     14  C   UNL     1      10.016  13.778  18.436  0.00  0.00    +0.000 A 
ATOM     15  C   UNL     1       9.048  12.882  17.975  0.00  0.00    +0.000 A 
ENDBRANCH   8   9
ENDBRANCH   7   8
ENDBRANCH   3   7
BRANCH   4  16
ATOM     16  C   UNL     1       6.125   4.915  16.869  0.00  0.00    +0.000 C 
BRANCH  16  17
ATOM     17  C   UNL     1       4.596   4.826  16.738  0.00  0.00    +0.000 C 
BRANCH  17  18
ATOM     18  C   UNL     1       3.883   5.037  18.035  0.00  0.00    +0.000 A 
ATOM     19  C   UNL     1       4.151   5.992  19.004  0.00  0.00    +0.000 A 
ATOM     20  N   UNL     1       3.278   5.801  20.047  0.00  0.00    +0.000 N 
ATOM     21  C   UNL     1       2.437   4.747  19.782  0.00  0.00    +0.000 A 
ATOM     22  C   UNL     1       1.410   4.184  20.548  0.00  0.00    +0.000 A 
ATOM     23  C   UNL     1       0.715   3.091  20.010  0.00  0.00    +0.000 A 
ATOM     24  C   UNL     1       1.039   2.604  18.750  0.00  0.00    +0.000 A 
ATOM     25  C   UNL     1       2.050   3.182  17.988  0.00  0.00    +0.000 A 
ATOM     26  C   UNL     1       2.775   4.266  18.517  0.00  0.00    +0.000 A 
ATOM     27  H   UNL     1       3.256   6.350  20.890  0.00  0.00    +0.000 HD
BRANCH  24  28
ATOM     28  O   UNL     1       0.392   1.532  18.208  0.00  0.00    +0.000 OA
ATOM     29  H   UNL     1      -0.179   1.845  17.488  0.00  0.00    +0.000 HD
ENDBRANCH  24  28
ENDBRANCH  17  18
ENDBRANCH  16  17
ENDBRANCH   4  16
TORSDOF 7
ENDMDL
