MODEL 1
REMARK VINA RESULT:      -7.1      0.000      0.000
REMARK  Name = 
REMARK  10 active torsions:
REMARK  status: ('A' for Active; 'I' for Inactive)
REMARK    1  A    between atoms: C_1  and  C_2
REMARK    2  A    between atoms: C_2  and  N_3
REMARK    3  A    between atoms: N_3  and  C_4
REMARK    4  A    between atoms: C_4  and  C_5
REMARK    5  A    between atoms: C_6  and  C_8
REMARK    6  A    between atoms: C_8  and  C_9
REMARK    7  A    between atoms: C_10  and  C_11
REMARK    8  A    between atoms: C_14  and  O_15
REMARK    9  A    between atoms: C_20  and  C_21
REMARK   10  A    between atoms: C_23  and  C_24
REMARK                            x       y       z     vdW  Elec       q    Type
REMARK                         _______ _______ _______ _____ _____    ______ ____
ROOT
ATOM      1  C   UNL     1       2.988   7.172  17.814  0.00  0.00    +0.000 A 
ATOM      2  C   UNL     1       2.583   6.158  18.740  0.00  0.00    +0.000 A 
ATOM      3  N   UNL     1       1.785   6.665  19.689  0.00  0.00    +0.000 NA
ATOM      4  N   UNL     1       1.732   8.007  19.451  0.00  0.00    +0.000 N 
ATOM      5  C   UNL     1       1.100   9.005  20.206  0.00  0.00    +0.000 A 
ATOM      6  C   UNL     1       0.381   8.650  21.470  0.00  0.00    +0.000 C 
ATOM      7  C   UNL     1       1.157  10.286  19.781  0.00  0.00    +0.000 A 
ATOM      8  C   UNL     1       1.895  10.534  18.503  0.00  0.00    +0.000 A 
ATOM      9  C   UNL     1       1.958  11.956  18.008  0.00  0.00    +0.000 C 
ATOM     10  N   UNL     1       2.474   9.613  17.791  0.00  0.00    +0.000 NA
ATOM     11  C   UNL     1       2.415   8.335  18.281  0.00  0.00    +0.000 A 
ENDROOT
BRANCH   2  12
ATOM     12  C   UNL     1       2.914   4.723  18.695  0.00  0.00    +0.000 A 
ATOM     13  C   UNL     1       4.015   4.210  19.397  0.00  0.00    +0.000 A 
ATOM     14  C   UNL     1       4.417   2.880  19.272  0.00  0.00    +0.000 A 
ATOM     15  C   UNL     1       3.670   2.026  18.476  0.00  0.00    +0.000 A 
ATOM     16  C   UNL     1       2.540   2.487  17.812  0.00  0.00    +0.000 A 
ATOM     17  C   UNL     1       2.163   3.833  17.916  0.00  0.00    +0.000 A 
BRANCH  15  18
ATOM     18  O   UNL     1       4.021   0.718  18.333  0.00  0.00    +0.000 OA
ATOM     19  H   UNL     1       4.973   0.635  18.508  0.00  0.00    +0.000 HD
ENDBRANCH  15  18
ENDBRANCH   2  12
BRANCH   1  20
ATOM     20  C   UNL     1       3.843   7.052  16.601  0.00  0.00    +0.000 C 
BRANCH  20  22
ATOM     21  N   UNL     1       5.893   5.611  16.497  0.00  0.00    +0.000 N 
ATOM     22  C   UNL     1       5.320   6.811  16.951  0.00  0.00    +0.000 C 
ATOM     23  O   UNL     1       5.966   7.604  17.640  0.00  0.00    +0.000 OA
BRANCH  21  25
ATOM     24  C   UNL     1       7.661   4.594  17.972  0.00  0.00    +0.000 C 
ATOM     25  C   UNL     1       7.333   5.430  16.742  0.00  0.00    +0.000 C 
ENDBRANCH  21  25
BRANCH  21  26
ATOM     26  C   UNL     1       5.121   4.679  15.668  0.00  0.00    +0.000 C 
ATOM     27  C   UNL     1       5.766   4.041  14.451  0.00  0.00    +0.000 C 
ENDBRANCH  21  26
ENDBRANCH  20  22
ENDBRANCH   1  20
TORSDOF 6
ENDMDL
MODEL 2
REMARK VINA RESULT:      -6.8      2.104      4.354
REMARK  Name = 
REMARK  10 active torsions:
REMARK  status: ('A' for Active; 'I' for Inactive)
REMARK    1  A    between atoms: C_1  and  C_2
REMARK    2  A    between atoms: C_2  and  N_3
REMARK    3  A    between atoms: N_3  and  C_4
REMARK    4  A    between atoms: C_4  and  C_5
REMARK    5  A    between atoms: C_6  and  C_8
REMARK    6  A    between atoms: C_8  and  C_9
REMARK    7  A    between atoms: C_10  and  C_11
REMARK    8  A    between atoms: C_14  and  O_15
REMARK    9  A    between atoms: C_20  and  C_21
REMARK   10  A    between atoms: C_23  and  C_24
REMARK                            x       y       z     vdW  Elec       q    Type
REMARK                         _______ _______ _______ _____ _____    ______ ____
ROOT
ATOM      1  C   UNL     1       2.297   6.754  20.136  0.00  0.00    +0.000 A 
ATOM      2  C   UNL     1       2.762   6.993  18.803  0.00  0.00    +0.000 A 
ATOM      3  N   UNL     1       2.399   8.209  18.377  0.00  0.00    +0.000 NA
ATOM      4  N   UNL     1       1.628   8.735  19.372  0.00  0.00    +0.000 N 
ATOM      5  C   UNL     1       0.932   9.952  19.388  0.00  0.00    +0.000 A 
ATOM      6  C   UNL     1       0.958  10.850  18.192  0.00  0.00    +0.000 C 
ATOM      7  C   UNL     1       0.233  10.294  20.493  0.00  0.00    +0.000 A 
ATOM      8  C   UNL     1       0.275   9.330  21.636  0.00  0.00    +0.000 A 
ATOM      9  C   UNL     1      -0.489   9.702  22.881  0.00  0.00    +0.000 C 
ATOM     10  N   UNL     1       0.928   8.205  21.634  0.00  0.00    +0.000 NA
ATOM     11  C   UNL     1       1.594   7.889  20.479  0.00  0.00    +0.000 A 
ENDROOT
BRANCH   2  12
ATOM     12  C   UNL     1       3.580   6.095  17.969  0.00  0.00    +0.000 A 
ATOM     13  C   UNL     1       3.059   4.888  17.476  0.00  0.00    +0.000 A 
ATOM     14  C   UNL     1       3.851   3.968  16.787  0.00  0.00    +0.000 A 
ATOM     15  C   UNL     1       5.175   4.283  16.531  0.00  0.00    +0.000 A 
ATOM     16  C   UNL     1       5.708   5.496  16.953  0.00  0.00    +0.000 A 
ATOM     17  C   UNL     1       4.915   6.399  17.673  0.00  0.00    +0.000 A 
BRANCH  15  18
ATOM     18  O   UNL     1       5.981   3.419  15.853  0.00  0.00    +0.000 OA
ATOM     19  H   UNL     1       6.212   2.686  16.448  0.00  0.00    +0.000 HD
ENDBRANCH  15  18
ENDBRANCH   2  12
BRANCH   1  20
ATOM     20  C   UNL     1       2.494   5.559  21.002  0.00  0.00    +0.000 C 
BRANCH  20  22
ATOM     21  N   UNL     1       2.268   3.162  20.301  0.00  0.00    +0.000 N 
ATOM     22  C   UNL     1       1.613   4.376  20.571  0.00  0.00    +0.000 C 
ATOM     23  O   UNL     1       0.395   4.489  20.419  0.00  0.00    +0.000 OA
BRANCH  21  25
ATOM     24  C   UNL     1       0.905   1.964  18.556  0.00  0.00    +0.000 C 
ATOM     25  C   UNL     1       1.415   2.004  19.991  0.00  0.00    +0.000 C 
ENDBRANCH  21  25
BRANCH  21  26
ATOM     26  C   UNL     1       3.717   3.033  20.496  0.00  0.00    +0.000 C 
ATOM     27  C   UNL     1       4.483   1.950  19.759  0.00  0.00    +0.000 C 
ENDBRANCH  21  26
ENDBRANCH  20  22
ENDBRANCH   1  20
TORSDOF 6
ENDMDL
MODEL 3
REMARK VINA RESULT:      -6.5      2.488      6.271
REMARK  Name = 
REMARK  10 active torsions:
REMARK  status: ('A' for Active; 'I' for Inactive)
REMARK    1  A    between atoms: C_1  and  C_2
REMARK    2  A    between atoms: C_2  and  N_3
REMARK    3  A    between atoms: N_3  and  C_4
REMARK    4  A    between atoms: C_4  and  C_5
REMARK    5  A    between atoms: C_6  and  C_8
REMARK    6  A    between atoms: C_8  and  C_9
REMARK    7  A    between atoms: C_10  and  C_11
REMARK    8  A    between atoms: C_14  and  O_15
REMARK    9  A    between atoms: C_20  and  C_21
REMARK   10  A    between atoms: C_23  and  C_24
REMARK                            x       y       z     vdW  Elec       q    Type
REMARK                         _______ _______ _______ _____ _____    ______ ____
ROOT
ATOM      1  C   UNL     1       2.857   5.934  17.797  0.00  0.00    +0.000 A 
ATOM      2  C   UNL     1       3.031   7.231  18.378  0.00  0.00    +0.000 A 
ATOM      3  N   UNL     1       4.256   7.710  18.127  0.00  0.00    +0.000 NA
ATOM      4  N   UNL     1       4.916   6.714  17.469  0.00  0.00    +0.000 N 
ATOM      5  C   UNL     1       6.256   6.676  17.056  0.00  0.00    +0.000 A 
ATOM      6  C   UNL     1       7.167   7.826  17.352  0.00  0.00    +0.000 C 
ATOM      7  C   UNL     1       6.710   5.587  16.398  0.00  0.00    +0.000 A 
ATOM      8  C   UNL     1       5.718   4.496  16.147  0.00  0.00    +0.000 A 
ATOM      9  C   UNL     1       6.204   3.279  15.402  0.00  0.00    +0.000 C 
ATOM     10  N   UNL     1       4.471   4.528  16.516  0.00  0.00    +0.000 NA
ATOM     11  C   UNL     1       4.068   5.640  17.208  0.00  0.00    +0.000 A 
ENDROOT
BRANCH   2  12
ATOM     12  C   UNL     1       2.031   8.018  19.120  0.00  0.00    +0.000 A 
ATOM     13  C   UNL     1       1.312   9.050  18.496  0.00  0.00    +0.000 A 
ATOM     14  C   UNL     1       0.451   9.885  19.208  0.00  0.00    +0.000 A 
ATOM     15  C   UNL     1       0.254   9.651  20.560  0.00  0.00    +0.000 A 
ATOM     16  C   UNL     1       0.906   8.602  21.197  0.00  0.00    +0.000 A 
ATOM     17  C   UNL     1       1.795   7.789  20.482  0.00  0.00    +0.000 A 
BRANCH  15  18
ATOM     18  O   UNL     1      -0.585  10.436  21.290  0.00  0.00    +0.000 OA
ATOM     19  H   UNL     1      -1.451   9.998  21.338  0.00  0.00    +0.000 HD
ENDBRANCH  15  18
ENDBRANCH   2  12
BRANCH   1  20
ATOM     20  C   UNL     1       1.657   5.053  17.803  0.00  0.00    +0.000 C 
BRANCH  20  22
ATOM     21  N   UNL     1       1.766   2.963  19.185  0.00  0.00    +0.000 N 
ATOM     22  C   UNL     1       1.468   4.336  19.149  0.00  0.00    +0.000 C 
ATOM     23  O   UNL     1       1.030   4.918  20.144  0.00  0.00    +0.000 OA
BRANCH  21  25
ATOM     24  C   UNL     1       2.772   2.724  21.480  0.00  0.00    +0.000 C 
ATOM     25  C   UNL     1       1.687   2.302  20.497  0.00  0.00    +0.000 C 
ENDBRANCH  21  25
BRANCH  21  26
ATOM     26  C   UNL     1       2.300   2.282  18.000  0.00  0.00    +0.000 C 
ATOM     27  C   UNL     1       3.603   1.511  18.097  0.00  0.00    +0.000 C 
ENDBRANCH  21  26
ENDBRANCH  20  22
ENDBRANCH   1  20
TORSDOF 6
ENDMDL
MODEL 4
REMARK VINA RESULT:      -6.5      2.127      4.348
REMARK  Name = 
REMARK  10 active torsions:
REMARK  status: ('A' for Active; 'I' for Inactive)
REMARK    1  A    between atoms: C_1  and  C_2
REMARK    2  A    between atoms: C_2  and  N_3
REMARK    3  A    between atoms: N_3  and  C_4
REMARK    4  A    between atoms: C_4  and  C_5
REMARK    5  A    between atoms: C_6  and  C_8
REMARK    6  A    between atoms: C_8  and  C_9
REMARK    7  A    between atoms: C_10  and  C_11
REMARK    8  A    between atoms: C_14  and  O_15
REMARK    9  A    between atoms: C_20  and  C_21
REMARK   10  A    between atoms: C_23  and  C_24
REMARK                            x       y       z     vdW  Elec       q    Type
REMARK                         _______ _______ _______ _____ _____    ______ ____
ROOT
ATOM      1  C   UNL     1       2.447   6.819  19.918  0.00  0.00    +0.000 A 
ATOM      2  C   UNL     1       2.857   7.112  18.577  0.00  0.00    +0.000 A 
ATOM      3  N   UNL     1       2.385   8.301  18.179  0.00  0.00    +0.000 NA
ATOM      4  N   UNL     1       1.601   8.750  19.201  0.00  0.00    +0.000 N 
ATOM      5  C   UNL     1       0.809   9.906  19.254  0.00  0.00    +0.000 A 
ATOM      6  C   UNL     1       0.732  10.819  18.071  0.00  0.00    +0.000 C 
ATOM      7  C   UNL     1       0.114  10.175  20.381  0.00  0.00    +0.000 A 
ATOM      8  C   UNL     1       0.264   9.203  21.507  0.00  0.00    +0.000 A 
ATOM      9  C   UNL     1      -0.494   9.495  22.777  0.00  0.00    +0.000 C 
ATOM     10  N   UNL     1       1.006   8.135  21.471  0.00  0.00    +0.000 NA
ATOM     11  C   UNL     1       1.665   7.889  20.296  0.00  0.00    +0.000 A 
ENDROOT
BRANCH   2  12
ATOM     12  C   UNL     1       3.722   6.295  17.709  0.00  0.00    +0.000 A 
ATOM     13  C   UNL     1       4.898   6.823  17.152  0.00  0.00    +0.000 A 
ATOM     14  C   UNL     1       5.666   6.107  16.234  0.00  0.00    +0.000 A 
ATOM     15  C   UNL     1       5.288   4.814  15.906  0.00  0.00    +0.000 A 
ATOM     16  C   UNL     1       4.162   4.240  16.483  0.00  0.00    +0.000 A 
ATOM     17  C   UNL     1       3.378   4.977  17.380  0.00  0.00    +0.000 A 
BRANCH  15  18
ATOM     18  O   UNL     1       6.015   4.077  15.021  0.00  0.00    +0.000 OA
ATOM     19  H   UNL     1       5.771   3.143  15.127  0.00  0.00    +0.000 HD
ENDBRANCH  15  18
ENDBRANCH   2  12
BRANCH   1  20
ATOM     20  C   UNL     1       2.764   5.634  20.761  0.00  0.00    +0.000 C 
BRANCH  20  22
ATOM     21  N   UNL     1       2.450   3.231  20.111  0.00  0.00    +0.000 N 
ATOM     22  C   UNL     1       1.835   4.445  20.465  0.00  0.00    +0.000 C 
ATOM     23  O   UNL     1       0.607   4.553  20.485  0.00  0.00    +0.000 OA
BRANCH  21  25
ATOM     24  C   UNL     1       0.857   2.021  18.584  0.00  0.00    +0.000 C 
ATOM     25  C   UNL     1       1.566   2.069  19.931  0.00  0.00    +0.000 C 
ENDBRANCH  21  25
BRANCH  21  26
ATOM     26  C   UNL     1       3.912   3.108  20.101  0.00  0.00    +0.000 C 
ATOM     27  C   UNL     1       4.552   1.732  20.076  0.00  0.00    +0.000 C 
ENDBRANCH  21  26
ENDBRANCH  20  22
ENDBRANCH   1  20
TORSDOF 6
ENDMDL
MODEL 5
REMARK VINA RESULT:      -6.2      1.985      4.327
REMARK  Name = 
REMARK  10 active torsions:
REMARK  status: ('A' for Active; 'I' for Inactive)
REMARK    1  A    between atoms: C_1  and  C_2
REMARK    2  A    between atoms: C_2  and  N_3
REMARK    3  A    between atoms: N_3  and  C_4
REMARK    4  A    between atoms: C_4  and  C_5
REMARK    5  A    between atoms: C_6  and  C_8
REMARK    6  A    between atoms: C_8  and  C_9
REMARK    7  A    between atoms: C_10  and  C_11
REMARK    8  A    between atoms: C_14  and  O_15
REMARK    9  A    between atoms: C_20  and  C_21
REMARK   10  A    between atoms: C_23  and  C_24
REMARK                            x       y       z     vdW  Elec       q    Type
REMARK                         _______ _______ _______ _____ _____    ______ ____
ROOT
ATOM      1  C   UNL     1       3.021   6.622  19.594  0.00  0.00    +0.000 A 
ATOM      2  C   UNL     1       3.545   7.070  18.339  0.00  0.00    +0.000 A 
ATOM      3  N   UNL     1       2.986   8.230  17.971  0.00  0.00    +0.000 NA
ATOM      4  N   UNL     1       2.041   8.503  18.916  0.00  0.00    +0.000 N 
ATOM      5  C   UNL     1       1.118   9.558  18.951  0.00  0.00    +0.000 A 
ATOM      6  C   UNL     1       1.071  10.554  17.835  0.00  0.00    +0.000 C 
ATOM      7  C   UNL     1       0.270   9.654  19.999  0.00  0.00    +0.000 A 
ATOM      8  C   UNL     1       0.402   8.612  21.064  0.00  0.00    +0.000 A 
ATOM      9  C   UNL     1      -0.528   8.712  22.246  0.00  0.00    +0.000 C 
ATOM     10  N   UNL     1       1.264   7.637  21.045  0.00  0.00    +0.000 NA
ATOM     11  C   UNL     1       2.079   7.565  19.946  0.00  0.00    +0.000 A 
ENDROOT
BRANCH   2  12
ATOM     12  C   UNL     1       4.595   6.428  17.530  0.00  0.00    +0.000 A 
ATOM     13  C   UNL     1       5.828   6.065  18.096  0.00  0.00    +0.000 A 
ATOM     14  C   UNL     1       6.877   5.567  17.324  0.00  0.00    +0.000 A 
ATOM     15  C   UNL     1       6.677   5.371  15.967  0.00  0.00    +0.000 A 
ATOM     16  C   UNL     1       5.450   5.665  15.384  0.00  0.00    +0.000 A 
ATOM     17  C   UNL     1       4.412   6.195  16.161  0.00  0.00    +0.000 A 
BRANCH  15  18
ATOM     18  O   UNL     1       7.672   4.878  15.178  0.00  0.00    +0.000 OA
ATOM     19  H   UNL     1       7.472   5.106  14.255  0.00  0.00    +0.000 HD
ENDBRANCH  15  18
ENDBRANCH   2  12
BRANCH   1  20
ATOM     20  C   UNL     1       3.374   5.411  20.384  0.00  0.00    +0.000 C 
BRANCH  20  22
ATOM     21  N   UNL     1       2.644   3.164  19.542  0.00  0.00    +0.000 N 
ATOM     22  C   UNL     1       2.304   4.314  20.276  0.00  0.00    +0.000 C 
ATOM     23  O   UNL     1       1.180   4.446  20.766  0.00  0.00    +0.000 OA
BRANCH  21  25
ATOM     24  C   UNL     1       0.484   2.295  18.585  0.00  0.00    +0.000 C 
ATOM     25  C   UNL     1       1.659   2.071  19.529  0.00  0.00    +0.000 C 
ENDBRANCH  21  25
BRANCH  21  26
ATOM     26  C   UNL     1       3.988   3.009  18.973  0.00  0.00    +0.000 C 
ATOM     27  C   UNL     1       4.150   2.729  17.491  0.00  0.00    +0.000 C 
ENDBRANCH  21  26
ENDBRANCH  20  22
ENDBRANCH   1  20
TORSDOF 6
ENDMDL
MODEL 6
REMARK VINA RESULT:      -6.1      1.092      1.645
REMARK  Name = 
REMARK  10 active torsions:
REMARK  status: ('A' for Active; 'I' for Inactive)
REMARK    1  A    between atoms: C_1  and  C_2
REMARK    2  A    between atoms: C_2  and  N_3
REMARK    3  A    between atoms: N_3  and  C_4
REMARK    4  A    between atoms: C_4  and  C_5
REMARK    5  A    between atoms: C_6  and  C_8
REMARK    6  A    between atoms: C_8  and  C_9
REMARK    7  A    between atoms: C_10  and  C_11
REMARK    8  A    between atoms: C_14  and  O_15
REMARK    9  A    between atoms: C_20  and  C_21
REMARK   10  A    between atoms: C_23  and  C_24
REMARK                            x       y       z     vdW  Elec       q    Type
REMARK                         _______ _______ _______ _____ _____    ______ ____
ROOT
ATOM      1  C   UNL     1       3.186   7.015  17.756  0.00  0.00    +0.000 A 
ATOM      2  C   UNL     1       2.712   6.032  18.683  0.00  0.00    +0.000 A 
ATOM      3  N   UNL     1       1.885   6.580  19.583  0.00  0.00    +0.000 NA
ATOM      4  N   UNL     1       1.881   7.918  19.317  0.00  0.00    +0.000 N 
ATOM      5  C   UNL     1       1.243   8.948  20.022  0.00  0.00    +0.000 A 
ATOM      6  C   UNL     1       0.458   8.640  21.258  0.00  0.00    +0.000 C 
ATOM      7  C   UNL     1       1.355  10.218  19.574  0.00  0.00    +0.000 A 
ATOM      8  C   UNL     1       2.157  10.419  18.328  0.00  0.00    +0.000 A 
ATOM      9  C   UNL     1       2.281  11.828  17.807  0.00  0.00    +0.000 C 
ATOM     10  N   UNL     1       2.742   9.467  17.660  0.00  0.00    +0.000 NA
ATOM     11  C   UNL     1       2.625   8.202  18.173  0.00  0.00    +0.000 A 
ENDROOT
BRANCH   2  12
ATOM     12  C   UNL     1       3.004   4.589  18.681  0.00  0.00    +0.000 A 
ATOM     13  C   UNL     1       3.952   4.039  19.558  0.00  0.00    +0.000 A 
ATOM     14  C   UNL     1       4.331   2.698  19.491  0.00  0.00    +0.000 A 
ATOM     15  C   UNL     1       3.709   1.870  18.569  0.00  0.00    +0.000 A 
ATOM     16  C   UNL     1       2.724   2.369  17.725  0.00  0.00    +0.000 A 
ATOM     17  C   UNL     1       2.374   3.724  17.776  0.00  0.00    +0.000 A 
BRANCH  15  18
ATOM     18  O   UNL     1       4.042   0.553  18.477  0.00  0.00    +0.000 OA
ATOM     19  H   UNL     1       4.450   0.401  17.608  0.00  0.00    +0.000 HD
ENDBRANCH  15  18
ENDBRANCH   2  12
BRANCH   1  20
ATOM     20  C   UNL     1       4.091   6.846  16.586  0.00  0.00    +0.000 C 
BRANCH  20  22
ATOM     21  N   UNL     1       6.432   6.489  17.413  0.00  0.00    +0.000 N 
ATOM     22  C   UNL     1       5.266   5.903  16.891  0.00  0.00    +0.000 C 
ATOM     23  O   UNL     1       5.216   4.695  16.647  0.00  0.00    +0.000 OA
BRANCH  21  25
ATOM     24  C   UNL     1       7.802   5.539  19.299  0.00  0.00    +0.000 C 
ATOM     25  C   UNL     1       7.516   5.574  17.803  0.00  0.00    +0.000 C 
ENDBRANCH  21  25
BRANCH  21  26
ATOM     26  C   UNL     1       6.479   7.925  17.711  0.00  0.00    +0.000 C 
ATOM     27  C   UNL     1       7.806   8.661  17.668  0.00  0.00    +0.000 C 
ENDBRANCH  21  26
ENDBRANCH  20  22
ENDBRANCH   1  20
TORSDOF 6
ENDMDL
MODEL 7
REMARK VINA RESULT:      -6.1      2.298      6.283
REMARK  Name = 
REMARK  10 active torsions:
REMARK  status: ('A' for Active; 'I' for Inactive)
REMARK    1  A    between atoms: C_1  and  C_2
REMARK    2  A    between atoms: C_2  and  N_3
REMARK    3  A    between atoms: N_3  and  C_4
REMARK    4  A    between atoms: C_4  and  C_5
REMARK    5  A    between atoms: C_6  and  C_8
REMARK    6  A    between atoms: C_8  and  C_9
REMARK    7  A    between atoms: C_10  and  C_11
REMARK    8  A    between atoms: C_14  and  O_15
REMARK    9  A    between atoms: C_20  and  C_21
REMARK   10  A    between atoms: C_23  and  C_24
REMARK                            x       y       z     vdW  Elec       q    Type
REMARK                         _______ _______ _______ _____ _____    ______ ____
ROOT
ATOM      1  C   UNL     1       2.902   6.000  17.759  0.00  0.00    +0.000 A 
ATOM      2  C   UNL     1       3.083   7.267  18.400  0.00  0.00    +0.000 A 
ATOM      3  N   UNL     1       4.314   7.747  18.179  0.00  0.00    +0.000 NA
ATOM      4  N   UNL     1       4.970   6.777  17.480  0.00  0.00    +0.000 N 
ATOM      5  C   UNL     1       6.312   6.747  17.075  0.00  0.00    +0.000 A 
ATOM      6  C   UNL     1       7.230   7.874  17.429  0.00  0.00    +0.000 C 
ATOM      7  C   UNL     1       6.762   5.685  16.370  0.00  0.00    +0.000 A 
ATOM      8  C   UNL     1       5.763   4.615  16.063  0.00  0.00    +0.000 A 
ATOM      9  C   UNL     1       6.245   3.429  15.267  0.00  0.00    +0.000 C 
ATOM     10  N   UNL     1       4.514   4.640  16.426  0.00  0.00    +0.000 NA
ATOM     11  C   UNL     1       4.115   5.722  17.165  0.00  0.00    +0.000 A 
ENDROOT
BRANCH   2  12
ATOM     12  C   UNL     1       2.084   8.028  19.170  0.00  0.00    +0.000 A 
ATOM     13  C   UNL     1       1.446   9.151  18.621  0.00  0.00    +0.000 A 
ATOM     14  C   UNL     1       0.589   9.956  19.372  0.00  0.00    +0.000 A 
ATOM     15  C   UNL     1       0.314   9.601  20.684  0.00  0.00    +0.000 A 
ATOM     16  C   UNL     1       0.884   8.463  21.242  0.00  0.00    +0.000 A 
ATOM     17  C   UNL     1       1.770   7.679  20.490  0.00  0.00    +0.000 A 
BRANCH  15  18
ATOM     18  O   UNL     1      -0.524  10.353  21.450  0.00  0.00    +0.000 OA
ATOM     19  H   UNL     1      -1.244   9.783  21.766  0.00  0.00    +0.000 HD
ENDBRANCH  15  18
ENDBRANCH   2  12
BRANCH   1  20
ATOM     20  C   UNL     1       1.695   5.129  17.717  0.00  0.00    +0.000 C 
BRANCH  20  22
ATOM     21  N   UNL     1       2.427   3.160  19.087  0.00  0.00    +0.000 N 
ATOM     22  C   UNL     1       2.051   3.638  17.819  0.00  0.00    +0.000 C 
ATOM     23  O   UNL     1       2.056   2.897  16.834  0.00  0.00    +0.000 OA
BRANCH  21  25
ATOM     24  C   UNL     1       4.079   1.276  18.850  0.00  0.00    +0.000 C 
ATOM     25  C   UNL     1       2.664   1.713  19.206  0.00  0.00    +0.000 C 
ENDBRANCH  21  25
BRANCH  21  26
ATOM     26  C   UNL     1       2.405   4.045  20.257  0.00  0.00    +0.000 C 
ATOM     27  C   UNL     1       2.063   3.479  21.623  0.00  0.00    +0.000 C 
ENDBRANCH  21  26
ENDBRANCH  20  22
ENDBRANCH   1  20
TORSDOF 6
ENDMDL
MODEL 8
REMARK VINA RESULT:      -6.0      1.899      4.744
REMARK  Name = 
REMARK  10 active torsions:
REMARK  status: ('A' for Active; 'I' for Inactive)
REMARK    1  A    between atoms: C_1  and  C_2
REMARK    2  A    between atoms: C_2  and  N_3
REMARK    3  A    between atoms: N_3  and  C_4
REMARK    4  A    between atoms: C_4  and  C_5
REMARK    5  A    between atoms: C_6  and  C_8
REMARK    6  A    between atoms: C_8  and  C_9
REMARK    7  A    between atoms: C_10  and  C_11
REMARK    8  A    between atoms: C_14  and  O_15
REMARK    9  A    between atoms: C_20  and  C_21
REMARK   10  A    between atoms: C_23  and  C_24
REMARK                            x       y       z     vdW  Elec       q    Type
REMARK                         _______ _______ _______ _____ _____    ______ ____
ROOT
ATOM      1  C   UNL     1       3.331   6.554  19.251  0.00  0.00    +0.000 A 
ATOM      2  C   UNL     1       3.817   7.111  18.026  0.00  0.00    +0.000 A 
ATOM      3  N   UNL     1       3.197   8.264  17.742  0.00  0.00    +0.000 NA
ATOM      4  N   UNL     1       2.253   8.426  18.713  0.00  0.00    +0.000 N 
ATOM      5  C   UNL     1       1.280   9.429  18.829  0.00  0.00    +0.000 A 
ATOM      6  C   UNL     1       1.171  10.495  17.785  0.00  0.00    +0.000 C 
ATOM      7  C   UNL     1       0.442   9.412  19.889  0.00  0.00    +0.000 A 
ATOM      8  C   UNL     1       0.638   8.308  20.879  0.00  0.00    +0.000 A 
ATOM      9  C   UNL     1      -0.280   8.282  22.074  0.00  0.00    +0.000 C 
ATOM     10  N   UNL     1       1.546   7.380  20.785  0.00  0.00    +0.000 NA
ATOM     11  C   UNL     1       2.349   7.423  19.676  0.00  0.00    +0.000 A 
ENDROOT
BRANCH   2  12
ATOM     12  C   UNL     1       4.886   6.577  17.164  0.00  0.00    +0.000 A 
ATOM     13  C   UNL     1       4.608   6.100  15.874  0.00  0.00    +0.000 A 
ATOM     14  C   UNL     1       5.582   5.481  15.089  0.00  0.00    +0.000 A 
ATOM     15  C   UNL     1       6.876   5.388  15.576  0.00  0.00    +0.000 A 
ATOM     16  C   UNL     1       7.199   5.903  16.826  0.00  0.00    +0.000 A 
ATOM     17  C   UNL     1       6.208   6.493  17.621  0.00  0.00    +0.000 A 
BRANCH  15  18
ATOM     18  O   UNL     1       7.859   4.800  14.839  0.00  0.00    +0.000 OA
ATOM     19  H   UNL     1       8.715   5.153  15.134  0.00  0.00    +0.000 HD
ENDBRANCH  15  18
ENDBRANCH   2  12
BRANCH   1  20
ATOM     20  C   UNL     1       3.753   5.310  19.953  0.00  0.00    +0.000 C 
BRANCH  20  22
ATOM     21  N   UNL     1       2.353   3.244  19.703  0.00  0.00    +0.000 N 
ATOM     22  C   UNL     1       3.378   4.044  19.168  0.00  0.00    +0.000 C 
ATOM     23  O   UNL     1       3.975   3.710  18.142  0.00  0.00    +0.000 OA
BRANCH  21  25
ATOM     24  C   UNL     1       0.434   2.064  18.582  0.00  0.00    +0.000 C 
ATOM     25  C   UNL     1       1.924   2.091  18.897  0.00  0.00    +0.000 C 
ENDBRANCH  21  25
BRANCH  21  26
ATOM     26  C   UNL     1       1.640   3.655  20.918  0.00  0.00    +0.000 C 
ATOM     27  C   UNL     1       1.497   2.681  22.073  0.00  0.00    +0.000 C 
ENDBRANCH  21  26
ENDBRANCH  20  22
ENDBRANCH   1  20
TORSDOF 6
ENDMDL
MODEL 9
REMARK VINA RESULT:      -6.0      6.243      9.893
REMARK  Name = 
REMARK  10 active torsions:
REMARK  status: ('A' for Active; 'I' for Inactive)
REMARK    1  A    between atoms: C_1  and  C_2
REMARK    2  A    between atoms: C_2  and  N_3
REMARK    3  A    between atoms: N_3  and  C_4
REMARK    4  A    between atoms: C_4  and  C_5
REMARK    5  A    between atoms: C_6  and  C_8
REMARK    6  A    between atoms: C_8  and  C_9
REMARK    7  A    between atoms: C_10  and  C_11
REMARK    8  A    between atoms: C_14  and  O_15
REMARK    9  A    between atoms: C_20  and  C_21
REMARK   10  A    between atoms: C_23  and  C_24
REMARK                            x       y       z     vdW  Elec       q    Type
REMARK                         _______ _______ _______ _____ _____    ______ ____
ROOT
ATOM      1  C   UNL     1      -2.413  12.397  19.713  0.00  0.00    +0.000 A 
ATOM      2  C   UNL     1      -3.478  12.746  20.604  0.00  0.00    +0.000 A 
ATOM      3  N   UNL     1      -4.668  12.431  20.077  0.00  0.00    +0.000 NA
ATOM      4  N   UNL     1      -4.407  11.965  18.822  0.00  0.00    +0.000 N 
ATOM      5  C   UNL     1      -5.314  11.582  17.824  0.00  0.00    +0.000 A 
ATOM      6  C   UNL     1      -6.787  11.685  18.066  0.00  0.00    +0.000 C 
ATOM      7  C   UNL     1      -4.839  11.130  16.643  0.00  0.00    +0.000 A 
ATOM      8  C   UNL     1      -3.351  11.059  16.503  0.00  0.00    +0.000 A 
ATOM      9  C   UNL     1      -2.804  10.544  15.196  0.00  0.00    +0.000 C 
ATOM     10  N   UNL     1      -2.503  11.401  17.428  0.00  0.00    +0.000 NA
ATOM     11  C   UNL     1      -3.034  11.884  18.595  0.00  0.00    +0.000 A 
ENDROOT
BRANCH   2  12
ATOM     12  C   UNL     1      -3.360  13.326  21.953  0.00  0.00    +0.000 A 
ATOM     13  C   UNL     1      -3.700  12.583  23.095  0.00  0.00    +0.000 A 
ATOM     14  C   UNL     1      -3.711  13.151  24.369  0.00  0.00    +0.000 A 
ATOM     15  C   UNL     1      -3.318  14.471  24.519  0.00  0.00    +0.000 A 
ATOM     16  C   UNL     1      -2.919  15.218  23.417  0.00  0.00    +0.000 A 
ATOM     17  C   UNL     1      -2.943  14.651  22.136  0.00  0.00    +0.000 A 
BRANCH  15  18
ATOM     18  O   UNL     1      -3.305  15.061  25.746  0.00  0.00    +0.000 OA
ATOM     19  H   UNL     1      -3.590  14.406  26.404  0.00  0.00    +0.000 HD
ENDBRANCH  15  18
ENDBRANCH   2  12
BRANCH   1  20
ATOM     20  C   UNL     1      -0.943  12.540  19.902  0.00  0.00    +0.000 C 
BRANCH  20  22
ATOM     21  N   UNL     1       0.289  10.378  20.213  0.00  0.00    +0.000 N 
ATOM     22  C   UNL     1      -0.367  11.458  20.829  0.00  0.00    +0.000 C 
ATOM     23  O   UNL     1      -0.511  11.501  22.053  0.00  0.00    +0.000 OA
BRANCH  21  25
ATOM     24  C   UNL     1       0.029   8.243  21.522  0.00  0.00    +0.000 C 
ATOM     25  C   UNL     1       0.930   9.399  21.104  0.00  0.00    +0.000 C 
ENDBRANCH  21  25
BRANCH  21  26
ATOM     26  C   UNL     1       0.466  10.341  18.757  0.00  0.00    +0.000 C 
ATOM     27  C   UNL     1       1.507   9.419  18.149  0.00  0.00    +0.000 C 
ENDBRANCH  21  26
ENDBRANCH  20  22
ENDBRANCH   1  20
TORSDOF 6
ENDMDL
