MODEL 1
REMARK VINA RESULT:      -8.2      0.000      0.000
REMARK  Name = 
REMARK  6 active torsions:
REMARK  status: ('A' for Active; 'I' for Inactive)
REMARK    1  A    between atoms: C_1  and  C_2
REMARK    2  A    between atoms: C_5  and  N_6
REMARK    3  A    between atoms: N_6  and  C_7
REMARK    4  A    between atoms: C_9  and  C_10
REMARK    5  A    between atoms: C_15  and  C_16
REMARK    6  A    between atoms: C_18  and  O_19
REMARK                            x       y       z     vdW  Elec       q    Type
REMARK                         _______ _______ _______ _____ _____    ______ ____
ROOT
ATOM      1  C   UNL     1       2.542   5.242  19.016  0.00  0.00    +0.000 A 
ATOM      2  C   UNL     1       1.423   4.504  19.346  0.00  0.00    +0.000 A 
ATOM      3  C   UNL     1       1.528   3.316  18.611  0.00  0.00    +0.000 A 
ATOM      4  C   UNL     1       0.694   2.103  18.766  0.00  0.00    +0.000 C 
ATOM      5  N   UNL     1       2.539   3.355  17.740  0.00  0.00    +0.000 NA
ATOM      6  N   UNL     1       3.150   4.567  17.961  0.00  0.00    +0.000 N 
ATOM      7  C   UNL     1       4.305   4.984  17.210  0.00  0.00    +0.000 A 
ATOM      8  N   UNL     1       4.726   4.181  16.206  0.00  0.00    +0.000 NA
ATOM      9  C   UNL     1       5.790   4.581  15.489  0.00  0.00    +0.000 A 
ATOM     10  C   UNL     1       6.211   3.696  14.358  0.00  0.00    +0.000 C 
ATOM     11  C   UNL     1       6.461   5.754  15.759  0.00  0.00    +0.000 A 
ATOM     12  C   UNL     1       5.962   6.494  16.803  0.00  0.00    +0.000 A 
ATOM     13  N   UNL     1       4.899   6.156  17.535  0.00  0.00    +0.000 NA
ENDROOT
BRANCH   1  14
ATOM     14  N   UNL     1       3.020   6.384  19.575  0.00  0.00    +0.000 N 
ATOM     15  H   UNL     1       3.630   6.333  20.398  0.00  0.00    +0.000 HD
BRANCH  14  20
ATOM     16  C   UNL     1      -0.395  10.946  19.145  0.00  0.00    +0.000 C 
ATOM     17  C   UNL     1       0.569   9.808  19.267  0.00  0.00    +0.000 A 
ATOM     18  C   UNL     1       0.730   9.181  20.501  0.00  0.00    +0.000 A 
ATOM     19  C   UNL     1       1.581   8.089  20.618  0.00  0.00    +0.000 A 
ATOM     20  C   UNL     1       2.291   7.592  19.511  0.00  0.00    +0.000 A 
ATOM     21  C   UNL     1       2.209   8.279  18.306  0.00  0.00    +0.000 A 
ATOM     22  C   UNL     1       1.342   9.368  18.184  0.00  0.00    +0.000 A 
ENDBRANCH  14  20
ENDBRANCH   1  14
BRANCH  12  23
ATOM     23  O   UNL     1       6.539   7.677  17.163  0.00  0.00    +0.000 OA
ATOM     24  H   UNL     1       6.499   8.288  16.413  0.00  0.00    +0.000 HD
ENDBRANCH  12  23
TORSDOF 3
ENDMDL
MODEL 2
REMARK VINA RESULT:      -8.1      2.361      6.541
REMARK  Name = 
REMARK  6 active torsions:
REMARK  status: ('A' for Active; 'I' for Inactive)
REMARK    1  A    between atoms: C_1  and  C_2
REMARK    2  A    between atoms: C_5  and  N_6
REMARK    3  A    between atoms: N_6  and  C_7
REMARK    4  A    between atoms: C_9  and  C_10
REMARK    5  A    between atoms: C_15  and  C_16
REMARK    6  A    between atoms: C_18  and  O_19
REMARK                            x       y       z     vdW  Elec       q    Type
REMARK                         _______ _______ _______ _____ _____    ______ ____
ROOT
ATOM      1  C   UNL     1       4.432   6.092  17.890  0.00  0.00    +0.000 A 
ATOM      2  C   UNL     1       3.987   7.279  17.343  0.00  0.00    +0.000 A 
ATOM      3  C   UNL     1       2.842   7.622  18.075  0.00  0.00    +0.000 A 
ATOM      4  C   UNL     1       2.113   8.909  18.026  0.00  0.00    +0.000 C 
ATOM      5  N   UNL     1       2.472   6.648  18.910  0.00  0.00    +0.000 NA
ATOM      6  N   UNL     1       3.437   5.678  18.771  0.00  0.00    +0.000 N 
ATOM      7  C   UNL     1       3.394   4.451  19.523  0.00  0.00    +0.000 A 
ATOM      8  N   UNL     1       2.318   4.235  20.314  0.00  0.00    +0.000 NA
ATOM      9  C   UNL     1       2.266   3.080  20.999  0.00  0.00    +0.000 A 
ATOM     10  C   UNL     1       1.047   2.847  21.834  0.00  0.00    +0.000 C 
ATOM     11  C   UNL     1       3.271   2.138  20.932  0.00  0.00    +0.000 A 
ATOM     12  C   UNL     1       4.323   2.454  20.108  0.00  0.00    +0.000 A 
ATOM     13  N   UNL     1       4.417   3.576  19.391  0.00  0.00    +0.000 NA
ENDROOT
BRANCH   1  14
ATOM     14  N   UNL     1       5.595   5.424  17.676  0.00  0.00    +0.000 N 
ATOM     15  H   UNL     1       6.427   5.656  18.231  0.00  0.00    +0.000 HD
BRANCH  14  20
ATOM     16  C   UNL     1       6.589   3.767  12.298  0.00  0.00    +0.000 C 
ATOM     17  C   UNL     1       6.362   4.121  13.733  0.00  0.00    +0.000 A 
ATOM     18  C   UNL     1       7.302   4.907  14.398  0.00  0.00    +0.000 A 
ATOM     19  C   UNL     1       7.079   5.290  15.715  0.00  0.00    +0.000 A 
ATOM     20  C   UNL     1       5.917   4.903  16.403  0.00  0.00    +0.000 A 
ATOM     21  C   UNL     1       5.030   4.036  15.775  0.00  0.00    +0.000 A 
ATOM     22  C   UNL     1       5.246   3.663  14.447  0.00  0.00    +0.000 A 
ENDBRANCH  14  20
ENDBRANCH   1  14
BRANCH  12  23
ATOM     23  O   UNL     1       5.375   1.599  19.955  0.00  0.00    +0.000 OA
ATOM     24  H   UNL     1       5.224   0.812  20.498  0.00  0.00    +0.000 HD
ENDBRANCH  12  23
TORSDOF 3
ENDMDL
MODEL 3
REMARK VINA RESULT:      -8.1      3.789      5.678
REMARK  Name = 
REMARK  6 active torsions:
REMARK  status: ('A' for Active; 'I' for Inactive)
REMARK    1  A    between atoms: C_1  and  C_2
REMARK    2  A    between atoms: C_5  and  N_6
REMARK    3  A    between atoms: N_6  and  C_7
REMARK    4  A    between atoms: C_9  and  C_10
REMARK    5  A    between atoms: C_15  and  C_16
REMARK    6  A    between atoms: C_18  and  O_19
REMARK                            x       y       z     vdW  Elec       q    Type
REMARK                         _______ _______ _______ _____ _____    ______ ____
ROOT
ATOM      1  C   UNL     1       6.263   4.235  16.964  0.00  0.00    +0.000 A 
ATOM      2  C   UNL     1       6.667   4.756  18.177  0.00  0.00    +0.000 A 
ATOM      3  C   UNL     1       7.413   5.901  17.863  0.00  0.00    +0.000 A 
ATOM      4  C   UNL     1       7.889   6.934  18.810  0.00  0.00    +0.000 C 
ATOM      5  N   UNL     1       7.627   6.013  16.550  0.00  0.00    +0.000 NA
ATOM      6  N   UNL     1       6.946   4.957  15.989  0.00  0.00    +0.000 N 
ATOM      7  C   UNL     1       6.929   4.735  14.567  0.00  0.00    +0.000 A 
ATOM      8  N   UNL     1       7.683   5.548  13.793  0.00  0.00    +0.000 NA
ATOM      9  C   UNL     1       7.686   5.326  12.468  0.00  0.00    +0.000 A 
ATOM     10  C   UNL     1       8.561   6.213  11.639  0.00  0.00    +0.000 C 
ATOM     11  C   UNL     1       6.939   4.323  11.888  0.00  0.00    +0.000 A 
ATOM     12  C   UNL     1       6.200   3.558  12.756  0.00  0.00    +0.000 A 
ATOM     13  N   UNL     1       6.175   3.721  14.081  0.00  0.00    +0.000 NA
ENDROOT
BRANCH   1  14
ATOM     14  N   UNL     1       5.375   3.241  16.703  0.00  0.00    +0.000 N 
ATOM     15  H   UNL     1       5.349   2.812  15.771  0.00  0.00    +0.000 HD
BRANCH  14  20
ATOM     16  C   UNL     1       0.617   3.204  19.867  0.00  0.00    +0.000 C 
ATOM     17  C   UNL     1       1.819   3.164  18.977  0.00  0.00    +0.000 A 
ATOM     18  C   UNL     1       2.083   4.248  18.141  0.00  0.00    +0.000 A 
ATOM     19  C   UNL     1       3.224   4.250  17.348  0.00  0.00    +0.000 A 
ATOM     20  C   UNL     1       4.131   3.177  17.368  0.00  0.00    +0.000 A 
ATOM     21  C   UNL     1       3.816   2.054  18.123  0.00  0.00    +0.000 A 
ATOM     22  C   UNL     1       2.677   2.057  18.932  0.00  0.00    +0.000 A 
ENDBRANCH  14  20
ENDBRANCH   1  14
BRANCH  12  23
ATOM     23  O   UNL     1       5.424   2.532  12.302  0.00  0.00    +0.000 OA
ATOM     24  H   UNL     1       5.884   1.695  12.460  0.00  0.00    +0.000 HD
ENDBRANCH  12  23
TORSDOF 3
ENDMDL
MODEL 4
REMARK VINA RESULT:      -8.0      3.893      5.739
REMARK  Name = 
REMARK  6 active torsions:
REMARK  status: ('A' for Active; 'I' for Inactive)
REMARK    1  A    between atoms: C_1  and  C_2
REMARK    2  A    between atoms: C_5  and  N_6
REMARK    3  A    between atoms: N_6  and  C_7
REMARK    4  A    between atoms: C_9  and  C_10
REMARK    5  A    between atoms: C_15  and  C_16
REMARK    6  A    between atoms: C_18  and  O_19
REMARK                            x       y       z     vdW  Elec       q    Type
REMARK                         _______ _______ _______ _____ _____    ______ ____
ROOT
ATOM      1  C   UNL     1       6.339   4.326  16.955  0.00  0.00    +0.000 A 
ATOM      2  C   UNL     1       6.746   4.883  18.151  0.00  0.00    +0.000 A 
ATOM      3  C   UNL     1       7.463   6.036  17.802  0.00  0.00    +0.000 A 
ATOM      4  C   UNL     1       7.929   7.099  18.720  0.00  0.00    +0.000 C 
ATOM      5  N   UNL     1       7.658   6.123  16.484  0.00  0.00    +0.000 NA
ATOM      6  N   UNL     1       6.993   5.041  15.955  0.00  0.00    +0.000 N 
ATOM      7  C   UNL     1       6.963   4.787  14.539  0.00  0.00    +0.000 A 
ATOM      8  N   UNL     1       7.690   5.599  13.738  0.00  0.00    +0.000 NA
ATOM      9  C   UNL     1       7.681   5.348  12.418  0.00  0.00    +0.000 A 
ATOM     10  C   UNL     1       8.525   6.235  11.558  0.00  0.00    +0.000 C 
ATOM     11  C   UNL     1       6.948   4.317  11.869  0.00  0.00    +0.000 A 
ATOM     12  C   UNL     1       6.238   3.555  12.764  0.00  0.00    +0.000 A 
ATOM     13  N   UNL     1       6.226   3.747  14.084  0.00  0.00    +0.000 NA
ENDROOT
BRANCH   1  14
ATOM     14  N   UNL     1       5.470   3.307  16.726  0.00  0.00    +0.000 N 
ATOM     15  H   UNL     1       5.428   2.870  15.799  0.00  0.00    +0.000 HD
BRANCH  14  20
ATOM     16  C   UNL     1       0.297   2.697  19.077  0.00  0.00    +0.000 C 
ATOM     17  C   UNL     1       1.674   2.909  18.532  0.00  0.00    +0.000 A 
ATOM     18  C   UNL     1       2.645   1.930  18.740  0.00  0.00    +0.000 A 
ATOM     19  C   UNL     1       3.914   2.087  18.194  0.00  0.00    +0.000 A 
ATOM     20  C   UNL     1       4.247   3.217  17.428  0.00  0.00    +0.000 A 
ATOM     21  C   UNL     1       3.312   4.238  17.308  0.00  0.00    +0.000 A 
ATOM     22  C   UNL     1       2.032   4.075  17.843  0.00  0.00    +0.000 A 
ENDBRANCH  14  20
ENDBRANCH   1  14
BRANCH  12  23
ATOM     23  O   UNL     1       5.479   2.503  12.342  0.00  0.00    +0.000 OA
ATOM     24  H   UNL     1       5.984   1.989  11.696  0.00  0.00    +0.000 HD
ENDBRANCH  12  23
TORSDOF 3
ENDMDL
MODEL 5
REMARK VINA RESULT:      -8.0      0.261      1.057
REMARK  Name = 
REMARK  6 active torsions:
REMARK  status: ('A' for Active; 'I' for Inactive)
REMARK    1  A    between atoms: C_1  and  C_2
REMARK    2  A    between atoms: C_5  and  N_6
REMARK    3  A    between atoms: N_6  and  C_7
REMARK    4  A    between atoms: C_9  and  C_10
REMARK    5  A    between atoms: C_15  and  C_16
REMARK    6  A    between atoms: C_18  and  O_19
REMARK                            x       y       z     vdW  Elec       q    Type
REMARK                         _______ _______ _______ _____ _____    ______ ____
ROOT
ATOM      1  C   UNL     1       2.510   5.229  19.028  0.00  0.00    +0.000 A 
ATOM      2  C   UNL     1       1.408   4.469  19.368  0.00  0.00    +0.000 A 
ATOM      3  C   UNL     1       1.541   3.274  18.648  0.00  0.00    +0.000 A 
ATOM      4  C   UNL     1       0.736   2.044  18.819  0.00  0.00    +0.000 C 
ATOM      5  N   UNL     1       2.552   3.325  17.777  0.00  0.00    +0.000 NA
ATOM      6  N   UNL     1       3.134   4.554  17.983  0.00  0.00    +0.000 N 
ATOM      7  C   UNL     1       4.280   4.987  17.226  0.00  0.00    +0.000 A 
ATOM      8  N   UNL     1       4.720   4.181  16.233  0.00  0.00    +0.000 NA
ATOM      9  C   UNL     1       5.775   4.596  15.512  0.00  0.00    +0.000 A 
ATOM     10  C   UNL     1       6.217   3.706  14.393  0.00  0.00    +0.000 C 
ATOM     11  C   UNL     1       6.419   5.788  15.767  0.00  0.00    +0.000 A 
ATOM     12  C   UNL     1       5.902   6.530  16.800  0.00  0.00    +0.000 A 
ATOM     13  N   UNL     1       4.846   6.177  17.536  0.00  0.00    +0.000 NA
ENDROOT
BRANCH   1  14
ATOM     14  N   UNL     1       2.961   6.389  19.572  0.00  0.00    +0.000 N 
ATOM     15  H   UNL     1       3.589   6.362  20.383  0.00  0.00    +0.000 HD
BRANCH  14  20
ATOM     16  C   UNL     1       0.329  11.461  19.534  0.00  0.00    +0.000 C 
ATOM     17  C   UNL     1       0.938  10.094  19.533  0.00  0.00    +0.000 A 
ATOM     18  C   UNL     1       1.503   9.602  18.358  0.00  0.00    +0.000 A 
ATOM     19  C   UNL     1       2.120   8.357  18.354  0.00  0.00    +0.000 A 
ATOM     20  C   UNL     1       2.191   7.571  19.517  0.00  0.00    +0.000 A 
ATOM     21  C   UNL     1       1.539   8.017  20.661  0.00  0.00    +0.000 A 
ATOM     22  C   UNL     1       0.932   9.275  20.670  0.00  0.00    +0.000 A 
ENDBRANCH  14  20
ENDBRANCH   1  14
BRANCH  12  23
ATOM     23  O   UNL     1       6.450   7.730  17.144  0.00  0.00    +0.000 OA
ATOM     24  H   UNL     1       6.369   8.340  16.397  0.00  0.00    +0.000 HD
ENDBRANCH  12  23
TORSDOF 3
ENDMDL
MODEL 6
REMARK VINA RESULT:      -7.7      2.303      6.544
REMARK  Name = 
REMARK  6 active torsions:
REMARK  status: ('A' for Active; 'I' for Inactive)
REMARK    1  A    between atoms: C_1  and  C_2
REMARK    2  A    between atoms: C_5  and  N_6
REMARK    3  A    between atoms: N_6  and  C_7
REMARK    4  A    between atoms: C_9  and  C_10
REMARK    5  A    between atoms: C_15  and  C_16
REMARK    6  A    between atoms: C_18  and  O_19
REMARK                            x       y       z     vdW  Elec       q    Type
REMARK                         _______ _______ _______ _____ _____    ______ ____
ROOT
ATOM      1  C   UNL     1       4.270   6.096  17.868  0.00  0.00    +0.000 A 
ATOM      2  C   UNL     1       3.799   7.293  17.365  0.00  0.00    +0.000 A 
ATOM      3  C   UNL     1       2.726   7.650  18.193  0.00  0.00    +0.000 A 
ATOM      4  C   UNL     1       2.015   8.948  18.210  0.00  0.00    +0.000 C 
ATOM      5  N   UNL     1       2.413   6.677  19.053  0.00  0.00    +0.000 NA
ATOM      6  N   UNL     1       3.347   5.693  18.829  0.00  0.00    +0.000 N 
ATOM      7  C   UNL     1       3.349   4.464  19.578  0.00  0.00    +0.000 A 
ATOM      8  N   UNL     1       2.341   4.260  20.457  0.00  0.00    +0.000 NA
ATOM      9  C   UNL     1       2.330   3.103  21.139  0.00  0.00    +0.000 A 
ATOM     10  C   UNL     1       1.183   2.884  22.075  0.00  0.00    +0.000 C 
ATOM     11  C   UNL     1       3.310   2.146  20.983  0.00  0.00    +0.000 A 
ATOM     12  C   UNL     1       4.294   2.450  20.074  0.00  0.00    +0.000 A 
ATOM     13  N   UNL     1       4.344   3.573  19.356  0.00  0.00    +0.000 NA
ENDROOT
BRANCH   1  14
ATOM     14  N   UNL     1       5.400   5.412  17.553  0.00  0.00    +0.000 N 
ATOM     15  H   UNL     1       6.230   5.492  18.152  0.00  0.00    +0.000 HD
BRANCH  14  20
ATOM     16  C   UNL     1       6.935   3.678  12.328  0.00  0.00    +0.000 C 
ATOM     17  C   UNL     1       6.517   4.213  13.661  0.00  0.00    +0.000 A 
ATOM     18  C   UNL     1       5.220   3.974  14.114  0.00  0.00    +0.000 A 
ATOM     19  C   UNL     1       4.833   4.418  15.372  0.00  0.00    +0.000 A 
ATOM     20  C   UNL     1       5.723   5.108  16.212  0.00  0.00    +0.000 A 
ATOM     21  C   UNL     1       6.981   5.436  15.720  0.00  0.00    +0.000 A 
ATOM     22  C   UNL     1       7.377   4.977  14.461  0.00  0.00    +0.000 A 
ENDBRANCH  14  20
ENDBRANCH   1  14
BRANCH  12  23
ATOM     23  O   UNL     1       5.315   1.580  19.829  0.00  0.00    +0.000 OA
ATOM     24  H   UNL     1       4.946   0.704  19.646  0.00  0.00    +0.000 HD
ENDBRANCH  12  23
TORSDOF 3
ENDMDL
MODEL 7
REMARK VINA RESULT:      -7.3      1.845      6.120
REMARK  Name = 
REMARK  6 active torsions:
REMARK  status: ('A' for Active; 'I' for Inactive)
REMARK    1  A    between atoms: C_1  and  C_2
REMARK    2  A    between atoms: C_5  and  N_6
REMARK    3  A    between atoms: N_6  and  C_7
REMARK    4  A    between atoms: C_9  and  C_10
REMARK    5  A    between atoms: C_15  and  C_16
REMARK    6  A    between atoms: C_18  and  O_19
REMARK                            x       y       z     vdW  Elec       q    Type
REMARK                         _______ _______ _______ _____ _____    ______ ____
ROOT
ATOM      1  C   UNL     1       2.636   5.039  19.022  0.00  0.00    +0.000 A 
ATOM      2  C   UNL     1       2.909   3.823  19.616  0.00  0.00    +0.000 A 
ATOM      3  C   UNL     1       2.352   3.899  20.899  0.00  0.00    +0.000 A 
ATOM      4  C   UNL     1       2.185   2.785  21.859  0.00  0.00    +0.000 C 
ATOM      5  N   UNL     1       1.910   5.127  21.180  0.00  0.00    +0.000 NA
ATOM      6  N   UNL     1       2.120   5.851  20.029  0.00  0.00    +0.000 N 
ATOM      7  C   UNL     1       1.761   7.241  19.930  0.00  0.00    +0.000 A 
ATOM      8  N   UNL     1       1.289   7.850  21.041  0.00  0.00    +0.000 NA
ATOM      9  C   UNL     1       0.976   9.154  20.956  0.00  0.00    +0.000 A 
ATOM     10  C   UNL     1       0.495   9.815  22.209  0.00  0.00    +0.000 C 
ATOM     11  C   UNL     1       1.102   9.866  19.782  0.00  0.00    +0.000 A 
ATOM     12  C   UNL     1       1.582   9.157  18.709  0.00  0.00    +0.000 A 
ATOM     13  N   UNL     1       1.926   7.868  18.742  0.00  0.00    +0.000 NA
ENDROOT
BRANCH   1  14
ATOM     14  N   UNL     1       2.794   5.425  17.729  0.00  0.00    +0.000 N 
ATOM     15  H   UNL     1       1.993   5.403  17.089  0.00  0.00    +0.000 HD
BRANCH  14  20
ATOM     16  C   UNL     1       7.497   4.874  14.530  0.00  0.00    +0.000 C 
ATOM     17  C   UNL     1       6.313   4.987  15.438  0.00  0.00    +0.000 A 
ATOM     18  C   UNL     1       6.003   6.225  16.000  0.00  0.00    +0.000 A 
ATOM     19  C   UNL     1       4.876   6.358  16.802  0.00  0.00    +0.000 A 
ATOM     20  C   UNL     1       4.029   5.267  17.063  0.00  0.00    +0.000 A 
ATOM     21  C   UNL     1       4.395   4.014  16.587  0.00  0.00    +0.000 A 
ATOM     22  C   UNL     1       5.518   3.881  15.769  0.00  0.00    +0.000 A 
ENDBRANCH  14  20
ENDBRANCH   1  14
BRANCH  12  23
ATOM     23  O   UNL     1       1.755   9.754  17.495  0.00  0.00    +0.000 OA
ATOM     24  H   UNL     1       1.630   9.094  16.798  0.00  0.00    +0.000 HD
ENDBRANCH  12  23
TORSDOF 3
ENDMDL
MODEL 8
REMARK VINA RESULT:      -7.3      3.442      6.886
REMARK  Name = 
REMARK  6 active torsions:
REMARK  status: ('A' for Active; 'I' for Inactive)
REMARK    1  A    between atoms: C_1  and  C_2
REMARK    2  A    between atoms: C_5  and  N_6
REMARK    3  A    between atoms: N_6  and  C_7
REMARK    4  A    between atoms: C_9  and  C_10
REMARK    5  A    between atoms: C_15  and  C_16
REMARK    6  A    between atoms: C_18  and  O_19
REMARK                            x       y       z     vdW  Elec       q    Type
REMARK                         _______ _______ _______ _____ _____    ______ ____
ROOT
ATOM      1  C   UNL     1       5.742   5.708  17.681  0.00  0.00    +0.000 A 
ATOM      2  C   UNL     1       7.001   6.127  18.060  0.00  0.00    +0.000 A 
ATOM      3  C   UNL     1       7.202   5.598  19.342  0.00  0.00    +0.000 A 
ATOM      4  C   UNL     1       8.472   5.579  20.102  0.00  0.00    +0.000 C 
ATOM      5  N   UNL     1       6.095   5.032  19.828  0.00  0.00    +0.000 NA
ATOM      6  N   UNL     1       5.172   5.132  18.813  0.00  0.00    +0.000 N 
ATOM      7  C   UNL     1       3.833   4.620  18.952  0.00  0.00    +0.000 A 
ATOM      8  N   UNL     1       3.474   4.114  20.153  0.00  0.00    +0.000 NA
ATOM      9  C   UNL     1       2.218   3.658  20.290  0.00  0.00    +0.000 A 
ATOM     10  C   UNL     1       1.832   3.140  21.640  0.00  0.00    +0.000 C 
ATOM     11  C   UNL     1       1.311   3.675  19.252  0.00  0.00    +0.000 A 
ATOM     12  C   UNL     1       1.773   4.202  18.071  0.00  0.00    +0.000 A 
ATOM     13  N   UNL     1       3.003   4.686  17.885  0.00  0.00    +0.000 NA
ENDROOT
BRANCH   1  14
ATOM     14  N   UNL     1       5.131   5.789  16.470  0.00  0.00    +0.000 N 
ATOM     15  H   UNL     1       4.117   5.940  16.419  0.00  0.00    +0.000 HD
BRANCH  14  20
ATOM     16  C   UNL     1       6.962   3.438  11.594  0.00  0.00    +0.000 C 
ATOM     17  C   UNL     1       6.502   3.976  12.912  0.00  0.00    +0.000 A 
ATOM     18  C   UNL     1       7.366   4.777  13.659  0.00  0.00    +0.000 A 
ATOM     19  C   UNL     1       6.935   5.328  14.859  0.00  0.00    +0.000 A 
ATOM     20  C   UNL     1       5.637   5.100  15.347  0.00  0.00    +0.000 A 
ATOM     21  C   UNL     1       4.813   4.221  14.655  0.00  0.00    +0.000 A 
ATOM     22  C   UNL     1       5.239   3.678  13.441  0.00  0.00    +0.000 A 
ENDBRANCH  14  20
ENDBRANCH   1  14
BRANCH  12  23
ATOM     23  O   UNL     1       0.967   4.278  16.973  0.00  0.00    +0.000 OA
ATOM     24  H   UNL     1       1.440   4.742  16.266  0.00  0.00    +0.000 HD
ENDBRANCH  12  23
TORSDOF 3
ENDMDL
MODEL 9
REMARK VINA RESULT:      -7.0      3.469      6.832
REMARK  Name = 
REMARK  6 active torsions:
REMARK  status: ('A' for Active; 'I' for Inactive)
REMARK    1  A    between atoms: C_1  and  C_2
REMARK    2  A    between atoms: C_5  and  N_6
REMARK    3  A    between atoms: N_6  and  C_7
REMARK    4  A    between atoms: C_9  and  C_10
REMARK    5  A    between atoms: C_15  and  C_16
REMARK    6  A    between atoms: C_18  and  O_19
REMARK                            x       y       z     vdW  Elec       q    Type
REMARK                         _______ _______ _______ _____ _____    ______ ____
ROOT
ATOM      1  C   UNL     1       5.668   5.777  17.636  0.00  0.00    +0.000 A 
ATOM      2  C   UNL     1       6.933   6.197  17.995  0.00  0.00    +0.000 A 
ATOM      3  C   UNL     1       7.197   5.579  19.226  0.00  0.00    +0.000 A 
ATOM      4  C   UNL     1       8.497   5.534  19.932  0.00  0.00    +0.000 C 
ATOM      5  N   UNL     1       6.123   4.954  19.711  0.00  0.00    +0.000 NA
ATOM      6  N   UNL     1       5.157   5.106  18.744  0.00  0.00    +0.000 N 
ATOM      7  C   UNL     1       3.836   4.555  18.896  0.00  0.00    +0.000 A 
ATOM      8  N   UNL     1       3.536   3.953  20.070  0.00  0.00    +0.000 NA
ATOM      9  C   UNL     1       2.296   3.459  20.221  0.00  0.00    +0.000 A 
ATOM     10  C   UNL     1       1.977   2.835  21.543  0.00  0.00    +0.000 C 
ATOM     11  C   UNL     1       1.347   3.532  19.224  0.00  0.00    +0.000 A 
ATOM     12  C   UNL     1       1.750   4.155  18.068  0.00  0.00    +0.000 A 
ATOM     13  N   UNL     1       2.961   4.680  17.871  0.00  0.00    +0.000 NA
ENDROOT
BRANCH   1  14
ATOM     14  N   UNL     1       5.007   5.933  16.460  0.00  0.00    +0.000 N 
ATOM     15  H   UNL     1       3.988   6.053  16.459  0.00  0.00    +0.000 HD
BRANCH  14  20
ATOM     16  C   UNL     1       7.186   3.154  11.968  0.00  0.00    +0.000 C 
ATOM     17  C   UNL     1       6.599   3.951  13.089  0.00  0.00    +0.000 A 
ATOM     18  C   UNL     1       5.273   3.731  13.459  0.00  0.00    +0.000 A 
ATOM     19  C   UNL     1       4.729   4.425  14.533  0.00  0.00    +0.000 A 
ATOM     20  C   UNL     1       5.489   5.352  15.266  0.00  0.00    +0.000 A 
ATOM     21  C   UNL     1       6.776   5.646  14.834  0.00  0.00    +0.000 A 
ATOM     22  C   UNL     1       7.329   4.939  13.764  0.00  0.00    +0.000 A 
ENDBRANCH  14  20
ENDBRANCH   1  14
BRANCH  12  23
ATOM     23  O   UNL     1       0.899   4.293  17.012  0.00  0.00    +0.000 OA
ATOM     24  H   UNL     1       0.557   5.198  16.998  0.00  0.00    +0.000 HD
ENDBRANCH  12  23
TORSDOF 3
ENDMDL
