MODEL 1
REMARK VINA RESULT:      -7.8      0.000      0.000
REMARK  Name = 
REMARK  9 active torsions:
REMARK  status: ('A' for Active; 'I' for Inactive)
REMARK    1  A    between atoms: C_2  and  C_3
REMARK    2  A    between atoms: C_3  and  N_4
REMARK    3  A    between atoms: C_7  and  C_8
REMARK    4  A    between atoms: C_8  and  O_10
REMARK    5  A    between atoms: O_10  and  C_11
REMARK    6  A    between atoms: C_11  and  C_12
REMARK    7  A    between atoms: N_14  and  C_15
REMARK    8  A    between atoms: C_17  and  S_18
REMARK    9  A    between atoms: S_18  and  C_19
REMARK                            x       y       z     vdW  Elec       q    Type
REMARK                         _______ _______ _______ _____ _____    ______ ____
ROOT
ATOM      1  C   UNL     1       2.100   6.000  20.464  0.00  0.00    +0.000 C 
ATOM      2  O   UNL     1       2.273   4.945  21.073  0.00  0.00    +0.000 OA
ATOM      3  N   UNL     1       2.682   6.342  19.258  0.00  0.00    +0.000 N 
ATOM      4  H   UNL     1       2.725   7.340  19.029  0.00  0.00    +0.000 HD
ENDROOT
BRANCH   3   5
ATOM      5  C   UNL     1       3.450   5.484  18.434  0.00  0.00    +0.000 A 
ATOM      6  C   UNL     1       4.829   5.654  18.289  0.00  0.00    +0.000 A 
ATOM      7  C   UNL     1       5.559   4.816  17.445  0.00  0.00    +0.000 A 
ATOM      8  C   UNL     1       4.941   3.767  16.766  0.00  0.00    +0.000 A 
ATOM      9  C   UNL     1       3.570   3.563  16.935  0.00  0.00    +0.000 A 
ATOM     10  C   UNL     1       2.830   4.414  17.764  0.00  0.00    +0.000 A 
ATOM     11 CL   UNL     1       1.133   4.119  17.920  0.00  0.00    +0.000 Cl
BRANCH   7  12
ATOM     12  S   UNL     1       7.303   5.105  17.275  0.00  0.00    +0.000 S 
ATOM     13  C   UNL     1       7.481   6.865  17.431  0.00  0.00    +0.000 C 
ATOM     14  O   UNL     1       7.943   4.471  18.410  0.00  0.00    +0.000 OA
ATOM     15  O   UNL     1       7.670   4.750  15.917  0.00  0.00    +0.000 OA
ENDBRANCH   7  12
ENDBRANCH   3   5
BRANCH   1  16
ATOM     16  C   UNL     1       1.185   7.078  21.034  0.00  0.00    +0.000 C 
BRANCH  16  17
ATOM     17  O   UNL     1       1.536   8.401  20.657  0.00  0.00    +0.000 OA
BRANCH  17  18
ATOM     18  C   UNL     1       0.980   9.399  21.408  0.00  0.00    +0.000 C 
ATOM     19  O   UNL     1       1.226   9.563  22.596  0.00  0.00    +0.000 OA
BRANCH  18  23
ATOM     20  N   UNL     1      -1.402  10.804  17.473  0.00  0.00    +0.000 N 
ATOM     21  C   UNL     1      -0.972  10.872  18.750  0.00  0.00    +0.000 A 
ATOM     22  N   UNL     1      -0.008  10.108  19.213  0.00  0.00    +0.000 NA
ATOM     23  C   UNL     1       0.141  10.277  20.588  0.00  0.00    +0.000 A 
ATOM     24  C   UNL     1      -0.623  11.304  21.112  0.00  0.00    +0.000 A 
ATOM     25  S   UNL     1      -1.634  11.964  19.917  0.00  0.00    +0.000 S 
ATOM     26  H   UNL     1      -0.684  10.740  16.759  0.00  0.00    +0.000 HD
BRANCH  20  27
ATOM     27  C   UNL     1      -2.669  11.363  17.068  0.00  0.00    +0.000 C 
BRANCH  27  29
ATOM     28  C   UNL     1      -2.880   9.966  14.998  0.00  0.00    +0.000 C 
ATOM     29  C   UNL     1      -3.357  10.374  16.181  0.00  0.00    +0.000 C 
ENDBRANCH  27  29
ENDBRANCH  20  27
ENDBRANCH  18  23
ENDBRANCH  17  18
ENDBRANCH  16  17
ENDBRANCH   1  16
TORSDOF 8
ENDMDL
MODEL 2
REMARK VINA RESULT:      -7.7      3.125      8.324
REMARK  Name = 
REMARK  9 active torsions:
REMARK  status: ('A' for Active; 'I' for Inactive)
REMARK    1  A    between atoms: C_2  and  C_3
REMARK    2  A    between atoms: C_3  and  N_4
REMARK    3  A    between atoms: C_7  and  C_8
REMARK    4  A    between atoms: C_8  and  O_10
REMARK    5  A    between atoms: O_10  and  C_11
REMARK    6  A    between atoms: C_11  and  C_12
REMARK    7  A    between atoms: N_14  and  C_15
REMARK    8  A    between atoms: C_17  and  S_18
REMARK    9  A    between atoms: S_18  and  C_19
REMARK                            x       y       z     vdW  Elec       q    Type
REMARK                         _______ _______ _______ _____ _____    ______ ____
ROOT
ATOM      1  C   UNL     1       2.628   4.854  19.629  0.00  0.00    +0.000 C 
ATOM      2  O   UNL     1       1.466   4.560  19.354  0.00  0.00    +0.000 OA
ATOM      3  N   UNL     1       3.130   6.137  19.753  0.00  0.00    +0.000 N 
ATOM      4  H   UNL     1       4.143   6.251  19.654  0.00  0.00    +0.000 HD
ENDROOT
BRANCH   3   5
ATOM      5  C   UNL     1       2.368   7.330  19.745  0.00  0.00    +0.000 A 
ATOM      6  C   UNL     1       1.682   7.766  20.881  0.00  0.00    +0.000 A 
ATOM      7  C   UNL     1       0.910   8.927  20.839  0.00  0.00    +0.000 A 
ATOM      8  C   UNL     1       0.841   9.700  19.681  0.00  0.00    +0.000 A 
ATOM      9  C   UNL     1       1.554   9.295  18.550  0.00  0.00    +0.000 A 
ATOM     10  C   UNL     1       2.313   8.120  18.582  0.00  0.00    +0.000 A 
ATOM     11 CL   UNL     1       3.161   7.664  17.146  0.00  0.00    +0.000 Cl
BRANCH   7  12
ATOM     12  S   UNL     1       0.034   9.410  22.306  0.00  0.00    +0.000 S 
ATOM     13  C   UNL     1      -0.692  10.978  21.897  0.00  0.00    +0.000 C 
ATOM     14  O   UNL     1      -1.028   8.442  22.494  0.00  0.00    +0.000 OA
ATOM     15  O   UNL     1       1.021   9.645  23.342  0.00  0.00    +0.000 OA
ENDBRANCH   7  12
ENDBRANCH   3   5
BRANCH   1  16
ATOM     16  C   UNL     1       3.667   3.762  19.854  0.00  0.00    +0.000 C 
BRANCH  16  17
ATOM     17  O   UNL     1       4.555   3.566  18.764  0.00  0.00    +0.000 OA
BRANCH  17  18
ATOM     18  C   UNL     1       5.584   4.461  18.669  0.00  0.00    +0.000 C 
ATOM     19  O   UNL     1       6.063   5.040  19.636  0.00  0.00    +0.000 OA
BRANCH  18  23
ATOM     20  N   UNL     1       6.074   3.174  14.061  0.00  0.00    +0.000 N 
ATOM     21  C   UNL     1       6.254   3.937  15.158  0.00  0.00    +0.000 A 
ATOM     22  N   UNL     1       5.927   3.529  16.365  0.00  0.00    +0.000 NA
ATOM     23  C   UNL     1       6.081   4.556  17.294  0.00  0.00    +0.000 A 
ATOM     24  C   UNL     1       6.684   5.690  16.780  0.00  0.00    +0.000 A 
ATOM     25  S   UNL     1       6.929   5.529  15.107  0.00  0.00    +0.000 S 
ATOM     26  H   UNL     1       6.339   2.198  14.142  0.00  0.00    +0.000 HD
BRANCH  20  27
ATOM     27  C   UNL     1       6.088   3.739  12.733  0.00  0.00    +0.000 C 
BRANCH  27  29
ATOM     28  C   UNL     1       4.136   3.247  11.239  0.00  0.00    +0.000 C 
ATOM     29  C   UNL     1       5.269   2.861  11.840  0.00  0.00    +0.000 C 
ENDBRANCH  27  29
ENDBRANCH  20  27
ENDBRANCH  18  23
ENDBRANCH  17  18
ENDBRANCH  16  17
ENDBRANCH   1  16
TORSDOF 8
ENDMDL
MODEL 3
REMARK VINA RESULT:      -7.6      2.291      2.773
REMARK  Name = 
REMARK  9 active torsions:
REMARK  status: ('A' for Active; 'I' for Inactive)
REMARK    1  A    between atoms: C_2  and  C_3
REMARK    2  A    between atoms: C_3  and  N_4
REMARK    3  A    between atoms: C_7  and  C_8
REMARK    4  A    between atoms: C_8  and  O_10
REMARK    5  A    between atoms: O_10  and  C_11
REMARK    6  A    between atoms: C_11  and  C_12
REMARK    7  A    between atoms: N_14  and  C_15
REMARK    8  A    between atoms: C_17  and  S_18
REMARK    9  A    between atoms: S_18  and  C_19
REMARK                            x       y       z     vdW  Elec       q    Type
REMARK                         _______ _______ _______ _____ _____    ______ ____
ROOT
ATOM      1  C   UNL     1       2.281   8.099  18.273  0.00  0.00    +0.000 C 
ATOM      2  O   UNL     1       2.542   8.485  17.136  0.00  0.00    +0.000 OA
ATOM      3  N   UNL     1       2.630   6.874  18.812  0.00  0.00    +0.000 N 
ATOM      4  H   UNL     1       2.086   6.548  19.617  0.00  0.00    +0.000 HD
ENDROOT
BRANCH   3   5
ATOM      5  C   UNL     1       3.482   5.916  18.211  0.00  0.00    +0.000 A 
ATOM      6  C   UNL     1       4.864   6.105  18.150  0.00  0.00    +0.000 A 
ATOM      7  C   UNL     1       5.680   5.163  17.522  0.00  0.00    +0.000 A 
ATOM      8  C   UNL     1       5.142   3.995  16.983  0.00  0.00    +0.000 A 
ATOM      9  C   UNL     1       3.766   3.777  17.073  0.00  0.00    +0.000 A 
ATOM     10  C   UNL     1       2.941   4.729  17.684  0.00  0.00    +0.000 A 
ATOM     11 CL   UNL     1       1.243   4.408  17.750  0.00  0.00    +0.000 Cl
BRANCH   7  12
ATOM     12  S   UNL     1       7.426   5.477  17.446  0.00  0.00    +0.000 S 
ATOM     13  C   UNL     1       7.873   5.917  19.108  0.00  0.00    +0.000 C 
ATOM     14  O   UNL     1       8.062   4.219  17.112  0.00  0.00    +0.000 OA
ATOM     15  O   UNL     1       7.618   6.653  16.619  0.00  0.00    +0.000 OA
ENDBRANCH   7  12
ENDBRANCH   3   5
BRANCH   1  16
ATOM     16  C   UNL     1       1.495   8.990  19.229  0.00  0.00    +0.000 C 
BRANCH  16  17
ATOM     17  O   UNL     1       1.005  10.186  18.643  0.00  0.00    +0.000 OA
BRANCH  17  18
ATOM     18  C   UNL     1      -0.010  10.804  19.318  0.00  0.00    +0.000 C 
ATOM     19  O   UNL     1       0.156  11.425  20.360  0.00  0.00    +0.000 OA
BRANCH  18  23
ATOM     20  N   UNL     1      -4.511  11.990  18.104  0.00  0.00    +0.000 N 
ATOM     21  C   UNL     1      -3.351  11.304  18.038  0.00  0.00    +0.000 A 
ATOM     22  N   UNL     1      -2.425  11.390  18.967  0.00  0.00    +0.000 NA
ATOM     23  C   UNL     1      -1.276  10.699  18.588  0.00  0.00    +0.000 A 
ATOM     24  C   UNL     1      -1.425   9.960  17.428  0.00  0.00    +0.000 A 
ATOM     25  S   UNL     1      -2.950  10.241  16.734  0.00  0.00    +0.000 S 
ATOM     26  H   UNL     1      -4.974  12.006  19.006  0.00  0.00    +0.000 HD
BRANCH  20  27
ATOM     27  C   UNL     1      -5.347  12.180  16.943  0.00  0.00    +0.000 C 
BRANCH  27  29
ATOM     28  C   UNL     1      -7.319  12.689  18.404  0.00  0.00    +0.000 C 
ATOM     29  C   UNL     1      -6.543  12.981  17.352  0.00  0.00    +0.000 C 
ENDBRANCH  27  29
ENDBRANCH  20  27
ENDBRANCH  18  23
ENDBRANCH  17  18
ENDBRANCH  16  17
ENDBRANCH   1  16
TORSDOF 8
ENDMDL
MODEL 4
REMARK VINA RESULT:      -7.5      2.853      3.603
REMARK  Name = 
REMARK  9 active torsions:
REMARK  status: ('A' for Active; 'I' for Inactive)
REMARK    1  A    between atoms: C_2  and  C_3
REMARK    2  A    between atoms: C_3  and  N_4
REMARK    3  A    between atoms: C_7  and  C_8
REMARK    4  A    between atoms: C_8  and  O_10
REMARK    5  A    between atoms: O_10  and  C_11
REMARK    6  A    between atoms: C_11  and  C_12
REMARK    7  A    between atoms: N_14  and  C_15
REMARK    8  A    between atoms: C_17  and  S_18
REMARK    9  A    between atoms: S_18  and  C_19
REMARK                            x       y       z     vdW  Elec       q    Type
REMARK                         _______ _______ _______ _____ _____    ______ ____
ROOT
ATOM      1  C   UNL     1       0.912   8.326  21.315  0.00  0.00    +0.000 C 
ATOM      2  O   UNL     1      -0.201   7.828  21.155  0.00  0.00    +0.000 OA
ATOM      3  N   UNL     1       2.104   7.810  20.840  0.00  0.00    +0.000 N 
ATOM      4  H   UNL     1       2.962   8.119  21.306  0.00  0.00    +0.000 HD
ENDROOT
BRANCH   3   5
ATOM      5  C   UNL     1       2.239   6.713  19.955  0.00  0.00    +0.000 A 
ATOM      6  C   UNL     1       2.223   5.396  20.419  0.00  0.00    +0.000 A 
ATOM      7  C   UNL     1       2.391   4.332  19.533  0.00  0.00    +0.000 A 
ATOM      8  C   UNL     1       2.535   4.555  18.164  0.00  0.00    +0.000 A 
ATOM      9  C   UNL     1       2.513   5.867  17.684  0.00  0.00    +0.000 A 
ATOM     10  C   UNL     1       2.365   6.938  18.573  0.00  0.00    +0.000 A 
ATOM     11 CL   UNL     1       2.361   8.539  17.918  0.00  0.00    +0.000 Cl
BRANCH   7  12
ATOM     12  S   UNL     1       2.397   2.681  20.189  0.00  0.00    +0.000 S 
ATOM     13  C   UNL     1       1.350   2.767  21.621  0.00  0.00    +0.000 C 
ATOM     14  O   UNL     1       1.760   1.837  19.197  0.00  0.00    +0.000 OA
ATOM     15  O   UNL     1       3.744   2.404  20.650  0.00  0.00    +0.000 OA
ENDBRANCH   7  12
ENDBRANCH   3   5
BRANCH   1  16
ATOM     16  C   UNL     1       1.073   9.619  22.107  0.00  0.00    +0.000 C 
BRANCH  16  17
ATOM     17  O   UNL     1      -0.099  10.418  22.165  0.00  0.00    +0.000 OA
BRANCH  17  18
ATOM     18  C   UNL     1      -0.039  11.607  21.492  0.00  0.00    +0.000 C 
ATOM     19  O   UNL     1       0.701  12.527  21.818  0.00  0.00    +0.000 OA
BRANCH  18  23
ATOM     20  N   UNL     1      -1.590  10.088  17.200  0.00  0.00    +0.000 N 
ATOM     21  C   UNL     1      -1.596  10.830  18.326  0.00  0.00    +0.000 A 
ATOM     22  N   UNL     1      -0.577  10.864  19.157  0.00  0.00    +0.000 NA
ATOM     23  C   UNL     1      -0.895  11.589  20.303  0.00  0.00    +0.000 A 
ATOM     24  C   UNL     1      -2.118  12.231  20.237  0.00  0.00    +0.000 A 
ATOM     25  S   UNL     1      -2.933  11.817  18.806  0.00  0.00    +0.000 S 
ATOM     26  H   UNL     1      -0.740  10.112  16.648  0.00  0.00    +0.000 HD
BRANCH  20  27
ATOM     27  C   UNL     1      -2.809   9.768  16.496  0.00  0.00    +0.000 C 
BRANCH  27  29
ATOM     28  C   UNL     1      -3.184  10.025  14.031  0.00  0.00    +0.000 C 
ATOM     29  C   UNL     1      -2.828  10.540  15.215  0.00  0.00    +0.000 C 
ENDBRANCH  27  29
ENDBRANCH  20  27
ENDBRANCH  18  23
ENDBRANCH  17  18
ENDBRANCH  16  17
ENDBRANCH   1  16
TORSDOF 8
ENDMDL
MODEL 5
REMARK VINA RESULT:      -7.5      1.672      1.935
REMARK  Name = 
REMARK  9 active torsions:
REMARK  status: ('A' for Active; 'I' for Inactive)
REMARK    1  A    between atoms: C_2  and  C_3
REMARK    2  A    between atoms: C_3  and  N_4
REMARK    3  A    between atoms: C_7  and  C_8
REMARK    4  A    between atoms: C_8  and  O_10
REMARK    5  A    between atoms: O_10  and  C_11
REMARK    6  A    between atoms: C_11  and  C_12
REMARK    7  A    between atoms: N_14  and  C_15
REMARK    8  A    between atoms: C_17  and  S_18
REMARK    9  A    between atoms: S_18  and  C_19
REMARK                            x       y       z     vdW  Elec       q    Type
REMARK                         _______ _______ _______ _____ _____    ______ ____
ROOT
ATOM      1  C   UNL     1       1.767   7.196  20.403  0.00  0.00    +0.000 C 
ATOM      2  O   UNL     1       2.183   7.661  19.344  0.00  0.00    +0.000 OA
ATOM      3  N   UNL     1       2.002   5.916  20.873  0.00  0.00    +0.000 N 
ATOM      4  H   UNL     1       1.350   5.551  21.573  0.00  0.00    +0.000 HD
ENDROOT
BRANCH   3   5
ATOM      5  C   UNL     1       2.889   4.973  20.299  0.00  0.00    +0.000 A 
ATOM      6  C   UNL     1       3.976   5.373  19.520  0.00  0.00    +0.000 A 
ATOM      7  C   UNL     1       4.817   4.424  18.938  0.00  0.00    +0.000 A 
ATOM      8  C   UNL     1       4.618   3.062  19.155  0.00  0.00    +0.000 A 
ATOM      9  C   UNL     1       3.557   2.651  19.965  0.00  0.00    +0.000 A 
ATOM     10  C   UNL     1       2.700   3.599  20.534  0.00  0.00    +0.000 A 
ATOM     11 CL   UNL     1       1.395   3.026  21.515  0.00  0.00    +0.000 Cl
BRANCH   7  12
ATOM     12  S   UNL     1       6.161   4.996  17.928  0.00  0.00    +0.000 S 
ATOM     13  C   UNL     1       5.887   4.236  16.347  0.00  0.00    +0.000 C 
ATOM     14  O   UNL     1       5.998   6.429  17.790  0.00  0.00    +0.000 OA
ATOM     15  O   UNL     1       7.382   4.434  18.475  0.00  0.00    +0.000 OA
ENDBRANCH   7  12
ENDBRANCH   3   5
BRANCH   1  16
ATOM     16  C   UNL     1       0.898   8.041  21.329  0.00  0.00    +0.000 C 
BRANCH  16  17
ATOM     17  O   UNL     1       1.223   9.423  21.335  0.00  0.00    +0.000 OA
BRANCH  17  18
ATOM     18  C   UNL     1       0.247  10.259  21.798  0.00  0.00    +0.000 C 
ATOM     19  O   UNL     1       0.063  10.484  22.988  0.00  0.00    +0.000 OA
BRANCH  18  23
ATOM     20  N   UNL     1      -1.381  10.766  17.301  0.00  0.00    +0.000 N 
ATOM     21  C   UNL     1      -1.227  11.079  18.604  0.00  0.00    +0.000 A 
ATOM     22  N   UNL     1      -0.323  10.504  19.367  0.00  0.00    +0.000 NA
ATOM     23  C   UNL     1      -0.470  10.903  20.695  0.00  0.00    +0.000 A 
ATOM     24  C   UNL     1      -1.399  11.912  20.877  0.00  0.00    +0.000 A 
ATOM     25  S   UNL     1      -2.191  12.264  19.416  0.00  0.00    +0.000 S 
ATOM     26  H   UNL     1      -0.531  10.667  16.757  0.00  0.00    +0.000 HD
BRANCH  20  27
ATOM     27  C   UNL     1      -2.577  11.116  16.573  0.00  0.00    +0.000 C 
BRANCH  27  29
ATOM     28  C   UNL     1      -3.079  10.020  14.376  0.00  0.00    +0.000 C 
ATOM     29  C   UNL     1      -2.957   9.956  15.708  0.00  0.00    +0.000 C 
ENDBRANCH  27  29
ENDBRANCH  20  27
ENDBRANCH  18  23
ENDBRANCH  17  18
ENDBRANCH  16  17
ENDBRANCH   1  16
TORSDOF 8
ENDMDL
MODEL 6
REMARK VINA RESULT:      -7.5      1.241      1.509
REMARK  Name = 
REMARK  9 active torsions:
REMARK  status: ('A' for Active; 'I' for Inactive)
REMARK    1  A    between atoms: C_2  and  C_3
REMARK    2  A    between atoms: C_3  and  N_4
REMARK    3  A    between atoms: C_7  and  C_8
REMARK    4  A    between atoms: C_8  and  O_10
REMARK    5  A    between atoms: O_10  and  C_11
REMARK    6  A    between atoms: C_11  and  C_12
REMARK    7  A    between atoms: N_14  and  C_15
REMARK    8  A    between atoms: C_17  and  S_18
REMARK    9  A    between atoms: S_18  and  C_19
REMARK                            x       y       z     vdW  Elec       q    Type
REMARK                         _______ _______ _______ _____ _____    ______ ____
ROOT
ATOM      1  C   UNL     1       2.219   7.302  19.772  0.00  0.00    +0.000 C 
ATOM      2  O   UNL     1       2.053   7.882  18.701  0.00  0.00    +0.000 OA
ATOM      3  N   UNL     1       2.836   6.075  19.940  0.00  0.00    +0.000 N 
ATOM      4  H   UNL     1       2.621   5.561  20.800  0.00  0.00    +0.000 HD
ENDROOT
BRANCH   3   5
ATOM      5  C   UNL     1       3.523   5.348  18.938  0.00  0.00    +0.000 A 
ATOM      6  C   UNL     1       4.881   5.553  18.690  0.00  0.00    +0.000 A 
ATOM      7  C   UNL     1       5.529   4.849  17.675  0.00  0.00    +0.000 A 
ATOM      8  C   UNL     1       4.849   3.896  16.917  0.00  0.00    +0.000 A 
ATOM      9  C   UNL     1       3.500   3.654  17.183  0.00  0.00    +0.000 A 
ATOM     10  C   UNL     1       2.842   4.374  18.187  0.00  0.00    +0.000 A 
ATOM     11 CL   UNL     1       1.167   4.038  18.458  0.00  0.00    +0.000 Cl
BRANCH   7  12
ATOM     12  S   UNL     1       7.250   5.181  17.384  0.00  0.00    +0.000 S 
ATOM     13  C   UNL     1       7.409   6.936  17.603  0.00  0.00    +0.000 C 
ATOM     14  O   UNL     1       7.986   4.512  18.438  0.00  0.00    +0.000 OA
ATOM     15  O   UNL     1       7.516   4.891  15.988  0.00  0.00    +0.000 OA
ENDBRANCH   7  12
ENDBRANCH   3   5
BRANCH   1  16
ATOM     16  C   UNL     1       1.718   7.921  21.072  0.00  0.00    +0.000 C 
BRANCH  16  17
ATOM     17  O   UNL     1       0.494   8.632  20.946  0.00  0.00    +0.000 OA
BRANCH  17  18
ATOM     18  C   UNL     1       0.590   9.993  21.017  0.00  0.00    +0.000 C 
ATOM     19  O   UNL     1       1.248  10.578  21.868  0.00  0.00    +0.000 OA
BRANCH  18  23
ATOM     20  N   UNL     1      -2.747  10.433  17.581  0.00  0.00    +0.000 N 
ATOM     21  C   UNL     1      -1.699  10.807  18.343  0.00  0.00    +0.000 A 
ATOM     22  N   UNL     1      -1.056   9.965  19.123  0.00  0.00    +0.000 NA
ATOM     23  C   UNL     1      -0.114  10.634  19.903  0.00  0.00    +0.000 A 
ATOM     24  C   UNL     1       0.044  11.967  19.569  0.00  0.00    +0.000 A 
ATOM     25  S   UNL     1      -1.082  12.422  18.381  0.00  0.00    +0.000 S 
ATOM     26  H   UNL     1      -2.651   9.555  17.082  0.00  0.00    +0.000 HD
BRANCH  20  27
ATOM     27  C   UNL     1      -3.661  11.399  17.021  0.00  0.00    +0.000 C 
BRANCH  27  29
ATOM     28  C   UNL     1      -6.051  11.876  17.603  0.00  0.00    +0.000 C 
ATOM     29  C   UNL     1      -4.799  11.578  17.974  0.00  0.00    +0.000 C 
ENDBRANCH  27  29
ENDBRANCH  20  27
ENDBRANCH  18  23
ENDBRANCH  17  18
ENDBRANCH  16  17
ENDBRANCH   1  16
TORSDOF 8
ENDMDL
MODEL 7
REMARK VINA RESULT:      -7.4      1.372      1.470
REMARK  Name = 
REMARK  9 active torsions:
REMARK  status: ('A' for Active; 'I' for Inactive)
REMARK    1  A    between atoms: C_2  and  C_3
REMARK    2  A    between atoms: C_3  and  N_4
REMARK    3  A    between atoms: C_7  and  C_8
REMARK    4  A    between atoms: C_8  and  O_10
REMARK    5  A    between atoms: O_10  and  C_11
REMARK    6  A    between atoms: C_11  and  C_12
REMARK    7  A    between atoms: N_14  and  C_15
REMARK    8  A    between atoms: C_17  and  S_18
REMARK    9  A    between atoms: S_18  and  C_19
REMARK                            x       y       z     vdW  Elec       q    Type
REMARK                         _______ _______ _______ _____ _____    ______ ____
ROOT
ATOM      1  C   UNL     1       1.902   7.504  20.337  0.00  0.00    +0.000 C 
ATOM      2  O   UNL     1       2.000   8.013  19.222  0.00  0.00    +0.000 OA
ATOM      3  N   UNL     1       2.289   6.221  20.677  0.00  0.00    +0.000 N 
ATOM      4  H   UNL     1       1.863   5.814  21.515  0.00  0.00    +0.000 HD
ENDROOT
BRANCH   3   5
ATOM      5  C   UNL     1       3.009   5.325  19.850  0.00  0.00    +0.000 A 
ATOM      6  C   UNL     1       4.314   5.601  19.438  0.00  0.00    +0.000 A 
ATOM      7  C   UNL     1       4.991   4.720  18.595  0.00  0.00    +0.000 A 
ATOM      8  C   UNL     1       4.400   3.527  18.182  0.00  0.00    +0.000 A 
ATOM      9  C   UNL     1       3.110   3.221  18.620  0.00  0.00    +0.000 A 
ATOM     10  C   UNL     1       2.420   4.113  19.449  0.00  0.00    +0.000 A 
ATOM     11 CL   UNL     1       0.819   3.684  19.945  0.00  0.00    +0.000 Cl
BRANCH   7  12
ATOM     12  S   UNL     1       6.636   5.145  18.077  0.00  0.00    +0.000 S 
ATOM     13  C   UNL     1       6.521   6.844  17.574  0.00  0.00    +0.000 C 
ATOM     14  O   UNL     1       7.477   5.065  19.255  0.00  0.00    +0.000 OA
ATOM     15  O   UNL     1       6.933   4.360  16.894  0.00  0.00    +0.000 OA
ENDBRANCH   7  12
ENDBRANCH   3   5
BRANCH   1  16
ATOM     16  C   UNL     1       1.298   8.292  21.495  0.00  0.00    +0.000 C 
BRANCH  16  17
ATOM     17  O   UNL     1       1.495   9.696  21.411  0.00  0.00    +0.000 OA
BRANCH  17  18
ATOM     18  C   UNL     1       0.382  10.463  21.614  0.00  0.00    +0.000 C 
ATOM     19  O   UNL     1      -0.048  10.743  22.726  0.00  0.00    +0.000 OA
BRANCH  18  23
ATOM     20  N   UNL     1      -2.293  10.370  17.617  0.00  0.00    +0.000 N 
ATOM     21  C   UNL     1      -1.437  10.889  18.522  0.00  0.00    +0.000 A 
ATOM     22  N   UNL     1      -0.880  10.162  19.466  0.00  0.00    +0.000 NA
ATOM     23  C   UNL     1      -0.156  10.964  20.347  0.00  0.00    +0.000 A 
ATOM     24  C   UNL     1      -0.052  12.283  19.945  0.00  0.00    +0.000 A 
ATOM     25  S   UNL     1      -0.975  12.555  18.545  0.00  0.00    +0.000 S 
ATOM     26  H   UNL     1      -2.034   9.478  17.212  0.00  0.00    +0.000 HD
BRANCH  20  27
ATOM     27  C   UNL     1      -3.165  11.209  16.831  0.00  0.00    +0.000 C 
BRANCH  27  29
ATOM     28  C   UNL     1      -2.978  10.155  14.565  0.00  0.00    +0.000 C 
ATOM     29  C   UNL     1      -3.678  10.404  15.679  0.00  0.00    +0.000 C 
ENDBRANCH  27  29
ENDBRANCH  20  27
ENDBRANCH  18  23
ENDBRANCH  17  18
ENDBRANCH  16  17
ENDBRANCH   1  16
TORSDOF 8
ENDMDL
MODEL 8
REMARK VINA RESULT:      -7.4      2.301      2.902
REMARK  Name = 
REMARK  9 active torsions:
REMARK  status: ('A' for Active; 'I' for Inactive)
REMARK    1  A    between atoms: C_2  and  C_3
REMARK    2  A    between atoms: C_3  and  N_4
REMARK    3  A    between atoms: C_7  and  C_8
REMARK    4  A    between atoms: C_8  and  O_10
REMARK    5  A    between atoms: O_10  and  C_11
REMARK    6  A    between atoms: C_11  and  C_12
REMARK    7  A    between atoms: N_14  and  C_15
REMARK    8  A    between atoms: C_17  and  S_18
REMARK    9  A    between atoms: S_18  and  C_19
REMARK                            x       y       z     vdW  Elec       q    Type
REMARK                         _______ _______ _______ _____ _____    ______ ____
ROOT
ATOM      1  C   UNL     1       2.093   7.089  19.944  0.00  0.00    +0.000 C 
ATOM      2  O   UNL     1       2.158   7.860  18.988  0.00  0.00    +0.000 OA
ATOM      3  N   UNL     1       2.637   5.819  19.996  0.00  0.00    +0.000 N 
ATOM      4  H   UNL     1       2.243   5.173  20.687  0.00  0.00    +0.000 HD
ENDROOT
BRANCH   3   5
ATOM      5  C   UNL     1       3.495   5.244  19.028  0.00  0.00    +0.000 A 
ATOM      6  C   UNL     1       4.874   5.459  19.057  0.00  0.00    +0.000 A 
ATOM      7  C   UNL     1       5.696   4.909  18.072  0.00  0.00    +0.000 A 
ATOM      8  C   UNL     1       5.168   4.099  17.067  0.00  0.00    +0.000 A 
ATOM      9  C   UNL     1       3.795   3.845  17.052  0.00  0.00    +0.000 A 
ATOM     10  C   UNL     1       2.964   4.412  18.026  0.00  0.00    +0.000 A 
ATOM     11 CL   UNL     1       1.271   4.071  17.944  0.00  0.00    +0.000 Cl
BRANCH   7  12
ATOM     12  S   UNL     1       7.438   5.248  18.142  0.00  0.00    +0.000 S 
ATOM     13  C   UNL     1       7.587   6.932  17.599  0.00  0.00    +0.000 C 
ATOM     14  O   UNL     1       7.821   5.174  19.538  0.00  0.00    +0.000 OA
ATOM     15  O   UNL     1       8.082   4.411  17.147  0.00  0.00    +0.000 OA
ENDBRANCH   7  12
ENDBRANCH   3   5
BRANCH   1  16
ATOM     16  C   UNL     1       1.354   7.495  21.215  0.00  0.00    +0.000 C 
BRANCH  16  17
ATOM     17  O   UNL     1       0.482   8.604  21.054  0.00  0.00    +0.000 OA
BRANCH  17  18
ATOM     18  C   UNL     1       0.888   9.767  21.647  0.00  0.00    +0.000 C 
ATOM     19  O   UNL     1       1.496   9.805  22.709  0.00  0.00    +0.000 OA
BRANCH  18  23
ATOM     20  N   UNL     1       0.655  14.428  20.481  0.00  0.00    +0.000 N 
ATOM     21  C   UNL     1       0.520  13.098  20.298  0.00  0.00    +0.000 A 
ATOM     22  N   UNL     1       0.615  12.235  21.286  0.00  0.00    +0.000 NA
ATOM     23  C   UNL     1       0.580  10.927  20.806  0.00  0.00    +0.000 A 
ATOM     24  C   UNL     1       0.293  10.834  19.457  0.00  0.00    +0.000 A 
ATOM     25  S   UNL     1       0.209  12.379  18.756  0.00  0.00    +0.000 S 
ATOM     26  H   UNL     1       0.182  14.823  21.286  0.00  0.00    +0.000 HD
BRANCH  20  27
ATOM     27  C   UNL     1       0.912  15.323  19.378  0.00  0.00    +0.000 C 
BRANCH  27  29
ATOM     28  C   UNL     1      -0.450  17.061  18.192  0.00  0.00    +0.000 C 
ATOM     29  C   UNL     1      -0.364  16.026  19.038  0.00  0.00    +0.000 C 
ENDBRANCH  27  29
ENDBRANCH  20  27
ENDBRANCH  18  23
ENDBRANCH  17  18
ENDBRANCH  16  17
ENDBRANCH   1  16
TORSDOF 8
ENDMDL
MODEL 9
REMARK VINA RESULT:      -7.4      0.973      1.109
REMARK  Name = 
REMARK  9 active torsions:
REMARK  status: ('A' for Active; 'I' for Inactive)
REMARK    1  A    between atoms: C_2  and  C_3
REMARK    2  A    between atoms: C_3  and  N_4
REMARK    3  A    between atoms: C_7  and  C_8
REMARK    4  A    between atoms: C_8  and  O_10
REMARK    5  A    between atoms: O_10  and  C_11
REMARK    6  A    between atoms: C_11  and  C_12
REMARK    7  A    between atoms: N_14  and  C_15
REMARK    8  A    between atoms: C_17  and  S_18
REMARK    9  A    between atoms: S_18  and  C_19
REMARK                            x       y       z     vdW  Elec       q    Type
REMARK                         _______ _______ _______ _____ _____    ______ ____
ROOT
ATOM      1  C   UNL     1       2.189   6.311  20.349  0.00  0.00    +0.000 C 
ATOM      2  O   UNL     1       2.403   5.294  21.006  0.00  0.00    +0.000 OA
ATOM      3  N   UNL     1       2.676   6.573  19.081  0.00  0.00    +0.000 N 
ATOM      4  H   UNL     1       2.708   7.554  18.789  0.00  0.00    +0.000 HD
ENDROOT
BRANCH   3   5
ATOM      5  C   UNL     1       3.369   5.656  18.254  0.00  0.00    +0.000 A 
ATOM      6  C   UNL     1       4.694   5.877  17.872  0.00  0.00    +0.000 A 
ATOM      7  C   UNL     1       5.346   4.977  17.029  0.00  0.00    +0.000 A 
ATOM      8  C   UNL     1       4.708   3.819  16.586  0.00  0.00    +0.000 A 
ATOM      9  C   UNL     1       3.396   3.568  16.994  0.00  0.00    +0.000 A 
ATOM     10  C   UNL     1       2.732   4.479  17.823  0.00  0.00    +0.000 A 
ATOM     11 CL   UNL     1       1.104   4.119  18.282  0.00  0.00    +0.000 Cl
BRANCH   7  12
ATOM     12  S   UNL     1       7.019   5.331  16.550  0.00  0.00    +0.000 S 
ATOM     13  C   UNL     1       7.102   4.864  14.839  0.00  0.00    +0.000 C 
ATOM     14  O   UNL     1       7.185   6.767  16.648  0.00  0.00    +0.000 OA
ATOM     15  O   UNL     1       7.881   4.428  17.289  0.00  0.00    +0.000 OA
ENDBRANCH   7  12
ENDBRANCH   3   5
BRANCH   1  16
ATOM     16  C   UNL     1       1.331   7.434  20.922  0.00  0.00    +0.000 C 
BRANCH  16  17
ATOM     17  O   UNL     1       1.512   8.691  20.287  0.00  0.00    +0.000 OA
BRANCH  17  18
ATOM     18  C   UNL     1       0.865   9.746  20.866  0.00  0.00    +0.000 C 
ATOM     19  O   UNL     1       1.101  10.138  22.002  0.00  0.00    +0.000 OA
BRANCH  18  23
ATOM     20  N   UNL     1      -2.122   9.987  17.104  0.00  0.00    +0.000 N 
ATOM     21  C   UNL     1      -1.461  10.438  18.191  0.00  0.00    +0.000 A 
ATOM     22  N   UNL     1      -0.471   9.771  18.743  0.00  0.00    +0.000 NA
ATOM     23  C   UNL     1      -0.061  10.382  19.926  0.00  0.00    +0.000 A 
ATOM     24  C   UNL     1      -0.658  11.608  20.158  0.00  0.00    +0.000 A 
ATOM     25  S   UNL     1      -1.835  11.932  18.976  0.00  0.00    +0.000 S 
ATOM     26  H   UNL     1      -1.554   9.599  16.360  0.00  0.00    +0.000 HD
BRANCH  20  27
ATOM     27  C   UNL     1      -3.410  10.517  16.726  0.00  0.00    +0.000 C 
BRANCH  27  29
ATOM     28  C   UNL     1      -2.982  10.057  14.300  0.00  0.00    +0.000 C 
ATOM     29  C   UNL     1      -3.357  10.891  15.279  0.00  0.00    +0.000 C 
ENDBRANCH  27  29
ENDBRANCH  20  27
ENDBRANCH  18  23
ENDBRANCH  17  18
ENDBRANCH  16  17
ENDBRANCH   1  16
TORSDOF 8
ENDMDL
