MODEL 1
REMARK VINA RESULT:      -7.5      0.000      0.000
REMARK  Name = 
REMARK  4 active torsions:
REMARK  status: ('A' for Active; 'I' for Inactive)
REMARK    1  A    between atoms: C_1  and  N_2
REMARK    2  A    between atoms: N_2  and  C_3
REMARK    3  A    between atoms: C_8  and  N_9
REMARK    4  A    between atoms: C_12  and  C_13
REMARK                            x       y       z     vdW  Elec       q    Type
REMARK                         _______ _______ _______ _____ _____    ______ ____
ROOT
ATOM      1  N   UNL     1       4.830   4.596  17.798  0.00  0.00    +0.000 N 
ATOM      2  C   UNL     1       6.138   4.718  18.211  0.00  0.00    +0.000 A 
ATOM      3  C   UNL     1       6.927   4.614  17.093  0.00  0.00    +0.000 A 
ATOM      4  C   UNL     1       6.026   4.479  16.009  0.00  0.00    +0.000 A 
ATOM      5  N   UNL     1       4.759   4.474  16.443  0.00  0.00    +0.000 NA
ENDROOT
BRANCH   1  11
ATOM      6  C   UNL     1       2.707   3.559  18.647  0.00  0.00    +0.000 A 
ATOM      7  C   UNL     1       1.649   3.695  19.570  0.00  0.00    +0.000 A 
ATOM      8  C   UNL     1       1.448   4.863  20.313  0.00  0.00    +0.000 A 
ATOM      9  C   UNL     1       2.325   5.928  20.180  0.00  0.00    +0.000 A 
ATOM     10  C   UNL     1       3.413   5.811  19.321  0.00  0.00    +0.000 A 
ATOM     11  C   UNL     1       3.638   4.627  18.583  0.00  0.00    +0.000 A 
BRANCH   6  13
ATOM     12  C   UNL     1       3.660   1.295  18.413  0.00  0.00    +0.000 C 
ATOM     13  N   UNL     1       2.840   2.380  17.887  0.00  0.00    +0.000 N 
ATOM     14  H   UNL     1       1.926   2.015  17.629  0.00  0.00    +0.000 HD
ENDBRANCH   6  13
ENDBRANCH   1  11
BRANCH   4  15
ATOM     15  C   UNL     1       6.361   4.390  14.587  0.00  0.00    +0.000 A 
ATOM     16  C   UNL     1       5.653   3.536  13.729  0.00  0.00    +0.000 A 
ATOM     17  C   UNL     1       6.005   3.444  12.379  0.00  0.00    +0.000 A 
ATOM     18  C   UNL     1       7.058   4.204  11.875  0.00  0.00    +0.000 A 
ATOM     19  C   UNL     1       7.760   5.067  12.718  0.00  0.00    +0.000 A 
ATOM     20  C   UNL     1       7.414   5.156  14.065  0.00  0.00    +0.000 A 
ENDBRANCH   4  15
TORSDOF 3
ENDMDL
MODEL 2
REMARK VINA RESULT:      -7.5      0.793      1.357
REMARK  Name = 
REMARK  4 active torsions:
REMARK  status: ('A' for Active; 'I' for Inactive)
REMARK    1  A    between atoms: C_1  and  N_2
REMARK    2  A    between atoms: N_2  and  C_3
REMARK    3  A    between atoms: C_8  and  N_9
REMARK    4  A    between atoms: C_12  and  C_13
REMARK                            x       y       z     vdW  Elec       q    Type
REMARK                         _______ _______ _______ _____ _____    ______ ____
ROOT
ATOM      1  N   UNL     1       5.059   5.209  17.866  0.00  0.00    +0.000 N 
ATOM      2  C   UNL     1       6.213   5.942  18.045  0.00  0.00    +0.000 A 
ATOM      3  C   UNL     1       6.939   5.842  16.885  0.00  0.00    +0.000 A 
ATOM      4  C   UNL     1       6.143   5.067  16.008  0.00  0.00    +0.000 A 
ATOM      5  N   UNL     1       5.005   4.692  16.606  0.00  0.00    +0.000 NA
ENDROOT
BRANCH   1  11
ATOM      6  C   UNL     1       3.669   3.732  19.345  0.00  0.00    +0.000 A 
ATOM      7  C   UNL     1       2.662   3.713  20.333  0.00  0.00    +0.000 A 
ATOM      8  C   UNL     1       1.925   4.852  20.673  0.00  0.00    +0.000 A 
ATOM      9  C   UNL     1       2.196   6.062  20.055  0.00  0.00    +0.000 A 
ATOM     10  C   UNL     1       3.220   6.134  19.116  0.00  0.00    +0.000 A 
ATOM     11  C   UNL     1       3.986   4.994  18.782  0.00  0.00    +0.000 A 
BRANCH   6  13
ATOM     12  C   UNL     1       3.607   1.460  18.384  0.00  0.00    +0.000 C 
ATOM     13  N   UNL     1       4.353   2.548  19.004  0.00  0.00    +0.000 N 
ATOM     14  H   UNL     1       5.173   2.758  18.437  0.00  0.00    +0.000 HD
ENDBRANCH   6  13
ENDBRANCH   1  11
BRANCH   4  15
ATOM     15  C   UNL     1       6.441   4.718  14.618  0.00  0.00    +0.000 A 
ATOM     16  C   UNL     1       7.516   5.309  13.938  0.00  0.00    +0.000 A 
ATOM     17  C   UNL     1       7.769   4.985  12.603  0.00  0.00    +0.000 A 
ATOM     18  C   UNL     1       6.958   4.068  11.937  0.00  0.00    +0.000 A 
ATOM     19  C   UNL     1       5.894   3.464  12.609  0.00  0.00    +0.000 A 
ATOM     20  C   UNL     1       5.637   3.790  13.939  0.00  0.00    +0.000 A 
ENDBRANCH   4  15
TORSDOF 3
ENDMDL
MODEL 3
REMARK VINA RESULT:      -7.3      1.041      2.433
REMARK  Name = 
REMARK  4 active torsions:
REMARK  status: ('A' for Active; 'I' for Inactive)
REMARK    1  A    between atoms: C_1  and  N_2
REMARK    2  A    between atoms: N_2  and  C_3
REMARK    3  A    between atoms: C_8  and  N_9
REMARK    4  A    between atoms: C_12  and  C_13
REMARK                            x       y       z     vdW  Elec       q    Type
REMARK                         _______ _______ _______ _____ _____    ______ ____
ROOT
ATOM      1  N   UNL     1       4.553   4.070  17.985  0.00  0.00    +0.000 N 
ATOM      2  C   UNL     1       5.761   4.532  18.461  0.00  0.00    +0.000 A 
ATOM      3  C   UNL     1       6.605   4.641  17.385  0.00  0.00    +0.000 A 
ATOM      4  C   UNL     1       5.828   4.275  16.259  0.00  0.00    +0.000 A 
ATOM      5  N   UNL     1       4.586   3.936  16.629  0.00  0.00    +0.000 NA
ENDROOT
BRANCH   1  11
ATOM      6  C   UNL     1       2.668   4.737  19.503  0.00  0.00    +0.000 A 
ATOM      7  C   UNL     1       1.431   4.332  20.048  0.00  0.00    +0.000 A 
ATOM      8  C   UNL     1       0.946   3.026  19.917  0.00  0.00    +0.000 A 
ATOM      9  C   UNL     1       1.672   2.087  19.203  0.00  0.00    +0.000 A 
ATOM     10  C   UNL     1       2.869   2.463  18.602  0.00  0.00    +0.000 A 
ATOM     11  C   UNL     1       3.357   3.784  18.709  0.00  0.00    +0.000 A 
BRANCH   6  13
ATOM     12  C   UNL     1       2.654   7.108  18.822  0.00  0.00    +0.000 C 
ATOM     13  N   UNL     1       3.137   6.051  19.702  0.00  0.00    +0.000 N 
ATOM     14  H   UNL     1       3.006   6.335  20.670  0.00  0.00    +0.000 HD
ENDBRANCH   6  13
ENDBRANCH   1  11
BRANCH   4  15
ATOM     15  C   UNL     1       6.246   4.280  14.856  0.00  0.00    +0.000 A 
ATOM     16  C   UNL     1       7.325   5.065  14.426  0.00  0.00    +0.000 A 
ATOM     17  C   UNL     1       7.693   5.079  13.077  0.00  0.00    +0.000 A 
ATOM     18  C   UNL     1       6.994   4.309  12.151  0.00  0.00    +0.000 A 
ATOM     19  C   UNL     1       5.927   3.514  12.572  0.00  0.00    +0.000 A 
ATOM     20  C   UNL     1       5.555   3.503  13.915  0.00  0.00    +0.000 A 
ENDBRANCH   4  15
TORSDOF 3
ENDMDL
MODEL 4
REMARK VINA RESULT:      -7.3      1.008      2.205
REMARK  Name = 
REMARK  4 active torsions:
REMARK  status: ('A' for Active; 'I' for Inactive)
REMARK    1  A    between atoms: C_1  and  N_2
REMARK    2  A    between atoms: N_2  and  C_3
REMARK    3  A    between atoms: C_8  and  N_9
REMARK    4  A    between atoms: C_12  and  C_13
REMARK                            x       y       z     vdW  Elec       q    Type
REMARK                         _______ _______ _______ _____ _____    ______ ____
ROOT
ATOM      1  N   UNL     1       4.561   4.053  17.980  0.00  0.00    +0.000 N 
ATOM      2  C   UNL     1       5.785   4.482  18.444  0.00  0.00    +0.000 A 
ATOM      3  C   UNL     1       6.614   4.591  17.357  0.00  0.00    +0.000 A 
ATOM      4  C   UNL     1       5.812   4.259  16.238  0.00  0.00    +0.000 A 
ATOM      5  N   UNL     1       4.570   3.940  16.622  0.00  0.00    +0.000 NA
ENDROOT
BRANCH   1  11
ATOM      6  C   UNL     1       2.698   4.743  19.516  0.00  0.00    +0.000 A 
ATOM      7  C   UNL     1       1.464   4.351  20.076  0.00  0.00    +0.000 A 
ATOM      8  C   UNL     1       0.967   3.049  19.957  0.00  0.00    +0.000 A 
ATOM      9  C   UNL     1       1.677   2.100  19.240  0.00  0.00    +0.000 A 
ATOM     10  C   UNL     1       2.870   2.463  18.625  0.00  0.00    +0.000 A 
ATOM     11  C   UNL     1       3.370   3.781  18.720  0.00  0.00    +0.000 A 
BRANCH   6  13
ATOM     12  C   UNL     1       2.218   7.135  19.884  0.00  0.00    +0.000 C 
ATOM     13  N   UNL     1       3.179   6.054  19.702  0.00  0.00    +0.000 N 
ATOM     14  H   UNL     1       3.861   6.082  20.457  0.00  0.00    +0.000 HD
ENDBRANCH   6  13
ENDBRANCH   1  11
BRANCH   4  15
ATOM     15  C   UNL     1       6.208   4.278  14.829  0.00  0.00    +0.000 A 
ATOM     16  C   UNL     1       5.514   3.523  13.872  0.00  0.00    +0.000 A 
ATOM     17  C   UNL     1       5.924   3.532  12.536  0.00  0.00    +0.000 A 
ATOM     18  C   UNL     1       7.022   4.293  12.143  0.00  0.00    +0.000 A 
ATOM     19  C   UNL     1       7.711   5.058  13.085  0.00  0.00    +0.000 A 
ATOM     20  C   UNL     1       7.307   5.047  14.419  0.00  0.00    +0.000 A 
ENDBRANCH   4  15
TORSDOF 3
ENDMDL
MODEL 5
REMARK VINA RESULT:      -7.2      1.385      1.583
REMARK  Name = 
REMARK  4 active torsions:
REMARK  status: ('A' for Active; 'I' for Inactive)
REMARK    1  A    between atoms: C_1  and  N_2
REMARK    2  A    between atoms: N_2  and  C_3
REMARK    3  A    between atoms: C_8  and  N_9
REMARK    4  A    between atoms: C_12  and  C_13
REMARK                            x       y       z     vdW  Elec       q    Type
REMARK                         _______ _______ _______ _____ _____    ______ ____
ROOT
ATOM      1  N   UNL     1       4.348   4.368  17.486  0.00  0.00    +0.000 N 
ATOM      2  C   UNL     1       5.125   5.465  17.785  0.00  0.00    +0.000 A 
ATOM      3  C   UNL     1       5.958   5.676  16.716  0.00  0.00    +0.000 A 
ATOM      4  C   UNL     1       5.602   4.691  15.763  0.00  0.00    +0.000 A 
ATOM      5  N   UNL     1       4.623   3.907  16.233  0.00  0.00    +0.000 NA
ENDROOT
BRANCH   1  11
ATOM      6  C   UNL     1       3.608   2.869  19.359  0.00  0.00    +0.000 A 
ATOM      7  C   UNL     1       2.501   2.442  20.123  0.00  0.00    +0.000 A 
ATOM      8  C   UNL     1       1.184   2.765  19.779  0.00  0.00    +0.000 A 
ATOM      9  C   UNL     1       0.933   3.559  18.671  0.00  0.00    +0.000 A 
ATOM     10  C   UNL     1       2.002   4.047  17.926  0.00  0.00    +0.000 A 
ATOM     11  C   UNL     1       3.336   3.745  18.278  0.00  0.00    +0.000 A 
BRANCH   6  13
ATOM     12  C   UNL     1       5.084   1.498  20.784  0.00  0.00    +0.000 C 
ATOM     13  N   UNL     1       4.913   2.479  19.720  0.00  0.00    +0.000 N 
ATOM     14  H   UNL     1       5.437   2.179  18.900  0.00  0.00    +0.000 HD
ENDBRANCH   6  13
ENDBRANCH   1  11
BRANCH   4  15
ATOM     15  C   UNL     1       6.155   4.520  14.418  0.00  0.00    +0.000 A 
ATOM     16  C   UNL     1       5.573   3.631  13.504  0.00  0.00    +0.000 A 
ATOM     17  C   UNL     1       6.132   3.460  12.234  0.00  0.00    +0.000 A 
ATOM     18  C   UNL     1       7.268   4.175  11.865  0.00  0.00    +0.000 A 
ATOM     19  C   UNL     1       7.848   5.073  12.764  0.00  0.00    +0.000 A 
ATOM     20  C   UNL     1       7.295   5.241  14.032  0.00  0.00    +0.000 A 
ENDBRANCH   4  15
TORSDOF 3
ENDMDL
MODEL 6
REMARK VINA RESULT:      -7.2      1.336      1.903
REMARK  Name = 
REMARK  4 active torsions:
REMARK  status: ('A' for Active; 'I' for Inactive)
REMARK    1  A    between atoms: C_1  and  N_2
REMARK    2  A    between atoms: N_2  and  C_3
REMARK    3  A    between atoms: C_8  and  N_9
REMARK    4  A    between atoms: C_12  and  C_13
REMARK                            x       y       z     vdW  Elec       q    Type
REMARK                         _______ _______ _______ _____ _____    ______ ____
ROOT
ATOM      1  N   UNL     1       4.091   4.677  17.836  0.00  0.00    +0.000 N 
ATOM      2  C   UNL     1       4.670   5.924  17.918  0.00  0.00    +0.000 A 
ATOM      3  C   UNL     1       5.460   6.078  16.808  0.00  0.00    +0.000 A 
ATOM      4  C   UNL     1       5.280   4.895  16.051  0.00  0.00    +0.000 A 
ATOM      5  N   UNL     1       4.446   4.054  16.677  0.00  0.00    +0.000 NA
ENDROOT
BRANCH   1  11
ATOM      6  C   UNL     1       3.583   3.021  19.654  0.00  0.00    +0.000 A 
ATOM      7  C   UNL     1       2.609   2.593  20.581  0.00  0.00    +0.000 A 
ATOM      8  C   UNL     1       1.291   3.061  20.553  0.00  0.00    +0.000 A 
ATOM      9  C   UNL     1       0.911   4.004  19.611  0.00  0.00    +0.000 A 
ATOM     10  C   UNL     1       1.857   4.493  18.716  0.00  0.00    +0.000 A 
ATOM     11  C   UNL     1       3.196   4.044  18.751  0.00  0.00    +0.000 A 
BRANCH   6  13
ATOM     12  C   UNL     1       5.198   1.472  20.693  0.00  0.00    +0.000 C 
ATOM     13  N   UNL     1       4.886   2.486  19.693  0.00  0.00    +0.000 N 
ATOM     14  H   UNL     1       5.161   2.146  18.774  0.00  0.00    +0.000 HD
ENDBRANCH   6  13
ENDBRANCH   1  11
BRANCH   4  15
ATOM     15  C   UNL     1       5.861   4.584  14.744  0.00  0.00    +0.000 A 
ATOM     16  C   UNL     1       7.094   5.124  14.353  0.00  0.00    +0.000 A 
ATOM     17  C   UNL     1       7.620   4.838  13.090  0.00  0.00    +0.000 A 
ATOM     18  C   UNL     1       6.926   4.010  12.212  0.00  0.00    +0.000 A 
ATOM     19  C   UNL     1       5.704   3.457  12.596  0.00  0.00    +0.000 A 
ATOM     20  C   UNL     1       5.175   3.744  13.853  0.00  0.00    +0.000 A 
ENDBRANCH   4  15
TORSDOF 3
ENDMDL
MODEL 7
REMARK VINA RESULT:      -7.1      1.106      2.151
REMARK  Name = 
REMARK  4 active torsions:
REMARK  status: ('A' for Active; 'I' for Inactive)
REMARK    1  A    between atoms: C_1  and  N_2
REMARK    2  A    between atoms: N_2  and  C_3
REMARK    3  A    between atoms: C_8  and  N_9
REMARK    4  A    between atoms: C_12  and  C_13
REMARK                            x       y       z     vdW  Elec       q    Type
REMARK                         _______ _______ _______ _____ _____    ______ ____
ROOT
ATOM      1  N   UNL     1       5.282   4.530  17.965  0.00  0.00    +0.000 N 
ATOM      2  C   UNL     1       6.617   4.688  18.268  0.00  0.00    +0.000 A 
ATOM      3  C   UNL     1       7.311   4.616  17.087  0.00  0.00    +0.000 A 
ATOM      4  C   UNL     1       6.327   4.460  16.081  0.00  0.00    +0.000 A 
ATOM      5  N   UNL     1       5.101   4.415  16.619  0.00  0.00    +0.000 NA
ENDROOT
BRANCH   1  11
ATOM      6  C   UNL     1       3.235   5.588  18.960  0.00  0.00    +0.000 A 
ATOM      7  C   UNL     1       2.108   5.368  19.781  0.00  0.00    +0.000 A 
ATOM      8  C   UNL     1       1.953   4.204  20.542  0.00  0.00    +0.000 A 
ATOM      9  C   UNL     1       2.908   3.203  20.479  0.00  0.00    +0.000 A 
ATOM     10  C   UNL     1       4.004   3.359  19.637  0.00  0.00    +0.000 A 
ATOM     11  C   UNL     1       4.160   4.520  18.848  0.00  0.00    +0.000 A 
BRANCH   6  13
ATOM     12  C   UNL     1       2.317   7.799  18.361  0.00  0.00    +0.000 C 
ATOM     13  N   UNL     1       3.369   6.797  18.248  0.00  0.00    +0.000 N 
ATOM     14  H   UNL     1       4.269   7.231  18.446  0.00  0.00    +0.000 HD
ENDBRANCH   6  13
ENDBRANCH   1  11
BRANCH   4  15
ATOM     15  C   UNL     1       6.543   4.391  14.635  0.00  0.00    +0.000 A 
ATOM     16  C   UNL     1       5.787   3.526  13.831  0.00  0.00    +0.000 A 
ATOM     17  C   UNL     1       6.026   3.452  12.456  0.00  0.00    +0.000 A 
ATOM     18  C   UNL     1       7.014   4.242  11.873  0.00  0.00    +0.000 A 
ATOM     19  C   UNL     1       7.763   5.116  12.662  0.00  0.00    +0.000 A 
ATOM     20  C   UNL     1       7.529   5.187  14.034  0.00  0.00    +0.000 A 
ENDBRANCH   4  15
TORSDOF 3
ENDMDL
MODEL 8
REMARK VINA RESULT:      -6.9      1.430      2.184
REMARK  Name = 
REMARK  4 active torsions:
REMARK  status: ('A' for Active; 'I' for Inactive)
REMARK    1  A    between atoms: C_1  and  N_2
REMARK    2  A    between atoms: N_2  and  C_3
REMARK    3  A    between atoms: C_8  and  N_9
REMARK    4  A    between atoms: C_12  and  C_13
REMARK                            x       y       z     vdW  Elec       q    Type
REMARK                         _______ _______ _______ _____ _____    ______ ____
ROOT
ATOM      1  N   UNL     1       4.095   4.864  17.270  0.00  0.00    +0.000 N 
ATOM      2  C   UNL     1       4.305   6.213  17.087  0.00  0.00    +0.000 A 
ATOM      3  C   UNL     1       5.063   6.355  15.953  0.00  0.00    +0.000 A 
ATOM      4  C   UNL     1       5.244   5.041  15.455  0.00  0.00    +0.000 A 
ATOM      5  N   UNL     1       4.650   4.145  16.255  0.00  0.00    +0.000 NA
ENDROOT
BRANCH   1  11
ATOM      6  C   UNL     1       3.992   3.495  19.372  0.00  0.00    +0.000 A 
ATOM      7  C   UNL     1       3.144   3.012  20.391  0.00  0.00    +0.000 A 
ATOM      8  C   UNL     1       1.751   3.120  20.320  0.00  0.00    +0.000 A 
ATOM      9  C   UNL     1       1.160   3.749  19.236  0.00  0.00    +0.000 A 
ATOM     10  C   UNL     1       1.966   4.288  18.239  0.00  0.00    +0.000 A 
ATOM     11  C   UNL     1       3.374   4.204  18.312  0.00  0.00    +0.000 A 
BRANCH   6  13
ATOM     12  C   UNL     1       6.244   4.501  19.468  0.00  0.00    +0.000 C 
ATOM     13  N   UNL     1       5.388   3.321  19.467  0.00  0.00    +0.000 N 
ATOM     14  H   UNL     1       5.622   2.736  20.266  0.00  0.00    +0.000 HD
ENDBRANCH   6  13
ENDBRANCH   1  11
BRANCH   4  15
ATOM     15  C   UNL     1       5.936   4.648  14.227  0.00  0.00    +0.000 A 
ATOM     16  C   UNL     1       7.164   5.224  13.873  0.00  0.00    +0.000 A 
ATOM     17  C   UNL     1       7.797   4.857  12.682  0.00  0.00    +0.000 A 
ATOM     18  C   UNL     1       7.216   3.912  11.841  0.00  0.00    +0.000 A 
ATOM     19  C   UNL     1       6.000   3.323  12.190  0.00  0.00    +0.000 A 
ATOM     20  C   UNL     1       5.364   3.691  13.375  0.00  0.00    +0.000 A 
ENDBRANCH   4  15
TORSDOF 3
ENDMDL
MODEL 9
REMARK VINA RESULT:      -6.9      3.962      8.257
REMARK  Name = 
REMARK  4 active torsions:
REMARK  status: ('A' for Active; 'I' for Inactive)
REMARK    1  A    between atoms: C_1  and  N_2
REMARK    2  A    between atoms: N_2  and  C_3
REMARK    3  A    between atoms: C_8  and  N_9
REMARK    4  A    between atoms: C_12  and  C_13
REMARK                            x       y       z     vdW  Elec       q    Type
REMARK                         _______ _______ _______ _____ _____    ______ ____
ROOT
ATOM      1  N   UNL     1       2.407   7.700  18.783  0.00  0.00    +0.000 N 
ATOM      2  C   UNL     1       2.024   8.635  17.847  0.00  0.00    +0.000 A 
ATOM      3  C   UNL     1       1.171   9.509  18.473  0.00  0.00    +0.000 A 
ATOM      4  C   UNL     1       1.113   9.076  19.821  0.00  0.00    +0.000 A 
ATOM      5  N   UNL     1       1.868   7.985  20.001  0.00  0.00    +0.000 NA
ENDROOT
BRANCH   1  11
ATOM      6  C   UNL     1       3.337   5.490  19.528  0.00  0.00    +0.000 A 
ATOM      7  C   UNL     1       4.154   4.401  19.157  0.00  0.00    +0.000 A 
ATOM      8  C   UNL     1       4.959   4.424  18.013  0.00  0.00    +0.000 A 
ATOM      9  C   UNL     1       4.948   5.532  17.181  0.00  0.00    +0.000 A 
ATOM     10  C   UNL     1       4.112   6.602  17.482  0.00  0.00    +0.000 A 
ATOM     11  C   UNL     1       3.278   6.580  18.622  0.00  0.00    +0.000 A 
BRANCH   6  13
ATOM     12  C   UNL     1       2.131   4.140  21.205  0.00  0.00    +0.000 C 
ATOM     13  N   UNL     1       2.578   5.438  20.714  0.00  0.00    +0.000 N 
ATOM     14  H   UNL     1       3.053   5.935  21.465  0.00  0.00    +0.000 HD
ENDBRANCH   6  13
ENDBRANCH   1  11
BRANCH   4  15
ATOM     15  C   UNL     1       0.384   9.707  20.922  0.00  0.00    +0.000 A 
ATOM     16  C   UNL     1       0.333   9.112  22.190  0.00  0.00    +0.000 A 
ATOM     17  C   UNL     1      -0.392   9.715  23.222  0.00  0.00    +0.000 A 
ATOM     18  C   UNL     1      -1.065  10.914  23.000  0.00  0.00    +0.000 A 
ATOM     19  C   UNL     1      -1.009  11.521  21.745  0.00  0.00    +0.000 A 
ATOM     20  C   UNL     1      -0.291  10.919  20.713  0.00  0.00    +0.000 A 
ENDBRANCH   4  15
TORSDOF 3
ENDMDL
