MODEL 1
REMARK VINA RESULT:      -7.1      0.000      0.000
REMARK  Name = 
REMARK  14 active torsions:
REMARK  status: ('A' for Active; 'I' for Inactive)
REMARK    1  A    between atoms: C_1  and  C_2
REMARK    2  A    between atoms: C_2  and  C_3
REMARK    3  A    between atoms: C_7  and  C_8
REMARK    4  A    between atoms: C_9  and  O_10
REMARK    5  A    between atoms: O_10  and  C_11
REMARK    6  A    between atoms: C_13  and  C_14
REMARK    7  A    between atoms: C_16  and  N_17
REMARK    8  A    between atoms: N_17  and  C_18
REMARK    9  A    between atoms: N_17  and  C_19
REMARK   10  A    between atoms: C_20  and  O_21
REMARK   11  A    between atoms: C_22  and  C_23
REMARK   12  A    between atoms: C_25  and  C_26
REMARK   13  A    between atoms: C_31  and  C_32
REMARK   14  A    between atoms: C_31  and  O_33
REMARK                            x       y       z     vdW  Elec       q    Type
REMARK                         _______ _______ _______ _____ _____    ______ ____
ROOT
ATOM      1  C   UNL     1       1.473  14.305  18.672  0.00  0.00    +0.000 C 
ATOM      2  O   UNL     1       0.647  13.110  18.531  0.00  0.00    +0.000 OA
ATOM      3  C   UNL     1       0.935  12.043  19.321  0.00  0.00    +0.000 C 
ATOM      4  O   UNL     1       1.921  11.998  20.038  0.00  0.00    +0.000 OA
ATOM      5  C   UNL     1      -0.057  10.904  19.126  0.00  0.00    +0.000 C 
ATOM      6  C   UNL     1      -1.511  11.354  18.952  0.00  0.00    +0.000 C 
ATOM      7  C   UNL     1       0.121   9.787  20.201  0.00  0.00    +0.000 C 
ATOM      8  C   UNL     1      -0.550  10.026  21.616  0.00  0.00    +0.000 C 
ATOM      9  C   UNL     1      -0.223   8.857  22.559  0.00  0.00    +0.000 C 
ATOM     10  C   UNL     1      -0.295  11.358  22.378  0.00  0.00    +0.000 C 
ATOM     11  C   UNL     1      -1.492  12.352  22.402  0.00  0.00    +0.000 C 
ATOM     12  C   UNL     1      -2.678  11.830  23.220  0.00  0.00    +0.000 C 
ATOM     13  C   UNL     1      -1.062  13.733  22.922  0.00  0.00    +0.000 C 
ATOM     14  O   UNL     1      -1.542  14.257  23.931  0.00  0.00    +0.000 OA
ATOM     15  C   UNL     1       0.042  14.438  22.210  0.00  0.00    +0.000 C 
ATOM     16  C   UNL     1       0.103  14.575  20.874  0.00  0.00    +0.000 C 
ATOM     17  C   UNL     1       1.316  15.047  20.082  0.00  0.00    +0.000 C 
ATOM     18  C   UNL     1       2.610  15.032  20.915  0.00  0.00    +0.000 C 
ENDROOT
BRANCH   1  20
ATOM     19  C   UNL     1       3.566  15.257  17.488  0.00  0.00    +0.000 C 
ATOM     20  C   UNL     1       2.934  14.082  18.212  0.00  0.00    +0.000 C 
ENDBRANCH   1  20
BRANCH  17  21
ATOM     21  O   UNL     1       1.082  16.440  19.795  0.00  0.00    +0.000 OA
ATOM     22  H   UNL     1       1.912  16.925  19.936  0.00  0.00    +0.000 HD
ENDBRANCH  17  21
BRANCH   7  23
ATOM     23  O   UNL     1       1.486   9.260  20.276  0.00  0.00    +0.000 OA
BRANCH  23  24
ATOM     24  C   UNL     1       1.656   7.991  19.588  0.00  0.00    +0.000 C 
ATOM     25  O   UNL     1       1.937   6.997  20.567  0.00  0.00    +0.000 OA
ATOM     26  C   UNL     1       1.846   5.682  20.060  0.00  0.00    +0.000 C 
ATOM     27  C   UNL     1       2.078   4.724  21.223  0.00  0.00    +0.000 C 
ATOM     28  C   UNL     1       2.903   5.460  19.002  0.00  0.00    +0.000 C 
ATOM     29  C   UNL     1       2.874   6.487  17.855  0.00  0.00    +0.000 C 
ATOM     30  C   UNL     1       2.753   7.957  18.454  0.00  0.00    +0.000 C 
BRANCH  29  31
ATOM     31  N   UNL     1       4.046   6.181  16.962  0.00  0.00    +0.000 NA
ATOM     32  C   UNL     1       4.367   4.758  16.861  0.00  0.00    +0.000 C 
ATOM     33  C   UNL     1       5.271   6.905  17.352  0.00  0.00    +0.000 C 
ENDBRANCH  29  31
BRANCH  30  34
ATOM     34  O   UNL     1       2.426   8.884  17.403  0.00  0.00    +0.000 OA
ATOM     35  H   UNL     1       3.237   9.336  17.119  0.00  0.00    +0.000 HD
ENDBRANCH  30  34
ENDBRANCH  23  24
ENDBRANCH   7  23
TORSDOF 6
ENDMDL
MODEL 2
REMARK VINA RESULT:      -6.4      3.318      6.497
REMARK  Name = 
REMARK  14 active torsions:
REMARK  status: ('A' for Active; 'I' for Inactive)
REMARK    1  A    between atoms: C_1  and  C_2
REMARK    2  A    between atoms: C_2  and  C_3
REMARK    3  A    between atoms: C_7  and  C_8
REMARK    4  A    between atoms: C_9  and  O_10
REMARK    5  A    between atoms: O_10  and  C_11
REMARK    6  A    between atoms: C_13  and  C_14
REMARK    7  A    between atoms: C_16  and  N_17
REMARK    8  A    between atoms: N_17  and  C_18
REMARK    9  A    between atoms: N_17  and  C_19
REMARK   10  A    between atoms: C_20  and  O_21
REMARK   11  A    between atoms: C_22  and  C_23
REMARK   12  A    between atoms: C_25  and  C_26
REMARK   13  A    between atoms: C_31  and  C_32
REMARK   14  A    between atoms: C_31  and  O_33
REMARK                            x       y       z     vdW  Elec       q    Type
REMARK                         _______ _______ _______ _____ _____    ______ ____
ROOT
ATOM      1  C   UNL     1      -6.331  12.840  21.974  0.00  0.00    +0.000 C 
ATOM      2  O   UNL     1      -4.970  12.321  22.078  0.00  0.00    +0.000 OA
ATOM      3  C   UNL     1      -3.977  13.024  21.476  0.00  0.00    +0.000 C 
ATOM      4  O   UNL     1      -4.190  13.985  20.754  0.00  0.00    +0.000 OA
ATOM      5  C   UNL     1      -2.606  12.414  21.737  0.00  0.00    +0.000 C 
ATOM      6  C   UNL     1      -2.410  11.884  23.161  0.00  0.00    +0.000 C 
ATOM      7  C   UNL     1      -1.451  13.350  21.261  0.00  0.00    +0.000 C 
ATOM      8  C   UNL     1      -1.026  14.530  22.229  0.00  0.00    +0.000 C 
ATOM      9  C   UNL     1       0.077  15.376  21.574  0.00  0.00    +0.000 C 
ATOM     10  C   UNL     1      -2.107  15.489  22.802  0.00  0.00    +0.000 C 
ATOM     11  C   UNL     1      -2.447  15.287  24.307  0.00  0.00    +0.000 C 
ATOM     12  C   UNL     1      -1.282  15.658  25.231  0.00  0.00    +0.000 C 
ATOM     13  C   UNL     1      -3.706  16.074  24.706  0.00  0.00    +0.000 C 
ATOM     14  O   UNL     1      -3.708  16.957  25.569  0.00  0.00    +0.000 OA
ATOM     15  C   UNL     1      -4.968  15.802  23.962  0.00  0.00    +0.000 C 
ATOM     16  C   UNL     1      -5.438  14.568  23.711  0.00  0.00    +0.000 C 
ATOM     17  C   UNL     1      -6.565  14.223  22.745  0.00  0.00    +0.000 C 
ATOM     18  C   UNL     1      -6.909  15.386  21.797  0.00  0.00    +0.000 C 
ENDROOT
BRANCH   1  20
ATOM     19  C   UNL     1      -7.397  11.442  20.078  0.00  0.00    +0.000 C 
ATOM     20  C   UNL     1      -6.881  12.796  20.528  0.00  0.00    +0.000 C 
ENDBRANCH   1  20
BRANCH  17  21
ATOM     21  O   UNL     1      -7.743  14.054  23.557  0.00  0.00    +0.000 OA
ATOM     22  H   UNL     1      -8.458  14.592  23.177  0.00  0.00    +0.000 HD
ENDBRANCH  17  21
BRANCH   7  23
ATOM     23  O   UNL     1      -1.566  13.750  19.856  0.00  0.00    +0.000 OA
BRANCH  23  24
ATOM     24  C   UNL     1      -1.223  12.692  18.922  0.00  0.00    +0.000 C 
ATOM     25  O   UNL     1      -2.423  12.006  18.579  0.00  0.00    +0.000 OA
ATOM     26  C   UNL     1      -2.267  11.142  17.473  0.00  0.00    +0.000 C 
ATOM     27  C   UNL     1      -3.635  10.547  17.158  0.00  0.00    +0.000 C 
ATOM     28  C   UNL     1      -1.297  10.032  17.813  0.00  0.00    +0.000 C 
ATOM     29  C   UNL     1       0.073  10.524  18.315  0.00  0.00    +0.000 C 
ATOM     30  C   UNL     1      -0.133  11.661  19.410  0.00  0.00    +0.000 C 
BRANCH  29  31
ATOM     31  N   UNL     1       0.862   9.302  18.703  0.00  0.00    +0.000 NA
ATOM     32  C   UNL     1       1.122   9.188  20.138  0.00  0.00    +0.000 C 
ATOM     33  C   UNL     1       2.149   9.197  17.990  0.00  0.00    +0.000 C 
ENDBRANCH  29  31
BRANCH  30  34
ATOM     34  O   UNL     1       1.119  12.326  19.660  0.00  0.00    +0.000 OA
ATOM     35  H   UNL     1       1.057  13.242  19.344  0.00  0.00    +0.000 HD
ENDBRANCH  30  34
ENDBRANCH  23  24
ENDBRANCH   7  23
TORSDOF 6
ENDMDL
MODEL 3
REMARK VINA RESULT:      -6.4      3.386      6.338
REMARK  Name = 
REMARK  14 active torsions:
REMARK  status: ('A' for Active; 'I' for Inactive)
REMARK    1  A    between atoms: C_1  and  C_2
REMARK    2  A    between atoms: C_2  and  C_3
REMARK    3  A    between atoms: C_7  and  C_8
REMARK    4  A    between atoms: C_9  and  O_10
REMARK    5  A    between atoms: O_10  and  C_11
REMARK    6  A    between atoms: C_13  and  C_14
REMARK    7  A    between atoms: C_16  and  N_17
REMARK    8  A    between atoms: N_17  and  C_18
REMARK    9  A    between atoms: N_17  and  C_19
REMARK   10  A    between atoms: C_20  and  O_21
REMARK   11  A    between atoms: C_22  and  C_23
REMARK   12  A    between atoms: C_25  and  C_26
REMARK   13  A    between atoms: C_31  and  C_32
REMARK   14  A    between atoms: C_31  and  O_33
REMARK                            x       y       z     vdW  Elec       q    Type
REMARK                         _______ _______ _______ _____ _____    ______ ____
ROOT
ATOM      1  C   UNL     1      -6.195  12.827  21.515  0.00  0.00    +0.000 C 
ATOM      2  O   UNL     1      -4.906  12.306  21.960  0.00  0.00    +0.000 OA
ATOM      3  C   UNL     1      -3.787  12.970  21.574  0.00  0.00    +0.000 C 
ATOM      4  O   UNL     1      -3.807  13.894  20.776  0.00  0.00    +0.000 OA
ATOM      5  C   UNL     1      -2.527  12.366  22.179  0.00  0.00    +0.000 C 
ATOM      6  C   UNL     1      -2.679  11.909  23.633  0.00  0.00    +0.000 C 
ATOM      7  C   UNL     1      -1.276  13.269  21.942  0.00  0.00    +0.000 C 
ATOM      8  C   UNL     1      -1.067  14.494  22.924  0.00  0.00    +0.000 C 
ATOM      9  C   UNL     1       0.174  15.299  22.506  0.00  0.00    +0.000 C 
ATOM     10  C   UNL     1      -2.235  15.489  23.181  0.00  0.00    +0.000 C 
ATOM     11  C   UNL     1      -2.921  15.367  24.572  0.00  0.00    +0.000 C 
ATOM     12  C   UNL     1      -1.999  15.778  25.724  0.00  0.00    +0.000 C 
ATOM     13  C   UNL     1      -4.224  16.181  24.626  0.00  0.00    +0.000 C 
ATOM     14  O   UNL     1      -4.412  17.108  25.420  0.00  0.00    +0.000 OA
ATOM     15  C   UNL     1      -5.282  15.880  23.620  0.00  0.00    +0.000 C 
ATOM     16  C   UNL     1      -5.703  14.637  23.326  0.00  0.00    +0.000 C 
ATOM     17  C   UNL     1      -6.578  14.250  22.140  0.00  0.00    +0.000 C 
ATOM     18  C   UNL     1      -6.669  15.365  21.083  0.00  0.00    +0.000 C 
ENDROOT
BRANCH   1  20
ATOM     19  C   UNL     1      -7.514  11.789  19.548  0.00  0.00    +0.000 C 
ATOM     20  C   UNL     1      -6.392  12.713  19.984  0.00  0.00    +0.000 C 
ENDBRANCH   1  20
BRANCH  17  21
ATOM     21  O   UNL     1      -7.917  14.130  22.661  0.00  0.00    +0.000 OA
ATOM     22  H   UNL     1      -7.887  14.276  23.621  0.00  0.00    +0.000 HD
ENDBRANCH  17  21
BRANCH   7  23
ATOM     23  O   UNL     1      -1.051  13.597  20.532  0.00  0.00    +0.000 OA
BRANCH  23  24
ATOM     24  C   UNL     1      -0.468  12.507  19.769  0.00  0.00    +0.000 C 
ATOM     25  O   UNL     1      -1.526  11.815  19.115  0.00  0.00    +0.000 OA
ATOM     26  C   UNL     1      -1.070  10.915  18.128  0.00  0.00    +0.000 C 
ATOM     27  C   UNL     1      -2.297  10.316  17.450  0.00  0.00    +0.000 C 
ATOM     28  C   UNL     1      -0.254   9.813  18.767  0.00  0.00    +0.000 C 
ATOM     29  C   UNL     1       0.919  10.315  19.628  0.00  0.00    +0.000 C 
ATOM     30  C   UNL     1       0.422  11.488  20.582  0.00  0.00    +0.000 C 
BRANCH  29  31
ATOM     31  N   UNL     1       1.546   9.104  20.264  0.00  0.00    +0.000 NA
ATOM     32  C   UNL     1       1.922   8.056  19.317  0.00  0.00    +0.000 C 
ATOM     33  C   UNL     1       0.698   8.498  21.309  0.00  0.00    +0.000 C 
ENDBRANCH  29  31
BRANCH  30  34
ATOM     34  O   UNL     1       1.557  12.156  21.163  0.00  0.00    +0.000 OA
ATOM     35  H   UNL     1       1.614  13.054  20.798  0.00  0.00    +0.000 HD
ENDBRANCH  30  34
ENDBRANCH  23  24
ENDBRANCH   7  23
TORSDOF 6
ENDMDL
MODEL 4
REMARK VINA RESULT:      -6.3      3.718      6.942
REMARK  Name = 
REMARK  14 active torsions:
REMARK  status: ('A' for Active; 'I' for Inactive)
REMARK    1  A    between atoms: C_1  and  C_2
REMARK    2  A    between atoms: C_2  and  C_3
REMARK    3  A    between atoms: C_7  and  C_8
REMARK    4  A    between atoms: C_9  and  O_10
REMARK    5  A    between atoms: O_10  and  C_11
REMARK    6  A    between atoms: C_13  and  C_14
REMARK    7  A    between atoms: C_16  and  N_17
REMARK    8  A    between atoms: N_17  and  C_18
REMARK    9  A    between atoms: N_17  and  C_19
REMARK   10  A    between atoms: C_20  and  O_21
REMARK   11  A    between atoms: C_22  and  C_23
REMARK   12  A    between atoms: C_25  and  C_26
REMARK   13  A    between atoms: C_31  and  C_32
REMARK   14  A    between atoms: C_31  and  O_33
REMARK                            x       y       z     vdW  Elec       q    Type
REMARK                         _______ _______ _______ _____ _____    ______ ____
ROOT
ATOM      1  C   UNL     1      -6.134  12.997  22.823  0.00  0.00    +0.000 C 
ATOM      2  O   UNL     1      -4.790  12.432  22.897  0.00  0.00    +0.000 OA
ATOM      3  C   UNL     1      -3.842  12.938  22.066  0.00  0.00    +0.000 C 
ATOM      4  O   UNL     1      -4.097  13.743  21.185  0.00  0.00    +0.000 OA
ATOM      5  C   UNL     1      -2.475  12.315  22.311  0.00  0.00    +0.000 C 
ATOM      6  C   UNL     1      -2.145  12.074  23.788  0.00  0.00    +0.000 C 
ATOM      7  C   UNL     1      -1.345  13.066  21.539  0.00  0.00    +0.000 C 
ATOM      8  C   UNL     1      -0.774  14.390  22.194  0.00  0.00    +0.000 C 
ATOM      9  C   UNL     1       0.282  15.020  21.271  0.00  0.00    +0.000 C 
ATOM     10  C   UNL     1      -1.750  15.507  22.659  0.00  0.00    +0.000 C 
ATOM     11  C   UNL     1      -1.931  15.636  24.200  0.00  0.00    +0.000 C 
ATOM     12  C   UNL     1      -0.660  16.118  24.906  0.00  0.00    +0.000 C 
ATOM     13  C   UNL     1      -3.109  16.559  24.549  0.00  0.00    +0.000 C 
ATOM     14  O   UNL     1      -2.985  17.598  25.205  0.00  0.00    +0.000 OA
ATOM     15  C   UNL     1      -4.455  16.217  24.006  0.00  0.00    +0.000 C 
ATOM     16  C   UNL     1      -4.994  14.987  24.065  0.00  0.00    +0.000 C 
ATOM     17  C   UNL     1      -6.231  14.519  23.308  0.00  0.00    +0.000 C 
ATOM     18  C   UNL     1      -6.633  15.484  22.178  0.00  0.00    +0.000 C 
ENDROOT
BRANCH   1  20
ATOM     19  C   UNL     1      -7.767  11.493  21.497  0.00  0.00    +0.000 C 
ATOM     20  C   UNL     1      -6.839  12.694  21.479  0.00  0.00    +0.000 C 
ENDBRANCH   1  20
BRANCH  17  21
ATOM     21  O   UNL     1      -7.320  14.588  24.250  0.00  0.00    +0.000 OA
ATOM     22  H   UNL     1      -8.078  14.108  23.878  0.00  0.00    +0.000 HD
ENDBRANCH  17  21
BRANCH   7  23
ATOM     23  O   UNL     1      -1.597  13.179  20.100  0.00  0.00    +0.000 OA
BRANCH  23  24
ATOM     24  C   UNL     1      -1.765  11.896  19.439  0.00  0.00    +0.000 C 
ATOM     25  O   UNL     1      -0.494  11.492  18.940  0.00  0.00    +0.000 OA
ATOM     26  C   UNL     1      -0.468  10.143  18.525  0.00  0.00    +0.000 C 
ATOM     27  C   UNL     1       0.961   9.819  18.104  0.00  0.00    +0.000 C 
ATOM     28  C   UNL     1      -1.401   9.942  17.351  0.00  0.00    +0.000 C 
ATOM     29  C   UNL     1      -2.847  10.403  17.609  0.00  0.00    +0.000 C 
ATOM     30  C   UNL     1      -2.839  11.845  18.284  0.00  0.00    +0.000 C 
BRANCH  29  31
ATOM     31  N   UNL     1      -3.598  10.232  16.316  0.00  0.00    +0.000 NA
ATOM     32  C   UNL     1      -2.748   9.947  15.161  0.00  0.00    +0.000 C 
ATOM     33  C   UNL     1      -4.451  11.390  15.987  0.00  0.00    +0.000 C 
ENDBRANCH  29  31
BRANCH  30  34
ATOM     34  O   UNL     1      -4.150  12.149  18.795  0.00  0.00    +0.000 OA
ATOM     35  H   UNL     1      -4.386  13.054  18.535  0.00  0.00    +0.000 HD
ENDBRANCH  30  34
ENDBRANCH  23  24
ENDBRANCH   7  23
TORSDOF 6
ENDMDL
MODEL 5
REMARK VINA RESULT:      -5.9      3.779      6.529
REMARK  Name = 
REMARK  14 active torsions:
REMARK  status: ('A' for Active; 'I' for Inactive)
REMARK    1  A    between atoms: C_1  and  C_2
REMARK    2  A    between atoms: C_2  and  C_3
REMARK    3  A    between atoms: C_7  and  C_8
REMARK    4  A    between atoms: C_9  and  O_10
REMARK    5  A    between atoms: O_10  and  C_11
REMARK    6  A    between atoms: C_13  and  C_14
REMARK    7  A    between atoms: C_16  and  N_17
REMARK    8  A    between atoms: N_17  and  C_18
REMARK    9  A    between atoms: N_17  and  C_19
REMARK   10  A    between atoms: C_20  and  O_21
REMARK   11  A    between atoms: C_22  and  C_23
REMARK   12  A    between atoms: C_25  and  C_26
REMARK   13  A    between atoms: C_31  and  C_32
REMARK   14  A    between atoms: C_31  and  O_33
REMARK                            x       y       z     vdW  Elec       q    Type
REMARK                         _______ _______ _______ _____ _____    ______ ____
ROOT
ATOM      1  C   UNL     1      -5.986  12.501  20.677  0.00  0.00    +0.000 C 
ATOM      2  O   UNL     1      -5.207  12.292  21.894  0.00  0.00    +0.000 OA
ATOM      3  C   UNL     1      -4.000  12.906  21.987  0.00  0.00    +0.000 C 
ATOM      4  O   UNL     1      -3.491  13.510  21.055  0.00  0.00    +0.000 OA
ATOM      5  C   UNL     1      -3.340  12.669  23.338  0.00  0.00    +0.000 C 
ATOM      6  C   UNL     1      -4.305  12.700  24.527  0.00  0.00    +0.000 C 
ATOM      7  C   UNL     1      -2.081  13.569  23.538  0.00  0.00    +0.000 C 
ATOM      8  C   UNL     1      -2.323  15.063  24.005  0.00  0.00    +0.000 C 
ATOM      9  C   UNL     1      -0.982  15.811  24.092  0.00  0.00    +0.000 C 
ATOM     10  C   UNL     1      -3.337  15.959  23.239  0.00  0.00    +0.000 C 
ATOM     11  C   UNL     1      -4.679  16.230  23.979  0.00  0.00    +0.000 C 
ATOM     12  C   UNL     1      -4.499  17.090  25.234  0.00  0.00    +0.000 C 
ATOM     13  C   UNL     1      -5.713  16.876  23.043  0.00  0.00    +0.000 C 
ATOM     14  O   UNL     1      -6.211  17.987  23.247  0.00  0.00    +0.000 OA
ATOM     15  C   UNL     1      -6.074  16.153  21.791  0.00  0.00    +0.000 C 
ATOM     16  C   UNL     1      -6.386  14.846  21.745  0.00  0.00    +0.000 C 
ATOM     17  C   UNL     1      -6.506  14.002  20.482  0.00  0.00    +0.000 C 
ATOM     18  C   UNL     1      -5.897  14.693  19.249  0.00  0.00    +0.000 C 
ENDROOT
BRANCH   1  20
ATOM     19  C   UNL     1      -6.262  11.064  18.545  0.00  0.00    +0.000 C 
ATOM     20  C   UNL     1      -5.327  11.871  19.427  0.00  0.00    +0.000 C 
ENDBRANCH   1  20
BRANCH  17  21
ATOM     21  O   UNL     1      -7.916  13.921  20.195  0.00  0.00    +0.000 OA
ATOM     22  H   UNL     1      -8.042  14.035  19.238  0.00  0.00    +0.000 HD
ENDBRANCH  17  21
BRANCH   7  23
ATOM     23  O   UNL     1      -1.093  13.438  22.464  0.00  0.00    +0.000 OA
BRANCH  23  24
ATOM     24  C   UNL     1      -0.980  12.087  21.942  0.00  0.00    +0.000 C 
ATOM     25  O   UNL     1      -0.240  11.315  22.882  0.00  0.00    +0.000 OA
ATOM     26  C   UNL     1      -0.301   9.928  22.626  0.00  0.00    +0.000 C 
ATOM     27  C   UNL     1       0.450   9.220  23.748  0.00  0.00    +0.000 C 
ATOM     28  C   UNL     1       0.355   9.614  21.300  0.00  0.00    +0.000 C 
ATOM     29  C   UNL     1      -0.213  10.411  20.111  0.00  0.00    +0.000 C 
ATOM     30  C   UNL     1      -0.340  11.948  20.506  0.00  0.00    +0.000 C 
BRANCH  29  31
ATOM     31  N   UNL     1       0.618  10.056  18.908  0.00  0.00    +0.000 NA
ATOM     32  C   UNL     1       1.624  11.058  18.558  0.00  0.00    +0.000 C 
ATOM     33  C   UNL     1      -0.194   9.779  17.708  0.00  0.00    +0.000 C 
ENDBRANCH  29  31
BRANCH  30  34
ATOM     34  O   UNL     1      -1.138  12.637  19.526  0.00  0.00    +0.000 OA
ATOM     35  H   UNL     1      -1.781  13.201  19.984  0.00  0.00    +0.000 HD
ENDBRANCH  30  34
ENDBRANCH  23  24
ENDBRANCH   7  23
TORSDOF 6
ENDMDL
MODEL 6
REMARK VINA RESULT:      -5.9      3.549      6.053
REMARK  Name = 
REMARK  14 active torsions:
REMARK  status: ('A' for Active; 'I' for Inactive)
REMARK    1  A    between atoms: C_1  and  C_2
REMARK    2  A    between atoms: C_2  and  C_3
REMARK    3  A    between atoms: C_7  and  C_8
REMARK    4  A    between atoms: C_9  and  O_10
REMARK    5  A    between atoms: O_10  and  C_11
REMARK    6  A    between atoms: C_13  and  C_14
REMARK    7  A    between atoms: C_16  and  N_17
REMARK    8  A    between atoms: N_17  and  C_18
REMARK    9  A    between atoms: N_17  and  C_19
REMARK   10  A    between atoms: C_20  and  O_21
REMARK   11  A    between atoms: C_22  and  C_23
REMARK   12  A    between atoms: C_25  and  C_26
REMARK   13  A    between atoms: C_31  and  C_32
REMARK   14  A    between atoms: C_31  and  O_33
REMARK                            x       y       z     vdW  Elec       q    Type
REMARK                         _______ _______ _______ _____ _____    ______ ____
ROOT
ATOM      1  C   UNL     1      -6.301  12.719  21.526  0.00  0.00    +0.000 C 
ATOM      2  O   UNL     1      -4.996  12.569  22.161  0.00  0.00    +0.000 OA
ATOM      3  C   UNL     1      -3.892  12.719  21.385  0.00  0.00    +0.000 C 
ATOM      4  O   UNL     1      -3.948  12.843  20.172  0.00  0.00    +0.000 OA
ATOM      5  C   UNL     1      -2.606  12.619  22.194  0.00  0.00    +0.000 C 
ATOM      6  C   UNL     1      -2.670  13.294  23.568  0.00  0.00    +0.000 C 
ATOM      7  C   UNL     1      -1.357  13.036  21.357  0.00  0.00    +0.000 C 
ATOM      8  C   UNL     1      -1.059  14.586  21.219  0.00  0.00    +0.000 C 
ATOM      9  C   UNL     1       0.167  14.808  20.318  0.00  0.00    +0.000 C 
ATOM     10  C   UNL     1      -2.187  15.553  20.761  0.00  0.00    +0.000 C 
ATOM     11  C   UNL     1      -2.781  16.461  21.878  0.00  0.00    +0.000 C 
ATOM     12  C   UNL     1      -1.775  17.493  22.397  0.00  0.00    +0.000 C 
ATOM     13  C   UNL     1      -4.061  17.166  21.402  0.00  0.00    +0.000 C 
ATOM     14  O   UNL     1      -4.177  18.394  21.347  0.00  0.00    +0.000 OA
ATOM     15  C   UNL     1      -5.190  16.322  20.918  0.00  0.00    +0.000 C 
ATOM     16  C   UNL     1      -5.653  15.244  21.575  0.00  0.00    +0.000 C 
ATOM     17  C   UNL     1      -6.613  14.203  21.013  0.00  0.00    +0.000 C 
ATOM     18  C   UNL     1      -6.754  14.292  19.483  0.00  0.00    +0.000 C 
ENDROOT
BRANCH   1  20
ATOM     19  C   UNL     1      -7.802  10.729  20.835  0.00  0.00    +0.000 C 
ATOM     20  C   UNL     1      -6.603  11.598  20.502  0.00  0.00    +0.000 C 
ENDBRANCH   1  20
BRANCH  17  21
ATOM     21  O   UNL     1      -7.916  14.554  21.520  0.00  0.00    +0.000 OA
ATOM     22  H   UNL     1      -8.550  14.527  20.784  0.00  0.00    +0.000 HD
ENDBRANCH  17  21
BRANCH   7  23
ATOM     23  O   UNL     1      -1.221  12.294  20.101  0.00  0.00    +0.000 OA
BRANCH  23  24
ATOM     24  C   UNL     1      -0.763  10.927  20.283  0.00  0.00    +0.000 C 
ATOM     25  O   UNL     1      -0.386  10.769  21.646  0.00  0.00    +0.000 OA
ATOM     26  C   UNL     1      -0.190   9.420  22.012  0.00  0.00    +0.000 C 
ATOM     27  C   UNL     1       0.118   9.388  23.505  0.00  0.00    +0.000 C 
ATOM     28  C   UNL     1       0.974   8.836  21.242  0.00  0.00    +0.000 C 
ATOM     29  C   UNL     1       0.850   8.972  19.713  0.00  0.00    +0.000 C 
ATOM     30  C   UNL     1       0.411  10.456  19.340  0.00  0.00    +0.000 C 
BRANCH  29  31
ATOM     31  N   UNL     1       2.128   8.443  19.121  0.00  0.00    +0.000 NA
ATOM     32  C   UNL     1       2.202   8.545  17.664  0.00  0.00    +0.000 C 
ATOM     33  C   UNL     1       2.403   7.043  19.500  0.00  0.00    +0.000 C 
ENDBRANCH  29  31
BRANCH  30  34
ATOM     34  O   UNL     1       0.007  10.509  17.959  0.00  0.00    +0.000 OA
ATOM     35  H   UNL     1       0.535   9.872  17.452  0.00  0.00    +0.000 HD
ENDBRANCH  30  34
ENDBRANCH  23  24
ENDBRANCH   7  23
TORSDOF 6
ENDMDL
MODEL 7
REMARK VINA RESULT:      -5.6      4.221      8.424
REMARK  Name = 
REMARK  14 active torsions:
REMARK  status: ('A' for Active; 'I' for Inactive)
REMARK    1  A    between atoms: C_1  and  C_2
REMARK    2  A    between atoms: C_2  and  C_3
REMARK    3  A    between atoms: C_7  and  C_8
REMARK    4  A    between atoms: C_9  and  O_10
REMARK    5  A    between atoms: O_10  and  C_11
REMARK    6  A    between atoms: C_13  and  C_14
REMARK    7  A    between atoms: C_16  and  N_17
REMARK    8  A    between atoms: N_17  and  C_18
REMARK    9  A    between atoms: N_17  and  C_19
REMARK   10  A    between atoms: C_20  and  O_21
REMARK   11  A    between atoms: C_22  and  C_23
REMARK   12  A    between atoms: C_25  and  C_26
REMARK   13  A    between atoms: C_31  and  C_32
REMARK   14  A    between atoms: C_31  and  O_33
REMARK                            x       y       z     vdW  Elec       q    Type
REMARK                         _______ _______ _______ _____ _____    ______ ____
ROOT
ATOM      1  C   UNL     1      -0.290  12.357  18.538  0.00  0.00    +0.000 C 
ATOM      2  O   UNL     1      -0.846  13.673  18.839  0.00  0.00    +0.000 OA
ATOM      3  C   UNL     1      -1.051  13.991  20.143  0.00  0.00    +0.000 C 
ATOM      4  O   UNL     1      -0.914  13.186  21.050  0.00  0.00    +0.000 OA
ATOM      5  C   UNL     1      -1.553  15.419  20.311  0.00  0.00    +0.000 C 
ATOM      6  C   UNL     1      -0.894  16.435  19.372  0.00  0.00    +0.000 C 
ATOM      7  C   UNL     1      -1.550  15.866  21.806  0.00  0.00    +0.000 C 
ATOM      8  C   UNL     1      -0.173  16.359  22.415  0.00  0.00    +0.000 C 
ATOM      9  C   UNL     1      -0.348  16.701  23.903  0.00  0.00    +0.000 C 
ATOM     10  C   UNL     1       1.101  15.483  22.257  0.00  0.00    +0.000 C 
ATOM     11  C   UNL     1       2.148  16.006  21.231  0.00  0.00    +0.000 C 
ATOM     12  C   UNL     1       2.810  17.314  21.677  0.00  0.00    +0.000 C 
ATOM     13  C   UNL     1       3.223  14.947  20.939  0.00  0.00    +0.000 C 
ATOM     14  O   UNL     1       4.425  15.121  21.162  0.00  0.00    +0.000 OA
ATOM     15  C   UNL     1       2.778  13.618  20.429  0.00  0.00    +0.000 C 
ATOM     16  C   UNL     1       1.901  13.459  19.423  0.00  0.00    +0.000 C 
ATOM     17  C   UNL     1       1.217  12.154  19.036  0.00  0.00    +0.000 C 
ATOM     18  C   UNL     1       1.348  11.072  20.123  0.00  0.00    +0.000 C 
ENDROOT
BRANCH   1  20
ATOM     19  C   UNL     1      -1.779  10.412  17.707  0.00  0.00    +0.000 C 
ATOM     20  C   UNL     1      -1.257  11.202  18.893  0.00  0.00    +0.000 C 
ENDBRANCH   1  20
BRANCH  17  21
ATOM     21  O   UNL     1       1.960  11.636  17.915  0.00  0.00    +0.000 OA
ATOM     22  H   UNL     1       2.386  12.381  17.458  0.00  0.00    +0.000 HD
ENDBRANCH  17  21
BRANCH   7  23
ATOM     23  O   UNL     1      -2.295  14.963  22.687  0.00  0.00    +0.000 OA
BRANCH  23  24
ATOM     24  C   UNL     1      -3.704  14.855  22.348  0.00  0.00    +0.000 C 
ATOM     25  O   UNL     1      -4.422  15.773  23.165  0.00  0.00    +0.000 OA
ATOM     26  C   UNL     1      -5.755  15.965  22.740  0.00  0.00    +0.000 C 
ATOM     27  C   UNL     1      -6.375  17.029  23.638  0.00  0.00    +0.000 C 
ATOM     28  C   UNL     1      -6.533  14.674  22.872  0.00  0.00    +0.000 C 
ATOM     29  C   UNL     1      -5.897  13.476  22.142  0.00  0.00    +0.000 C 
ATOM     30  C   UNL     1      -4.340  13.415  22.467  0.00  0.00    +0.000 C 
BRANCH  29  31
ATOM     31  N   UNL     1      -6.735  12.270  22.467  0.00  0.00    +0.000 NA
ATOM     32  C   UNL     1      -7.523  11.767  21.342  0.00  0.00    +0.000 C 
ATOM     33  C   UNL     1      -7.645  12.490  23.607  0.00  0.00    +0.000 C 
ENDBRANCH  29  31
BRANCH  30  34
ATOM     34  O   UNL     1      -3.692  12.498  21.567  0.00  0.00    +0.000 OA
ATOM     35  H   UNL     1      -3.308  11.770  22.082  0.00  0.00    +0.000 HD
ENDBRANCH  30  34
ENDBRANCH  23  24
ENDBRANCH   7  23
TORSDOF 6
ENDMDL
MODEL 8
REMARK VINA RESULT:      -5.6      4.857      7.366
REMARK  Name = 
REMARK  14 active torsions:
REMARK  status: ('A' for Active; 'I' for Inactive)
REMARK    1  A    between atoms: C_1  and  C_2
REMARK    2  A    between atoms: C_2  and  C_3
REMARK    3  A    between atoms: C_7  and  C_8
REMARK    4  A    between atoms: C_9  and  O_10
REMARK    5  A    between atoms: O_10  and  C_11
REMARK    6  A    between atoms: C_13  and  C_14
REMARK    7  A    between atoms: C_16  and  N_17
REMARK    8  A    between atoms: N_17  and  C_18
REMARK    9  A    between atoms: N_17  and  C_19
REMARK   10  A    between atoms: C_20  and  O_21
REMARK   11  A    between atoms: C_22  and  C_23
REMARK   12  A    between atoms: C_25  and  C_26
REMARK   13  A    between atoms: C_31  and  C_32
REMARK   14  A    between atoms: C_31  and  O_33
REMARK                            x       y       z     vdW  Elec       q    Type
REMARK                         _______ _______ _______ _____ _____    ______ ____
ROOT
ATOM      1  C   UNL     1      -3.483  13.485  24.156  0.00  0.00    +0.000 C 
ATOM      2  O   UNL     1      -2.618  12.645  23.333  0.00  0.00    +0.000 OA
ATOM      3  C   UNL     1      -2.371  13.047  22.059  0.00  0.00    +0.000 C 
ATOM      4  O   UNL     1      -2.939  13.996  21.543  0.00  0.00    +0.000 OA
ATOM      5  C   UNL     1      -1.391  12.123  21.349  0.00  0.00    +0.000 C 
ATOM      6  C   UNL     1      -0.239  11.627  22.228  0.00  0.00    +0.000 C 
ATOM      7  C   UNL     1      -0.917  12.716  19.985  0.00  0.00    +0.000 C 
ATOM      8  C   UNL     1       0.244  13.793  20.024  0.00  0.00    +0.000 C 
ATOM      9  C   UNL     1       0.537  14.303  18.604  0.00  0.00    +0.000 C 
ATOM     10  C   UNL     1       0.131  15.018  20.973  0.00  0.00    +0.000 C 
ATOM     11  C   UNL     1       1.052  14.978  22.227  0.00  0.00    +0.000 C 
ATOM     12  C   UNL     1       2.539  15.086  21.872  0.00  0.00    +0.000 C 
ATOM     13  C   UNL     1       0.672  16.074  23.236  0.00  0.00    +0.000 C 
ATOM     14  O   UNL     1       1.447  16.968  23.589  0.00  0.00    +0.000 OA
ATOM     15  C   UNL     1      -0.725  16.096  23.755  0.00  0.00    +0.000 C 
ATOM     16  C   UNL     1      -1.369  15.010  24.217  0.00  0.00    +0.000 C 
ATOM     17  C   UNL     1      -2.861  14.916  24.511  0.00  0.00    +0.000 C 
ATOM     18  C   UNL     1      -3.658  16.084  23.903  0.00  0.00    +0.000 C 
ENDROOT
BRANCH   1  20
ATOM     19  C   UNL     1      -5.895  12.578  24.376  0.00  0.00    +0.000 C 
ATOM     20  C   UNL     1      -4.946  13.516  23.652  0.00  0.00    +0.000 C 
ENDBRANCH   1  20
BRANCH  17  21
ATOM     21  O   UNL     1      -2.993  15.087  25.936  0.00  0.00    +0.000 OA
ATOM     22  H   UNL     1      -3.718  15.711  26.104  0.00  0.00    +0.000 HD
ENDBRANCH  17  21
BRANCH   7  23
ATOM     23  O   UNL     1      -2.020  13.067  19.086  0.00  0.00    +0.000 OA
BRANCH  23  24
ATOM     24  C   UNL     1      -2.831  11.929  18.691  0.00  0.00    +0.000 C 
ATOM     25  O   UNL     1      -2.563  11.655  17.321  0.00  0.00    +0.000 OA
ATOM     26  C   UNL     1      -3.074  10.409  16.897  0.00  0.00    +0.000 C 
ATOM     27  C   UNL     1      -2.642  10.202  15.450  0.00  0.00    +0.000 C 
ATOM     28  C   UNL     1      -4.585  10.412  16.979  0.00  0.00    +0.000 C 
ATOM     29  C   UNL     1      -5.140  10.783  18.367  0.00  0.00    +0.000 C 
ATOM     30  C   UNL     1      -4.386  12.071  18.919  0.00  0.00    +0.000 C 
BRANCH  29  31
ATOM     31  N   UNL     1      -6.638  10.841  18.238  0.00  0.00    +0.000 NA
ATOM     32  C   UNL     1      -7.161  12.166  17.908  0.00  0.00    +0.000 C 
ATOM     33  C   UNL     1      -7.339  10.355  19.442  0.00  0.00    +0.000 C 
ENDBRANCH  29  31
BRANCH  30  34
ATOM     34  O   UNL     1      -4.681  12.244  20.318  0.00  0.00    +0.000 OA
ATOM     35  H   UNL     1      -4.027  11.752  20.840  0.00  0.00    +0.000 HD
ENDBRANCH  30  34
ENDBRANCH  23  24
ENDBRANCH   7  23
TORSDOF 6
ENDMDL
MODEL 9
REMARK VINA RESULT:      -5.6      3.602      6.992
REMARK  Name = 
REMARK  14 active torsions:
REMARK  status: ('A' for Active; 'I' for Inactive)
REMARK    1  A    between atoms: C_1  and  C_2
REMARK    2  A    between atoms: C_2  and  C_3
REMARK    3  A    between atoms: C_7  and  C_8
REMARK    4  A    between atoms: C_9  and  O_10
REMARK    5  A    between atoms: O_10  and  C_11
REMARK    6  A    between atoms: C_13  and  C_14
REMARK    7  A    between atoms: C_16  and  N_17
REMARK    8  A    between atoms: N_17  and  C_18
REMARK    9  A    between atoms: N_17  and  C_19
REMARK   10  A    between atoms: C_20  and  O_21
REMARK   11  A    between atoms: C_22  and  C_23
REMARK   12  A    between atoms: C_25  and  C_26
REMARK   13  A    between atoms: C_31  and  C_32
REMARK   14  A    between atoms: C_31  and  O_33
REMARK                            x       y       z     vdW  Elec       q    Type
REMARK                         _______ _______ _______ _____ _____    ______ ____
ROOT
ATOM      1  C   UNL     1      -6.093  12.512  21.364  0.00  0.00    +0.000 C 
ATOM      2  O   UNL     1      -4.684  12.258  21.646  0.00  0.00    +0.000 OA
ATOM      3  C   UNL     1      -3.776  13.168  21.209  0.00  0.00    +0.000 C 
ATOM      4  O   UNL     1      -4.074  14.107  20.488  0.00  0.00    +0.000 OA
ATOM      5  C   UNL     1      -2.360  12.817  21.645  0.00  0.00    +0.000 C 
ATOM      6  C   UNL     1      -2.256  12.260  23.068  0.00  0.00    +0.000 C 
ATOM      7  C   UNL     1      -1.358  13.980  21.361  0.00  0.00    +0.000 C 
ATOM      8  C   UNL     1      -1.305  15.167  22.409  0.00  0.00    +0.000 C 
ATOM      9  C   UNL     1      -0.312  16.241  21.939  0.00  0.00    +0.000 C 
ATOM     10  C   UNL     1      -2.620  15.871  22.848  0.00  0.00    +0.000 C 
ATOM     11  C   UNL     1      -3.112  15.529  24.285  0.00  0.00    +0.000 C 
ATOM     12  C   UNL     1      -2.177  16.067  25.373  0.00  0.00    +0.000 C 
ATOM     13  C   UNL     1      -4.543  16.039  24.522  0.00  0.00    +0.000 C 
ATOM     14  O   UNL     1      -4.833  16.860  25.398  0.00  0.00    +0.000 OA
ATOM     15  C   UNL     1      -5.617  15.572  23.599  0.00  0.00    +0.000 C 
ATOM     16  C   UNL     1      -5.798  14.285  23.253  0.00  0.00    +0.000 C 
ATOM     17  C   UNL     1      -6.695  13.783  22.129  0.00  0.00    +0.000 C 
ATOM     18  C   UNL     1      -7.130  14.908  21.172  0.00  0.00    +0.000 C 
ENDROOT
BRANCH   1  20
ATOM     19  C   UNL     1      -6.202  11.085  19.211  0.00  0.00    +0.000 C 
ATOM     20  C   UNL     1      -6.426  12.441  19.855  0.00  0.00    +0.000 C 
ENDBRANCH   1  20
BRANCH  17  21
ATOM     21  O   UNL     1      -7.915  13.350  22.762  0.00  0.00    +0.000 OA
ATOM     22  H   UNL     1      -7.685  12.818  23.542  0.00  0.00    +0.000 HD
ENDBRANCH  17  21
BRANCH   7  23
ATOM     23  O   UNL     1      -1.360  14.425  19.965  0.00  0.00    +0.000 OA
BRANCH  23  24
ATOM     24  C   UNL     1      -0.276  13.864  19.177  0.00  0.00    +0.000 C 
ATOM     25  O   UNL     1      -0.036  12.540  19.642  0.00  0.00    +0.000 OA
ATOM     26  C   UNL     1       0.797  11.795  18.779  0.00  0.00    +0.000 C 
ATOM     27  C   UNL     1       0.897  10.382  19.343  0.00  0.00    +0.000 C 
ATOM     28  C   UNL     1       2.175  12.417  18.723  0.00  0.00    +0.000 C 
ATOM     29  C   UNL     1       2.180  13.906  18.330  0.00  0.00    +0.000 C 
ATOM     30  C   UNL     1       1.072  14.685  19.166  0.00  0.00    +0.000 C 
BRANCH  29  31
ATOM     31  N   UNL     1       3.604  14.380  18.428  0.00  0.00    +0.000 NA
ATOM     32  C   UNL     1       3.986  14.861  19.755  0.00  0.00    +0.000 C 
ATOM     33  C   UNL     1       3.931  15.431  17.445  0.00  0.00    +0.000 C 
ENDBRANCH  29  31
BRANCH  30  34
ATOM     34  O   UNL     1       0.867  15.992  18.599  0.00  0.00    +0.000 OA
ATOM     35  H   UNL     1       1.590  16.183  17.980  0.00  0.00    +0.000 HD
ENDBRANCH  30  34
ENDBRANCH  23  24
ENDBRANCH   7  23
TORSDOF 6
ENDMDL
