MODEL 1
REMARK VINA RESULT:      -6.7      0.000      0.000
REMARK  Name = 
REMARK  7 active torsions:
REMARK  status: ('A' for Active; 'I' for Inactive)
REMARK    1  A    between atoms: C_1  and  C_2
REMARK    2  A    between atoms: C_8  and  C_9
REMARK    3  A    between atoms: C_8  and  C_10
REMARK    4  A    between atoms: C_17  and  O_18
REMARK    5  A    between atoms: O_18  and  C_19
REMARK    6  A    between atoms: C_19  and  C_20
REMARK    7  A    between atoms: C_28  and  C_29
REMARK                            x       y       z     vdW  Elec       q    Type
REMARK                         _______ _______ _______ _____ _____    ______ ____
ROOT
ATOM      1  C   UNL     1      -3.187  18.384  22.788  0.00  0.00    +0.000 C 
ATOM      2  C   UNL     1      -3.210  16.951  22.336  0.00  0.00    +0.000 A 
ATOM      3  N   UNL     1      -4.380  16.388  21.966  0.00  0.00    +0.000 NA
ATOM      4  C   UNL     1      -4.314  15.151  21.402  0.00  0.00    +0.000 A 
ATOM      5  C   UNL     1      -3.143  14.449  21.158  0.00  0.00    +0.000 A 
ATOM      6  C   UNL     1      -1.978  15.170  21.510  0.00  0.00    +0.000 A 
ATOM      7  N   UNL     1      -2.015  16.364  22.158  0.00  0.00    +0.000 NA
ATOM      8  C   UNL     1      -0.597  14.815  20.869  0.00  0.00    +0.000 C 
ATOM      9  C   UNL     1       0.442  14.353  21.897  0.00  0.00    +0.000 C 
ATOM     10  C   UNL     1      -0.075  16.124  20.229  0.00  0.00    +0.000 C 
ATOM     11  C   UNL     1      -0.929  13.748  19.812  0.00  0.00    +0.000 C 
ATOM     12  C   UNL     1      -0.297  13.466  18.418  0.00  0.00    +0.000 C 
ATOM     13  C   UNL     1      -1.249  12.440  17.625  0.00  0.00    +0.000 C 
ATOM     14  C   UNL     1      -1.409  11.114  18.409  0.00  0.00    +0.000 A 
ATOM     15  C   UNL     1      -1.163   9.916  17.750  0.00  0.00    +0.000 A 
ATOM     16  C   UNL     1       0.067   9.309  17.948  0.00  0.00    +0.000 A 
ATOM     17  C   UNL     1       1.008   9.871  18.815  0.00  0.00    +0.000 A 
ATOM     18  C   UNL     1       0.490  10.786  19.774  0.00  0.00    +0.000 A 
ATOM     19  C   UNL     1      -0.888  11.288  19.669  0.00  0.00    +0.000 A 
ATOM     20  C   UNL     1      -1.584  12.467  20.459  0.00  0.00    +0.000 C 
ATOM     21  C   UNL     1      -1.639  11.913  21.907  0.00  0.00    +0.000 C 
ATOM     22  C   UNL     1      -3.103  13.069  20.403  0.00  0.00    +0.000 C 
ENDROOT
BRANCH  17  23
ATOM     23  O   UNL     1       2.223   9.364  18.478  0.00  0.00    +0.000 OA
BRANCH  23  24
ATOM     24  C   UNL     1       2.729   8.263  17.718  0.00  0.00    +0.000 C 
BRANCH  24  25
ATOM     25  C   UNL     1       2.917   6.886  18.383  0.00  0.00    +0.000 A 
ATOM     26  C   UNL     1       2.328   6.522  19.599  0.00  0.00    +0.000 A 
ATOM     27  C   UNL     1       2.518   5.249  20.143  0.00  0.00    +0.000 A 
ATOM     28  C   UNL     1       3.311   4.305  19.489  0.00  0.00    +0.000 A 
ATOM     29  C   UNL     1       3.946   4.651  18.295  0.00  0.00    +0.000 A 
ATOM     30  C   UNL     1       3.750   5.918  17.761  0.00  0.00    +0.000 A 
ENDBRANCH  24  25
ENDBRANCH  23  24
ENDBRANCH  17  23
TORSDOF 3
ENDMDL
MODEL 2
REMARK VINA RESULT:      -6.5      0.967      1.008
REMARK  Name = 
REMARK  7 active torsions:
REMARK  status: ('A' for Active; 'I' for Inactive)
REMARK    1  A    between atoms: C_1  and  C_2
REMARK    2  A    between atoms: C_8  and  C_9
REMARK    3  A    between atoms: C_8  and  C_10
REMARK    4  A    between atoms: C_17  and  O_18
REMARK    5  A    between atoms: O_18  and  C_19
REMARK    6  A    between atoms: C_19  and  C_20
REMARK    7  A    between atoms: C_28  and  C_29
REMARK                            x       y       z     vdW  Elec       q    Type
REMARK                         _______ _______ _______ _____ _____    ______ ____
ROOT
ATOM      1  C   UNL     1      -1.757  17.784  23.761  0.00  0.00    +0.000 C 
ATOM      2  C   UNL     1      -1.913  16.396  23.206  0.00  0.00    +0.000 A 
ATOM      3  N   UNL     1      -3.147  15.860  23.089  0.00  0.00    +0.000 NA
ATOM      4  C   UNL     1      -3.240  14.678  22.420  0.00  0.00    +0.000 A 
ATOM      5  C   UNL     1      -2.176  14.008  21.835  0.00  0.00    +0.000 A 
ATOM      6  C   UNL     1      -0.950  14.703  21.950  0.00  0.00    +0.000 A 
ATOM      7  N   UNL     1      -0.808  15.835  22.688  0.00  0.00    +0.000 NA
ATOM      8  C   UNL     1       0.225  14.415  20.960  0.00  0.00    +0.000 C 
ATOM      9  C   UNL     1       1.478  13.872  21.655  0.00  0.00    +0.000 C 
ATOM     10  C   UNL     1       0.593  15.779  20.327  0.00  0.00    +0.000 C 
ATOM     11  C   UNL     1      -0.373  13.443  19.929  0.00  0.00    +0.000 C 
ATOM     12  C   UNL     1      -0.109  13.290  18.402  0.00  0.00    +0.000 C 
ATOM     13  C   UNL     1      -1.242  12.331  17.783  0.00  0.00    +0.000 C 
ATOM     14  C   UNL     1      -1.225  10.940  18.463  0.00  0.00    +0.000 A 
ATOM     15  C   UNL     1      -1.166   9.807  17.663  0.00  0.00    +0.000 A 
ATOM     16  C   UNL     1       0.066   9.193  17.498  0.00  0.00    +0.000 A 
ATOM     17  C   UNL     1       1.199   9.682  18.151  0.00  0.00    +0.000 A 
ATOM     18  C   UNL     1       0.948  10.506  19.284  0.00  0.00    +0.000 A 
ATOM     19  C   UNL     1      -0.406  11.006  19.566  0.00  0.00    +0.000 A 
ATOM     20  C   UNL     1      -0.868  12.106  20.603  0.00  0.00    +0.000 C 
ATOM     21  C   UNL     1      -0.574  11.426  21.966  0.00  0.00    +0.000 C 
ATOM     22  C   UNL     1      -2.344  12.701  20.976  0.00  0.00    +0.000 C 
ENDROOT
BRANCH  17  23
ATOM     23  O   UNL     1       2.286   9.215  17.482  0.00  0.00    +0.000 OA
BRANCH  23  24
ATOM     24  C   UNL     1       3.222   8.141  17.616  0.00  0.00    +0.000 C 
BRANCH  24  25
ATOM     25  C   UNL     1       2.916   6.963  18.560  0.00  0.00    +0.000 A 
ATOM     26  C   UNL     1       2.133   7.074  19.714  0.00  0.00    +0.000 A 
ATOM     27  C   UNL     1       1.873   5.963  20.522  0.00  0.00    +0.000 A 
ATOM     28  C   UNL     1       2.397   4.710  20.201  0.00  0.00    +0.000 A 
ATOM     29  C   UNL     1       3.217   4.575  19.080  0.00  0.00    +0.000 A 
ATOM     30  C   UNL     1       3.467   5.684  18.282  0.00  0.00    +0.000 A 
ENDBRANCH  24  25
ENDBRANCH  23  24
ENDBRANCH  17  23
TORSDOF 3
ENDMDL
MODEL 3
REMARK VINA RESULT:      -6.4      1.678      3.167
REMARK  Name = 
REMARK  7 active torsions:
REMARK  status: ('A' for Active; 'I' for Inactive)
REMARK    1  A    between atoms: C_1  and  C_2
REMARK    2  A    between atoms: C_8  and  C_9
REMARK    3  A    between atoms: C_8  and  C_10
REMARK    4  A    between atoms: C_17  and  O_18
REMARK    5  A    between atoms: O_18  and  C_19
REMARK    6  A    between atoms: C_19  and  C_20
REMARK    7  A    between atoms: C_28  and  C_29
REMARK                            x       y       z     vdW  Elec       q    Type
REMARK                         _______ _______ _______ _____ _____    ______ ____
ROOT
ATOM      1  C   UNL     1      -4.244  15.977  21.241  0.00  0.00    +0.000 C 
ATOM      2  C   UNL     1      -3.094  15.045  21.501  0.00  0.00    +0.000 A 
ATOM      3  N   UNL     1      -2.701  14.810  22.771  0.00  0.00    +0.000 NA
ATOM      4  C   UNL     1      -1.776  13.828  22.954  0.00  0.00    +0.000 A 
ATOM      5  C   UNL     1      -1.237  13.045  21.945  0.00  0.00    +0.000 A 
ATOM      6  C   UNL     1      -1.782  13.325  20.671  0.00  0.00    +0.000 A 
ATOM      7  N   UNL     1      -2.635  14.357  20.442  0.00  0.00    +0.000 NA
ATOM      8  C   UNL     1      -1.718  12.262  19.526  0.00  0.00    +0.000 C 
ATOM      9  C   UNL     1      -0.911  12.734  18.312  0.00  0.00    +0.000 C 
ATOM     10  C   UNL     1      -3.179  12.046  19.063  0.00  0.00    +0.000 C 
ATOM     11  C   UNL     1      -1.134  11.008  20.199  0.00  0.00    +0.000 C 
ATOM     12  C   UNL     1      -1.418   9.497  19.956  0.00  0.00    +0.000 C 
ATOM     13  C   UNL     1      -0.762   8.655  21.160  0.00  0.00    +0.000 C 
ATOM     14  C   UNL     1       0.765   8.899  21.240  0.00  0.00    +0.000 A 
ATOM     15  C   UNL     1       1.615   7.801  21.269  0.00  0.00    +0.000 A 
ATOM     16  C   UNL     1       2.236   7.431  20.086  0.00  0.00    +0.000 A 
ATOM     17  C   UNL     1       2.038   8.168  18.916  0.00  0.00    +0.000 A 
ATOM     18  C   UNL     1       1.568   9.498  19.100  0.00  0.00    +0.000 A 
ATOM     19  C   UNL     1       1.082   9.950  20.412  0.00  0.00    +0.000 A 
ATOM     20  C   UNL     1       0.305  11.276  20.786  0.00  0.00    +0.000 C 
ATOM     21  C   UNL     1       1.373  12.372  20.535  0.00  0.00    +0.000 C 
ATOM     22  C   UNL     1      -0.253  11.846  22.213  0.00  0.00    +0.000 C 
ENDROOT
BRANCH  17  23
ATOM     23  O   UNL     1       2.361   7.363  17.870  0.00  0.00    +0.000 OA
BRANCH  23  24
ATOM     24  C   UNL     1       3.213   6.238  17.633  0.00  0.00    +0.000 C 
BRANCH  24  25
ATOM     25  C   UNL     1       2.812   4.843  18.149  0.00  0.00    +0.000 A 
ATOM     26  C   UNL     1       1.578   4.239  17.882  0.00  0.00    +0.000 A 
ATOM     27  C   UNL     1       1.279   2.961  18.360  0.00  0.00    +0.000 A 
ATOM     28  C   UNL     1       2.205   2.252  19.128  0.00  0.00    +0.000 A 
ATOM     29  C   UNL     1       3.428   2.843  19.447  0.00  0.00    +0.000 A 
ATOM     30  C   UNL     1       3.717   4.113  18.965  0.00  0.00    +0.000 A 
ENDBRANCH  24  25
ENDBRANCH  23  24
ENDBRANCH  17  23
TORSDOF 3
ENDMDL
MODEL 4
REMARK VINA RESULT:      -6.4      1.881      3.405
REMARK  Name = 
REMARK  7 active torsions:
REMARK  status: ('A' for Active; 'I' for Inactive)
REMARK    1  A    between atoms: C_1  and  C_2
REMARK    2  A    between atoms: C_8  and  C_9
REMARK    3  A    between atoms: C_8  and  C_10
REMARK    4  A    between atoms: C_17  and  O_18
REMARK    5  A    between atoms: O_18  and  C_19
REMARK    6  A    between atoms: C_19  and  C_20
REMARK    7  A    between atoms: C_28  and  C_29
REMARK                            x       y       z     vdW  Elec       q    Type
REMARK                         _______ _______ _______ _____ _____    ______ ____
ROOT
ATOM      1  C   UNL     1      -4.301  15.876  21.257  0.00  0.00    +0.000 C 
ATOM      2  C   UNL     1      -3.170  14.927  21.536  0.00  0.00    +0.000 A 
ATOM      3  N   UNL     1      -2.864  14.613  22.813  0.00  0.00    +0.000 NA
ATOM      4  C   UNL     1      -1.953  13.618  22.997  0.00  0.00    +0.000 A 
ATOM      5  C   UNL     1      -1.346  12.896  21.981  0.00  0.00    +0.000 A 
ATOM      6  C   UNL     1      -1.805  13.255  20.692  0.00  0.00    +0.000 A 
ATOM      7  N   UNL     1      -2.641  14.303  20.470  0.00  0.00    +0.000 NA
ATOM      8  C   UNL     1      -1.662  12.265  19.491  0.00  0.00    +0.000 C 
ATOM      9  C   UNL     1      -0.776  12.808  18.365  0.00  0.00    +0.000 C 
ATOM     10  C   UNL     1      -3.089  12.082  18.918  0.00  0.00    +0.000 C 
ATOM     11  C   UNL     1      -1.125  10.970  20.124  0.00  0.00    +0.000 C 
ATOM     12  C   UNL     1      -1.390   9.478  19.770  0.00  0.00    +0.000 C 
ATOM     13  C   UNL     1      -0.817   8.561  20.961  0.00  0.00    +0.000 C 
ATOM     14  C   UNL     1       0.702   8.795  21.158  0.00  0.00    +0.000 A 
ATOM     15  C   UNL     1       1.549   7.694  21.177  0.00  0.00    +0.000 A 
ATOM     16  C   UNL     1       2.248   7.395  20.018  0.00  0.00    +0.000 A 
ATOM     17  C   UNL     1       2.129   8.203  18.885  0.00  0.00    +0.000 A 
ATOM     18  C   UNL     1       1.646   9.521  19.118  0.00  0.00    +0.000 A 
ATOM     19  C   UNL     1       1.072   9.894  20.420  0.00  0.00    +0.000 A 
ATOM     20  C   UNL     1       0.271  11.196  20.822  0.00  0.00    +0.000 C 
ATOM     21  C   UNL     1       1.353  12.302  20.710  0.00  0.00    +0.000 C 
ATOM     22  C   UNL     1      -0.382  11.680  22.240  0.00  0.00    +0.000 C 
ENDROOT
BRANCH  17  23
ATOM     23  O   UNL     1       2.522   7.463  17.815  0.00  0.00    +0.000 OA
BRANCH  23  24
ATOM     24  C   UNL     1       3.234   6.243  17.586  0.00  0.00    +0.000 C 
BRANCH  24  25
ATOM     25  C   UNL     1       4.752   6.176  17.838  0.00  0.00    +0.000 A 
ATOM     26  C   UNL     1       5.707   6.769  17.004  0.00  0.00    +0.000 A 
ATOM     27  C   UNL     1       7.071   6.691  17.296  0.00  0.00    +0.000 A 
ATOM     28  C   UNL     1       7.521   6.009  18.428  0.00  0.00    +0.000 A 
ATOM     29  C   UNL     1       6.598   5.371  19.257  0.00  0.00    +0.000 A 
ATOM     30  C   UNL     1       5.243   5.456  18.960  0.00  0.00    +0.000 A 
ENDBRANCH  24  25
ENDBRANCH  23  24
ENDBRANCH  17  23
TORSDOF 3
ENDMDL
MODEL 5
REMARK VINA RESULT:      -6.4      1.532      2.345
REMARK  Name = 
REMARK  7 active torsions:
REMARK  status: ('A' for Active; 'I' for Inactive)
REMARK    1  A    between atoms: C_1  and  C_2
REMARK    2  A    between atoms: C_8  and  C_9
REMARK    3  A    between atoms: C_8  and  C_10
REMARK    4  A    between atoms: C_17  and  O_18
REMARK    5  A    between atoms: O_18  and  C_19
REMARK    6  A    between atoms: C_19  and  C_20
REMARK    7  A    between atoms: C_28  and  C_29
REMARK                            x       y       z     vdW  Elec       q    Type
REMARK                         _______ _______ _______ _____ _____    ______ ____
ROOT
ATOM      1  C   UNL     1      -3.987  17.138  23.327  0.00  0.00    +0.000 C 
ATOM      2  C   UNL     1      -3.337  16.417  22.179  0.00  0.00    +0.000 A 
ATOM      3  N   UNL     1      -2.914  17.118  21.106  0.00  0.00    +0.000 NA
ATOM      4  C   UNL     1      -2.179  16.440  20.182  0.00  0.00    +0.000 A 
ATOM      5  C   UNL     1      -1.814  15.105  20.279  0.00  0.00    +0.000 A 
ATOM      6  C   UNL     1      -2.242  14.497  21.482  0.00  0.00    +0.000 A 
ATOM      7  N   UNL     1      -3.054  15.118  22.377  0.00  0.00    +0.000 NA
ATOM      8  C   UNL     1      -1.530  13.215  22.024  0.00  0.00    +0.000 C 
ATOM      9  C   UNL     1      -2.461  12.000  22.109  0.00  0.00    +0.000 C 
ATOM     10  C   UNL     1      -1.072  13.557  23.462  0.00  0.00    +0.000 C 
ATOM     11  C   UNL     1      -0.339  13.008  21.073  0.00  0.00    +0.000 C 
ATOM     12  C   UNL     1       1.094  12.462  21.341  0.00  0.00    +0.000 C 
ATOM     13  C   UNL     1       2.006  12.768  20.051  0.00  0.00    +0.000 C 
ATOM     14  C   UNL     1       1.415  12.101  18.784  0.00  0.00    +0.000 A 
ATOM     15  C   UNL     1       2.242  11.304  18.003  0.00  0.00    +0.000 A 
ATOM     16  C   UNL     1       2.156   9.930  18.163  0.00  0.00    +0.000 A 
ATOM     17  C   UNL     1       1.237   9.372  19.055  0.00  0.00    +0.000 A 
ATOM     18  C   UNL     1       0.148  10.212  19.420  0.00  0.00    +0.000 A 
ATOM     19  C   UNL     1       0.154  11.643  19.081  0.00  0.00    +0.000 A 
ATOM     20  C   UNL     1      -0.810  12.791  19.584  0.00  0.00    +0.000 C 
ATOM     21  C   UNL     1      -2.165  12.396  18.940  0.00  0.00    +0.000 C 
ATOM     22  C   UNL     1      -0.870  14.389  19.244  0.00  0.00    +0.000 C 
ENDROOT
BRANCH  17  23
ATOM     23  O   UNL     1       1.667   8.116  19.347  0.00  0.00    +0.000 OA
BRANCH  23  24
ATOM     24  C   UNL     1       2.569   7.157  18.788  0.00  0.00    +0.000 C 
BRANCH  24  25
ATOM     25  C   UNL     1       2.317   5.650  18.988  0.00  0.00    +0.000 A 
ATOM     26  C   UNL     1       2.512   4.983  20.202  0.00  0.00    +0.000 A 
ATOM     27  C   UNL     1       2.246   3.617  20.328  0.00  0.00    +0.000 A 
ATOM     28  C   UNL     1       1.785   2.877  19.239  0.00  0.00    +0.000 A 
ATOM     29  C   UNL     1       1.620   3.503  18.003  0.00  0.00    +0.000 A 
ATOM     30  C   UNL     1       1.885   4.862  17.888  0.00  0.00    +0.000 A 
ENDBRANCH  24  25
ENDBRANCH  23  24
ENDBRANCH  17  23
TORSDOF 3
ENDMDL
MODEL 6
REMARK VINA RESULT:      -6.3      3.445      6.701
REMARK  Name = 
REMARK  7 active torsions:
REMARK  status: ('A' for Active; 'I' for Inactive)
REMARK    1  A    between atoms: C_1  and  C_2
REMARK    2  A    between atoms: C_8  and  C_9
REMARK    3  A    between atoms: C_8  and  C_10
REMARK    4  A    between atoms: C_17  and  O_18
REMARK    5  A    between atoms: O_18  and  C_19
REMARK    6  A    between atoms: C_19  and  C_20
REMARK    7  A    between atoms: C_28  and  C_29
REMARK                            x       y       z     vdW  Elec       q    Type
REMARK                         _______ _______ _______ _____ _____    ______ ____
ROOT
ATOM      1  C   UNL     1       1.919  17.403  24.773  0.00  0.00    +0.000 C 
ATOM      2  C   UNL     1       1.850  16.563  23.528  0.00  0.00    +0.000 A 
ATOM      3  N   UNL     1       2.987  16.081  22.985  0.00  0.00    +0.000 NA
ATOM      4  C   UNL     1       2.850  15.188  21.967  0.00  0.00    +0.000 A 
ATOM      5  C   UNL     1       1.640  14.723  21.474  0.00  0.00    +0.000 A 
ATOM      6  C   UNL     1       0.522  15.233  22.172  0.00  0.00    +0.000 A 
ATOM      7  N   UNL     1       0.621  16.194  23.127  0.00  0.00    +0.000 NA
ATOM      8  C   UNL     1      -0.849  14.481  22.140  0.00  0.00    +0.000 C 
ATOM      9  C   UNL     1      -1.974  15.307  21.508  0.00  0.00    +0.000 C 
ATOM     10  C   UNL     1      -1.228  14.225  23.619  0.00  0.00    +0.000 C 
ATOM     11  C   UNL     1      -0.550  13.174  21.387  0.00  0.00    +0.000 C 
ATOM     12  C   UNL     1      -1.129  11.740  21.567  0.00  0.00    +0.000 C 
ATOM     13  C   UNL     1      -0.223  10.715  20.720  0.00  0.00    +0.000 C 
ATOM     14  C   UNL     1      -0.213  11.094  19.219  0.00  0.00    +0.000 A 
ATOM     15  C   UNL     1      -0.521  10.116  18.282  0.00  0.00    +0.000 A 
ATOM     16  C   UNL     1      -1.805  10.100  17.760  0.00  0.00    +0.000 A 
ATOM     17  C   UNL     1      -2.741  11.065  18.141  0.00  0.00    +0.000 A 
ATOM     18  C   UNL     1      -2.202  12.258  18.699  0.00  0.00    +0.000 A 
ATOM     19  C   UNL     1      -0.783  12.337  19.080  0.00  0.00    +0.000 A 
ATOM     20  C   UNL     1      -0.036  13.448  19.921  0.00  0.00    +0.000 C 
ATOM     21  C   UNL     1      -0.102  14.680  18.980  0.00  0.00    +0.000 C 
ATOM     22  C   UNL     1       1.528  13.606  20.371  0.00  0.00    +0.000 C 
ENDROOT
BRANCH  17  23
ATOM     23  O   UNL     1      -3.974  10.566  17.865  0.00  0.00    +0.000 OA
BRANCH  23  24
ATOM     24  C   UNL     1      -5.330  10.861  18.212  0.00  0.00    +0.000 C 
BRANCH  24  25
ATOM     25  C   UNL     1      -5.674  12.177  18.935  0.00  0.00    +0.000 A 
ATOM     26  C   UNL     1      -6.228  13.293  18.299  0.00  0.00    +0.000 A 
ATOM     27  C   UNL     1      -6.538  14.454  19.013  0.00  0.00    +0.000 A 
ATOM     28  C   UNL     1      -6.295  14.534  20.385  0.00  0.00    +0.000 A 
ATOM     29  C   UNL     1      -5.704  13.453  21.041  0.00  0.00    +0.000 A 
ATOM     30  C   UNL     1      -5.402  12.303  20.323  0.00  0.00    +0.000 A 
ENDBRANCH  24  25
ENDBRANCH  23  24
ENDBRANCH  17  23
TORSDOF 3
ENDMDL
MODEL 7
REMARK VINA RESULT:      -6.2      3.399      8.521
REMARK  Name = 
REMARK  7 active torsions:
REMARK  status: ('A' for Active; 'I' for Inactive)
REMARK    1  A    between atoms: C_1  and  C_2
REMARK    2  A    between atoms: C_8  and  C_9
REMARK    3  A    between atoms: C_8  and  C_10
REMARK    4  A    between atoms: C_17  and  O_18
REMARK    5  A    between atoms: O_18  and  C_19
REMARK    6  A    between atoms: C_19  and  C_20
REMARK    7  A    between atoms: C_28  and  C_29
REMARK                            x       y       z     vdW  Elec       q    Type
REMARK                         _______ _______ _______ _____ _____    ______ ____
ROOT
ATOM      1  C   UNL     1       1.858   7.850  20.243  0.00  0.00    +0.000 C 
ATOM      2  C   UNL     1       0.965   8.856  20.913  0.00  0.00    +0.000 A 
ATOM      3  N   UNL     1       0.810   8.822  22.253  0.00  0.00    +0.000 NA
ATOM      4  C   UNL     1       0.134   9.859  22.819  0.00  0.00    +0.000 A 
ATOM      5  C   UNL     1      -0.376  10.948  22.128  0.00  0.00    +0.000 A 
ATOM      6  C   UNL     1      -0.083  10.916  20.745  0.00  0.00    +0.000 A 
ATOM      7  N   UNL     1       0.507   9.854  20.138  0.00  0.00    +0.000 NA
ATOM      8  C   UNL     1      -0.097  12.231  19.898  0.00  0.00    +0.000 C 
ATOM      9  C   UNL     1      -1.145  12.215  18.780  0.00  0.00    +0.000 C 
ATOM     10  C   UNL     1       1.298  12.322  19.232  0.00  0.00    +0.000 C 
ATOM     11  C   UNL     1      -0.318  13.349  20.930  0.00  0.00    +0.000 C 
ATOM     12  C   UNL     1       0.223  14.808  20.981  0.00  0.00    +0.000 C 
ATOM     13  C   UNL     1      -0.075  15.411  22.443  0.00  0.00    +0.000 C 
ATOM     14  C   UNL     1      -1.594  15.400  22.748  0.00  0.00    +0.000 A 
ATOM     15  C   UNL     1      -2.196  16.575  23.178  0.00  0.00    +0.000 A 
ATOM     16  C   UNL     1      -2.892  17.326  22.244  0.00  0.00    +0.000 A 
ATOM     17  C   UNL     1      -3.012  16.888  20.923  0.00  0.00    +0.000 A 
ATOM     18  C   UNL     1      -2.794  15.497  20.716  0.00  0.00    +0.000 A 
ATOM     19  C   UNL     1      -2.226  14.656  21.781  0.00  0.00    +0.000 A 
ATOM     20  C   UNL     1      -1.683  13.173  21.699  0.00  0.00    +0.000 C 
ATOM     21  C   UNL     1      -2.973  12.360  21.412  0.00  0.00    +0.000 C 
ATOM     22  C   UNL     1      -1.054  12.180  22.834  0.00  0.00    +0.000 C 
ENDROOT
BRANCH  17  23
ATOM     23  O   UNL     1      -3.313  17.972  20.161  0.00  0.00    +0.000 OA
BRANCH  23  24
ATOM     24  C   UNL     1      -2.784  18.622  19.002  0.00  0.00    +0.000 C 
BRANCH  24  25
ATOM     25  C   UNL     1      -1.294  18.468  18.642  0.00  0.00    +0.000 A 
ATOM     26  C   UNL     1      -0.269  18.384  19.591  0.00  0.00    +0.000 A 
ATOM     27  C   UNL     1       1.064  18.225  19.204  0.00  0.00    +0.000 A 
ATOM     28  C   UNL     1       1.411  18.153  17.854  0.00  0.00    +0.000 A 
ATOM     29  C   UNL     1       0.418  18.276  16.882  0.00  0.00    +0.000 A 
ATOM     30  C   UNL     1      -0.905  18.432  17.276  0.00  0.00    +0.000 A 
ENDBRANCH  24  25
ENDBRANCH  23  24
ENDBRANCH  17  23
TORSDOF 3
ENDMDL
MODEL 8
REMARK VINA RESULT:      -6.2      5.649      7.181
REMARK  Name = 
REMARK  7 active torsions:
REMARK  status: ('A' for Active; 'I' for Inactive)
REMARK    1  A    between atoms: C_1  and  C_2
REMARK    2  A    between atoms: C_8  and  C_9
REMARK    3  A    between atoms: C_8  and  C_10
REMARK    4  A    between atoms: C_17  and  O_18
REMARK    5  A    between atoms: O_18  and  C_19
REMARK    6  A    between atoms: C_19  and  C_20
REMARK    7  A    between atoms: C_28  and  C_29
REMARK                            x       y       z     vdW  Elec       q    Type
REMARK                         _______ _______ _______ _____ _____    ______ ____
ROOT
ATOM      1  C   UNL     1      -3.054  13.211  20.526  0.00  0.00    +0.000 C 
ATOM      2  C   UNL     1      -1.901  14.125  20.216  0.00  0.00    +0.000 A 
ATOM      3  N   UNL     1      -1.951  15.415  20.609  0.00  0.00    +0.000 NA
ATOM      4  C   UNL     1      -0.812  16.146  20.458  0.00  0.00    +0.000 A 
ATOM      5  C   UNL     1       0.388  15.656  19.963  0.00  0.00    +0.000 A 
ATOM      6  C   UNL     1       0.344  14.275  19.663  0.00  0.00    +0.000 A 
ATOM      7  N   UNL     1      -0.799  13.543  19.714  0.00  0.00    +0.000 NA
ATOM      8  C   UNL     1       1.659  13.432  19.596  0.00  0.00    +0.000 C 
ATOM      9  C   UNL     1       1.916  12.828  18.211  0.00  0.00    +0.000 C 
ATOM     10  C   UNL     1       1.466  12.262  20.590  0.00  0.00    +0.000 C 
ATOM     11  C   UNL     1       2.760  14.404  20.054  0.00  0.00    +0.000 C 
ATOM     12  C   UNL     1       4.061  14.155  20.872  0.00  0.00    +0.000 C 
ATOM     13  C   UNL     1       4.660  15.578  21.322  0.00  0.00    +0.000 C 
ATOM     14  C   UNL     1       4.972  16.463  20.090  0.00  0.00    +0.000 A 
ATOM     15  C   UNL     1       6.235  17.032  19.981  0.00  0.00    +0.000 A 
ATOM     16  C   UNL     1       7.155  16.413  19.150  0.00  0.00    +0.000 A 
ATOM     17  C   UNL     1       6.803  15.275  18.418  0.00  0.00    +0.000 A 
ATOM     18  C   UNL     1       5.407  15.075  18.229  0.00  0.00    +0.000 A 
ATOM     19  C   UNL     1       4.423  15.871  18.978  0.00  0.00    +0.000 A 
ATOM     20  C   UNL     1       2.861  15.661  19.108  0.00  0.00    +0.000 C 
ATOM     21  C   UNL     1       2.363  15.957  17.669  0.00  0.00    +0.000 C 
ATOM     22  C   UNL     1       1.712  16.505  19.909  0.00  0.00    +0.000 C 
ENDROOT
BRANCH  17  23
ATOM     23  O   UNL     1       7.954  14.638  18.080  0.00  0.00    +0.000 OA
BRANCH  23  24
ATOM     24  C   UNL     1       8.372  13.299  17.802  0.00  0.00    +0.000 C 
BRANCH  24  25
ATOM     25  C   UNL     1       9.615  12.716  18.500  0.00  0.00    +0.000 A 
ATOM     26  C   UNL     1       9.692  12.470  19.875  0.00  0.00    +0.000 A 
ATOM     27  C   UNL     1      10.841  11.920  20.449  0.00  0.00    +0.000 A 
ATOM     28  C   UNL     1      11.951  11.606  19.663  0.00  0.00    +0.000 A 
ATOM     29  C   UNL     1      11.922  11.878  18.295  0.00  0.00    +0.000 A 
ATOM     30  C   UNL     1      10.774  12.423  17.733  0.00  0.00    +0.000 A 
ENDBRANCH  24  25
ENDBRANCH  23  24
ENDBRANCH  17  23
TORSDOF 3
ENDMDL
MODEL 9
REMARK VINA RESULT:      -6.2      2.469      3.617
REMARK  Name = 
REMARK  7 active torsions:
REMARK  status: ('A' for Active; 'I' for Inactive)
REMARK    1  A    between atoms: C_1  and  C_2
REMARK    2  A    between atoms: C_8  and  C_9
REMARK    3  A    between atoms: C_8  and  C_10
REMARK    4  A    between atoms: C_17  and  O_18
REMARK    5  A    between atoms: O_18  and  C_19
REMARK    6  A    between atoms: C_19  and  C_20
REMARK    7  A    between atoms: C_28  and  C_29
REMARK                            x       y       z     vdW  Elec       q    Type
REMARK                         _______ _______ _______ _____ _____    ______ ____
ROOT
ATOM      1  C   UNL     1       0.402  18.561  17.692  0.00  0.00    +0.000 C 
ATOM      2  C   UNL     1       0.525  17.543  18.791  0.00  0.00    +0.000 A 
ATOM      3  N   UNL     1       0.133  17.863  20.042  0.00  0.00    +0.000 NA
ATOM      4  C   UNL     1       0.102  16.851  20.953  0.00  0.00    +0.000 A 
ATOM      5  C   UNL     1       0.414  15.528  20.682  0.00  0.00    +0.000 A 
ATOM      6  C   UNL     1       0.730  15.297  19.323  0.00  0.00    +0.000 A 
ATOM      7  N   UNL     1       0.860  16.298  18.413  0.00  0.00    +0.000 NA
ATOM      8  C   UNL     1       0.605  13.865  18.707  0.00  0.00    +0.000 C 
ATOM      9  C   UNL     1       1.940  13.309  18.200  0.00  0.00    +0.000 C 
ATOM     10  C   UNL     1      -0.338  14.007  17.488  0.00  0.00    +0.000 C 
ATOM     11  C   UNL     1      -0.024  13.021  19.828  0.00  0.00    +0.000 C 
ATOM     12  C   UNL     1      -1.028  11.832  19.766  0.00  0.00    +0.000 C 
ATOM     13  C   UNL     1      -1.577  11.550  21.251  0.00  0.00    +0.000 C 
ATOM     14  C   UNL     1      -0.415  11.210  22.217  0.00  0.00    +0.000 A 
ATOM     15  C   UNL     1      -0.504  10.057  22.987  0.00  0.00    +0.000 A 
ATOM     16  C   UNL     1       0.184   8.934  22.554  0.00  0.00    +0.000 A 
ATOM     17  C   UNL     1       0.971   8.981  21.400  0.00  0.00    +0.000 A 
ATOM     18  C   UNL     1       1.372  10.281  20.983  0.00  0.00    +0.000 A 
ATOM     19  C   UNL     1       0.773  11.483  21.582  0.00  0.00    +0.000 A 
ATOM     20  C   UNL     1       0.883  12.990  21.117  0.00  0.00    +0.000 C 
ATOM     21  C   UNL     1       2.379  13.311  21.378  0.00  0.00    +0.000 C 
ATOM     22  C   UNL     1       0.259  14.369  21.735  0.00  0.00    +0.000 C 
ENDROOT
BRANCH  17  23
ATOM     23  O   UNL     1       1.137   7.703  20.970  0.00  0.00    +0.000 OA
BRANCH  23  24
ATOM     24  C   UNL     1       2.104   6.963  20.219  0.00  0.00    +0.000 C 
BRANCH  24  25
ATOM     25  C   UNL     1       1.790   5.528  19.755  0.00  0.00    +0.000 A 
ATOM     26  C   UNL     1       1.265   4.537  20.592  0.00  0.00    +0.000 A 
ATOM     27  C   UNL     1       0.981   3.257  20.108  0.00  0.00    +0.000 A 
ATOM     28  C   UNL     1       1.223   2.929  18.773  0.00  0.00    +0.000 A 
ATOM     29  C   UNL     1       1.785   3.882  17.923  0.00  0.00    +0.000 A 
ATOM     30  C   UNL     1       2.062   5.153  18.413  0.00  0.00    +0.000 A 
ENDBRANCH  24  25
ENDBRANCH  23  24
ENDBRANCH  17  23
TORSDOF 3
ENDMDL
