MODEL 1
REMARK VINA RESULT:      -5.4      0.000      0.000
REMARK  Name = 
REMARK  18 active torsions:
REMARK  status: ('A' for Active; 'I' for Inactive)
REMARK    1  A    between atoms: C_1  and  C_2
REMARK    2  A    between atoms: C_2  and  C_3
REMARK    3  A    between atoms: C_3  and  C_4
REMARK    4  A    between atoms: C_4  and  C_5
REMARK    5  A    between atoms: C_5  and  C_6
REMARK    6  A    between atoms: C_6  and  C_7
REMARK    7  A    between atoms: C_7  and  C_8
REMARK    8  A    between atoms: C_8  and  C_9
REMARK    9  A    between atoms: C_9  and  S_10
REMARK   10  A    between atoms: S_10  and  C_11
REMARK   11  A    between atoms: C_11  and  C_12
REMARK   12  A    between atoms: C_12  and  C_13
REMARK   13  A    between atoms: C_13  and  C_14
REMARK   14  A    between atoms: C_14  and  C_15
REMARK   15  A    between atoms: C_15  and  C_16
REMARK   16  A    between atoms: C_16  and  C_17
REMARK   17  A    between atoms: C_17  and  C_18
REMARK   18  A    between atoms: C_18  and  O_20
REMARK                            x       y       z     vdW  Elec       q    Type
REMARK                         _______ _______ _______ _____ _____    ______ ____
ROOT
ATOM      1  C   UNL     1       5.104   3.397  16.535  0.00  0.00    +0.000 C 
ENDROOT
BRANCH   1   2
ATOM      2  C   UNL     1       3.793   3.578  17.304  0.00  0.00    +0.000 C 
BRANCH   2   3
ATOM      3  C   UNL     1       3.879   4.721  18.312  0.00  0.00    +0.000 C 
BRANCH   3   4
ATOM      4  C   UNL     1       2.489   5.264  18.641  0.00  0.00    +0.000 C 
BRANCH   4   5
ATOM      5  C   UNL     1       1.422   4.188  18.435  0.00  0.00    +0.000 C 
BRANCH   5   6
ATOM      6  C   UNL     1       0.947   3.637  19.776  0.00  0.00    +0.000 C 
BRANCH   6   7
ATOM      7  C   UNL     1       1.682   2.355  20.181  0.00  0.00    +0.000 C 
BRANCH   7   8
ATOM      8  C   UNL     1       2.704   2.654  21.260  0.00  0.00    +0.000 C 
ATOM      9  O   UNL     1       3.882   2.316  21.231  0.00  0.00    +0.000 OA
BRANCH   8  10
ATOM     10  O   UNL     1       2.179   3.351  22.290  0.00  0.00    +0.000 OA
ATOM     11  H   UNL     1       1.252   3.123  22.530  0.00  0.00    +0.000 HD
ENDBRANCH   8  10
ENDBRANCH   7   8
ENDBRANCH   6   7
ENDBRANCH   5   6
ENDBRANCH   4   5
ENDBRANCH   3   4
ENDBRANCH   2   3
ENDBRANCH   1   2
BRANCH   1  12
ATOM     12  S   UNL     1       6.274   4.637  17.174  0.00  0.00    +0.000 S 
BRANCH  12  13
ATOM     13  C   UNL     1       6.176   5.915  15.881  0.00  0.00    +0.000 C 
BRANCH  13  14
ATOM     14  C   UNL     1       5.774   5.210  14.586  0.00  0.00    +0.000 C 
BRANCH  14  15
ATOM     15  C   UNL     1       6.948   4.470  13.956  0.00  0.00    +0.000 C 
BRANCH  15  16
ATOM     16  C   UNL     1       6.804   4.437  12.437  0.00  0.00    +0.000 C 
BRANCH  16  17
ATOM     17  C   UNL     1       6.801   3.000  11.934  0.00  0.00    +0.000 C 
BRANCH  17  18
ATOM     18  C   UNL     1       5.376   2.515  11.709  0.00  0.00    +0.000 C 
BRANCH  18  19
ATOM     19  C   UNL     1       4.479   3.677  11.302  0.00  0.00    +0.000 C 
BRANCH  19  21
ATOM     20  C   UNL     1       2.854   4.138   9.461  0.00  0.00    +0.000 C 
ATOM     21  C   UNL     1       3.245   3.174  10.564  0.00  0.00    +0.000 C 
ENDBRANCH  19  21
ENDBRANCH  18  19
ENDBRANCH  17  18
ENDBRANCH  16  17
ENDBRANCH  15  16
ENDBRANCH  14  15
ENDBRANCH  13  14
ENDBRANCH  12  13
ENDBRANCH   1  12
TORSDOF 17
ENDMDL
MODEL 2
REMARK VINA RESULT:      -5.3      5.526      9.010
REMARK  Name = 
REMARK  18 active torsions:
REMARK  status: ('A' for Active; 'I' for Inactive)
REMARK    1  A    between atoms: C_1  and  C_2
REMARK    2  A    between atoms: C_2  and  C_3
REMARK    3  A    between atoms: C_3  and  C_4
REMARK    4  A    between atoms: C_4  and  C_5
REMARK    5  A    between atoms: C_5  and  C_6
REMARK    6  A    between atoms: C_6  and  C_7
REMARK    7  A    between atoms: C_7  and  C_8
REMARK    8  A    between atoms: C_8  and  C_9
REMARK    9  A    between atoms: C_9  and  S_10
REMARK   10  A    between atoms: S_10  and  C_11
REMARK   11  A    between atoms: C_11  and  C_12
REMARK   12  A    between atoms: C_12  and  C_13
REMARK   13  A    between atoms: C_13  and  C_14
REMARK   14  A    between atoms: C_14  and  C_15
REMARK   15  A    between atoms: C_15  and  C_16
REMARK   16  A    between atoms: C_16  and  C_17
REMARK   17  A    between atoms: C_17  and  C_18
REMARK   18  A    between atoms: C_18  and  O_20
REMARK                            x       y       z     vdW  Elec       q    Type
REMARK                         _______ _______ _______ _____ _____    ______ ____
ROOT
ATOM      1  C   UNL     1       6.569   4.819  17.766  0.00  0.00    +0.000 C 
ENDROOT
BRANCH   1   2
ATOM      2  C   UNL     1       7.196   6.071  17.148  0.00  0.00    +0.000 C 
BRANCH   2   3
ATOM      3  C   UNL     1       7.816   6.978  18.207  0.00  0.00    +0.000 C 
BRANCH   3   4
ATOM      4  C   UNL     1       7.933   8.413  17.695  0.00  0.00    +0.000 C 
BRANCH   4   5
ATOM      5  C   UNL     1       8.766   9.266  18.652  0.00  0.00    +0.000 C 
BRANCH   5   6
ATOM      6  C   UNL     1       8.826  10.713  18.169  0.00  0.00    +0.000 C 
BRANCH   6   7
ATOM      7  C   UNL     1      10.209  11.343  18.367  0.00  0.00    +0.000 C 
BRANCH   7   8
ATOM      8  C   UNL     1      10.263  12.706  17.704  0.00  0.00    +0.000 C 
ATOM      9  O   UNL     1      10.933  12.985  16.717  0.00  0.00    +0.000 OA
BRANCH   8  10
ATOM     10  O   UNL     1       9.479  13.614  18.323  0.00  0.00    +0.000 OA
ATOM     11  H   UNL     1       9.861  14.516  18.411  0.00  0.00    +0.000 HD
ENDBRANCH   8  10
ENDBRANCH   7   8
ENDBRANCH   6   7
ENDBRANCH   5   6
ENDBRANCH   4   5
ENDBRANCH   3   4
ENDBRANCH   2   3
ENDBRANCH   1   2
BRANCH   1  12
ATOM     12  S   UNL     1       5.342   4.192  16.576  0.00  0.00    +0.000 S 
BRANCH  12  13
ATOM     13  C   UNL     1       4.077   3.515  17.696  0.00  0.00    +0.000 C 
BRANCH  13  14
ATOM     14  C   UNL     1       2.726   3.700  17.007  0.00  0.00    +0.000 C 
BRANCH  14  15
ATOM     15  C   UNL     1       1.816   4.642  17.787  0.00  0.00    +0.000 C 
BRANCH  15  16
ATOM     16  C   UNL     1       2.587   5.883  18.230  0.00  0.00    +0.000 C 
BRANCH  16  17
ATOM     17  C   UNL     1       2.639   5.962  19.749  0.00  0.00    +0.000 C 
BRANCH  17  18
ATOM     18  C   UNL     1       1.595   5.044  20.369  0.00  0.00    +0.000 C 
BRANCH  18  19
ATOM     19  C   UNL     1       2.232   4.154  21.428  0.00  0.00    +0.000 C 
BRANCH  19  21
ATOM     20  C   UNL     1       1.355   2.232  20.093  0.00  0.00    +0.000 C 
ATOM     21  C   UNL     1       1.533   2.802  21.488  0.00  0.00    +0.000 C 
ENDBRANCH  19  21
ENDBRANCH  18  19
ENDBRANCH  17  18
ENDBRANCH  16  17
ENDBRANCH  15  16
ENDBRANCH  14  15
ENDBRANCH  13  14
ENDBRANCH  12  13
ENDBRANCH   1  12
TORSDOF 17
ENDMDL
MODEL 3
REMARK VINA RESULT:      -5.3      3.748      6.686
REMARK  Name = 
REMARK  18 active torsions:
REMARK  status: ('A' for Active; 'I' for Inactive)
REMARK    1  A    between atoms: C_1  and  C_2
REMARK    2  A    between atoms: C_2  and  C_3
REMARK    3  A    between atoms: C_3  and  C_4
REMARK    4  A    between atoms: C_4  and  C_5
REMARK    5  A    between atoms: C_5  and  C_6
REMARK    6  A    between atoms: C_6  and  C_7
REMARK    7  A    between atoms: C_7  and  C_8
REMARK    8  A    between atoms: C_8  and  C_9
REMARK    9  A    between atoms: C_9  and  S_10
REMARK   10  A    between atoms: S_10  and  C_11
REMARK   11  A    between atoms: C_11  and  C_12
REMARK   12  A    between atoms: C_12  and  C_13
REMARK   13  A    between atoms: C_13  and  C_14
REMARK   14  A    between atoms: C_14  and  C_15
REMARK   15  A    between atoms: C_15  and  C_16
REMARK   16  A    between atoms: C_16  and  C_17
REMARK   17  A    between atoms: C_17  and  C_18
REMARK   18  A    between atoms: C_18  and  O_20
REMARK                            x       y       z     vdW  Elec       q    Type
REMARK                         _______ _______ _______ _____ _____    ______ ____
ROOT
ATOM      1  C   UNL     1       5.001   3.654  18.289  0.00  0.00    +0.000 C 
ENDROOT
BRANCH   1   2
ATOM      2  C   UNL     1       3.857   2.773  17.781  0.00  0.00    +0.000 C 
BRANCH   2   3
ATOM      3  C   UNL     1       2.844   3.572  16.965  0.00  0.00    +0.000 C 
BRANCH   3   4
ATOM      4  C   UNL     1       1.710   4.082  17.853  0.00  0.00    +0.000 C 
BRANCH   4   5
ATOM      5  C   UNL     1       2.108   5.382  18.551  0.00  0.00    +0.000 C 
BRANCH   5   6
ATOM      6  C   UNL     1       2.066   5.213  20.067  0.00  0.00    +0.000 C 
BRANCH   6   7
ATOM      7  C   UNL     1       1.052   4.155  20.515  0.00  0.00    +0.000 C 
BRANCH   7   8
ATOM      8  C   UNL     1       1.725   3.123  21.397  0.00  0.00    +0.000 C 
ATOM      9  O   UNL     1       1.166   2.459  22.262  0.00  0.00    +0.000 OA
BRANCH   8  10
ATOM     10  O   UNL     1       3.043   2.998  21.132  0.00  0.00    +0.000 OA
ATOM     11  H   UNL     1       3.270   2.750  20.207  0.00  0.00    +0.000 HD
ENDBRANCH   8  10
ENDBRANCH   7   8
ENDBRANCH   6   7
ENDBRANCH   5   6
ENDBRANCH   4   5
ENDBRANCH   3   4
ENDBRANCH   2   3
ENDBRANCH   1   2
BRANCH   1  12
ATOM     12  S   UNL     1       5.785   4.407  16.829  0.00  0.00    +0.000 S 
BRANCH  12  13
ATOM     13  C   UNL     1       7.506   4.572  17.396  0.00  0.00    +0.000 C 
BRANCH  13  14
ATOM     14  C   UNL     1       7.551   5.773  18.342  0.00  0.00    +0.000 C 
BRANCH  14  15
ATOM     15  C   UNL     1       6.841   6.985  17.752  0.00  0.00    +0.000 C 
BRANCH  15  16
ATOM     16  C   UNL     1       7.857   8.033  17.304  0.00  0.00    +0.000 C 
BRANCH  16  17
ATOM     17  C   UNL     1       8.538   8.663  18.510  0.00  0.00    +0.000 C 
BRANCH  17  18
ATOM     18  C   UNL     1       8.525  10.182  18.398  0.00  0.00    +0.000 C 
BRANCH  18  19
ATOM     19  C   UNL     1       9.910  10.746  18.687  0.00  0.00    +0.000 C 
BRANCH  19  21
ATOM     20  C   UNL     1      11.222  12.147  20.286  0.00  0.00    +0.000 C 
ATOM     21  C   UNL     1       9.989  11.281  20.111  0.00  0.00    +0.000 C 
ENDBRANCH  19  21
ENDBRANCH  18  19
ENDBRANCH  17  18
ENDBRANCH  16  17
ENDBRANCH  15  16
ENDBRANCH  14  15
ENDBRANCH  13  14
ENDBRANCH  12  13
ENDBRANCH   1  12
TORSDOF 17
ENDMDL
MODEL 4
REMARK VINA RESULT:      -5.3      3.978      7.194
REMARK  Name = 
REMARK  18 active torsions:
REMARK  status: ('A' for Active; 'I' for Inactive)
REMARK    1  A    between atoms: C_1  and  C_2
REMARK    2  A    between atoms: C_2  and  C_3
REMARK    3  A    between atoms: C_3  and  C_4
REMARK    4  A    between atoms: C_4  and  C_5
REMARK    5  A    between atoms: C_5  and  C_6
REMARK    6  A    between atoms: C_6  and  C_7
REMARK    7  A    between atoms: C_7  and  C_8
REMARK    8  A    between atoms: C_8  and  C_9
REMARK    9  A    between atoms: C_9  and  S_10
REMARK   10  A    between atoms: S_10  and  C_11
REMARK   11  A    between atoms: C_11  and  C_12
REMARK   12  A    between atoms: C_12  and  C_13
REMARK   13  A    between atoms: C_13  and  C_14
REMARK   14  A    between atoms: C_14  and  C_15
REMARK   15  A    between atoms: C_15  and  C_16
REMARK   16  A    between atoms: C_16  and  C_17
REMARK   17  A    between atoms: C_17  and  C_18
REMARK   18  A    between atoms: C_18  and  O_20
REMARK                            x       y       z     vdW  Elec       q    Type
REMARK                         _______ _______ _______ _____ _____    ______ ____
ROOT
ATOM      1  C   UNL     1       4.218   3.297  19.201  0.00  0.00    +0.000 C 
ENDROOT
BRANCH   1   2
ATOM      2  C   UNL     1       3.831   2.668  17.861  0.00  0.00    +0.000 C 
BRANCH   2   3
ATOM      3  C   UNL     1       3.924   3.672  16.714  0.00  0.00    +0.000 C 
BRANCH   3   4
ATOM      4  C   UNL     1       5.339   4.236  16.598  0.00  0.00    +0.000 C 
BRANCH   4   5
ATOM      5  C   UNL     1       5.306   5.747  16.368  0.00  0.00    +0.000 C 
BRANCH   5   6
ATOM      6  C   UNL     1       5.849   6.488  17.587  0.00  0.00    +0.000 C 
BRANCH   6   7
ATOM      7  C   UNL     1       6.441   5.543  18.637  0.00  0.00    +0.000 C 
BRANCH   7   8
ATOM      8  C   UNL     1       7.743   6.104  19.174  0.00  0.00    +0.000 C 
ATOM      9  O   UNL     1       8.343   7.066  18.710  0.00  0.00    +0.000 OA
BRANCH   8  10
ATOM     10  O   UNL     1       8.196   5.421  20.247  0.00  0.00    +0.000 OA
ATOM     11  H   UNL     1       8.247   4.444  20.140  0.00  0.00    +0.000 HD
ENDBRANCH   8  10
ENDBRANCH   7   8
ENDBRANCH   6   7
ENDBRANCH   5   6
ENDBRANCH   4   5
ENDBRANCH   3   4
ENDBRANCH   2   3
ENDBRANCH   1   2
BRANCH   1  12
ATOM     12  S   UNL     1       3.880   2.057  20.491  0.00  0.00    +0.000 S 
BRANCH  12  13
ATOM     13  C   UNL     1       2.494   2.836  21.376  0.00  0.00    +0.000 C 
BRANCH  13  14
ATOM     14  C   UNL     1       1.385   3.071  20.350  0.00  0.00    +0.000 C 
BRANCH  14  15
ATOM     15  C   UNL     1       0.862   4.502  20.399  0.00  0.00    +0.000 C 
BRANCH  15  16
ATOM     16  C   UNL     1       1.965   5.458  20.844  0.00  0.00    +0.000 C 
BRANCH  16  17
ATOM     17  C   UNL     1       2.626   6.107  19.637  0.00  0.00    +0.000 C 
BRANCH  17  18
ATOM     18  C   UNL     1       2.145   7.543  19.472  0.00  0.00    +0.000 C 
BRANCH  18  19
ATOM     19  C   UNL     1       2.255   7.974  18.016  0.00  0.00    +0.000 C 
BRANCH  19  21
ATOM     20  C   UNL     1       0.938   9.840  19.030  0.00  0.00    +0.000 C 
ATOM     21  C   UNL     1       1.776   9.410  17.840  0.00  0.00    +0.000 C 
ENDBRANCH  19  21
ENDBRANCH  18  19
ENDBRANCH  17  18
ENDBRANCH  16  17
ENDBRANCH  15  16
ENDBRANCH  14  15
ENDBRANCH  13  14
ENDBRANCH  12  13
ENDBRANCH   1  12
TORSDOF 17
ENDMDL
MODEL 5
REMARK VINA RESULT:      -5.2      1.805      2.010
REMARK  Name = 
REMARK  18 active torsions:
REMARK  status: ('A' for Active; 'I' for Inactive)
REMARK    1  A    between atoms: C_1  and  C_2
REMARK    2  A    between atoms: C_2  and  C_3
REMARK    3  A    between atoms: C_3  and  C_4
REMARK    4  A    between atoms: C_4  and  C_5
REMARK    5  A    between atoms: C_5  and  C_6
REMARK    6  A    between atoms: C_6  and  C_7
REMARK    7  A    between atoms: C_7  and  C_8
REMARK    8  A    between atoms: C_8  and  C_9
REMARK    9  A    between atoms: C_9  and  S_10
REMARK   10  A    between atoms: S_10  and  C_11
REMARK   11  A    between atoms: C_11  and  C_12
REMARK   12  A    between atoms: C_12  and  C_13
REMARK   13  A    between atoms: C_13  and  C_14
REMARK   14  A    between atoms: C_14  and  C_15
REMARK   15  A    between atoms: C_15  and  C_16
REMARK   16  A    between atoms: C_16  and  C_17
REMARK   17  A    between atoms: C_17  and  C_18
REMARK   18  A    between atoms: C_18  and  O_20
REMARK                            x       y       z     vdW  Elec       q    Type
REMARK                         _______ _______ _______ _____ _____    ______ ____
ROOT
ATOM      1  C   UNL     1       5.792   4.158  18.118  0.00  0.00    +0.000 C 
ENDROOT
BRANCH   1   2
ATOM      2  C   UNL     1       5.115   4.800  19.332  0.00  0.00    +0.000 C 
BRANCH   2   3
ATOM      3  C   UNL     1       4.303   6.033  18.943  0.00  0.00    +0.000 C 
BRANCH   3   4
ATOM      4  C   UNL     1       2.819   5.823  19.240  0.00  0.00    +0.000 C 
BRANCH   4   5
ATOM      5  C   UNL     1       2.031   5.609  17.947  0.00  0.00    +0.000 C 
BRANCH   5   6
ATOM      6  C   UNL     1       1.470   4.191  17.887  0.00  0.00    +0.000 C 
BRANCH   6   7
ATOM      7  C   UNL     1       2.432   3.204  17.217  0.00  0.00    +0.000 C 
BRANCH   7   8
ATOM      8  C   UNL     1       2.596   1.966  18.076  0.00  0.00    +0.000 C 
ATOM      9  O   UNL     1       3.650   1.368  18.261  0.00  0.00    +0.000 OA
BRANCH   8  10
ATOM     10  O   UNL     1       1.434   1.569  18.638  0.00  0.00    +0.000 OA
ATOM     11  H   UNL     1       1.086   0.702  18.329  0.00  0.00    +0.000 HD
ENDBRANCH   8  10
ENDBRANCH   7   8
ENDBRANCH   6   7
ENDBRANCH   5   6
ENDBRANCH   4   5
ENDBRANCH   3   4
ENDBRANCH   2   3
ENDBRANCH   1   2
BRANCH   1  12
ATOM     12  S   UNL     1       7.422   4.948  17.934  0.00  0.00    +0.000 S 
BRANCH  12  13
ATOM     13  C   UNL     1       7.106   6.094  16.556  0.00  0.00    +0.000 C 
BRANCH  13  14
ATOM     14  C   UNL     1       6.061   5.434  15.657  0.00  0.00    +0.000 C 
BRANCH  14  15
ATOM     15  C   UNL     1       6.699   4.742  14.459  0.00  0.00    +0.000 C 
BRANCH  15  16
ATOM     16  C   UNL     1       5.913   3.488  14.087  0.00  0.00    +0.000 C 
BRANCH  16  17
ATOM     17  C   UNL     1       6.333   2.986  12.712  0.00  0.00    +0.000 C 
BRANCH  17  18
ATOM     18  C   UNL     1       5.667   3.808  11.617  0.00  0.00    +0.000 C 
BRANCH  18  19
ATOM     19  C   UNL     1       4.153   3.789  11.786  0.00  0.00    +0.000 C 
BRANCH  19  21
ATOM     20  C   UNL     1       2.966   4.039   9.602  0.00  0.00    +0.000 C 
ATOM     21  C   UNL     1       3.490   3.053  10.629  0.00  0.00    +0.000 C 
ENDBRANCH  19  21
ENDBRANCH  18  19
ENDBRANCH  17  18
ENDBRANCH  16  17
ENDBRANCH  15  16
ENDBRANCH  14  15
ENDBRANCH  13  14
ENDBRANCH  12  13
ENDBRANCH   1  12
TORSDOF 17
ENDMDL
MODEL 6
REMARK VINA RESULT:      -5.2      3.687      7.731
REMARK  Name = 
REMARK  18 active torsions:
REMARK  status: ('A' for Active; 'I' for Inactive)
REMARK    1  A    between atoms: C_1  and  C_2
REMARK    2  A    between atoms: C_2  and  C_3
REMARK    3  A    between atoms: C_3  and  C_4
REMARK    4  A    between atoms: C_4  and  C_5
REMARK    5  A    between atoms: C_5  and  C_6
REMARK    6  A    between atoms: C_6  and  C_7
REMARK    7  A    between atoms: C_7  and  C_8
REMARK    8  A    between atoms: C_8  and  C_9
REMARK    9  A    between atoms: C_9  and  S_10
REMARK   10  A    between atoms: S_10  and  C_11
REMARK   11  A    between atoms: C_11  and  C_12
REMARK   12  A    between atoms: C_12  and  C_13
REMARK   13  A    between atoms: C_13  and  C_14
REMARK   14  A    between atoms: C_14  and  C_15
REMARK   15  A    between atoms: C_15  and  C_16
REMARK   16  A    between atoms: C_16  and  C_17
REMARK   17  A    between atoms: C_17  and  C_18
REMARK   18  A    between atoms: C_18  and  O_20
REMARK                            x       y       z     vdW  Elec       q    Type
REMARK                         _______ _______ _______ _____ _____    ______ ____
ROOT
ATOM      1  C   UNL     1       4.634   3.224  19.154  0.00  0.00    +0.000 C 
ENDROOT
BRANCH   1   2
ATOM      2  C   UNL     1       5.441   4.377  18.554  0.00  0.00    +0.000 C 
BRANCH   2   3
ATOM      3  C   UNL     1       5.562   4.256  17.037  0.00  0.00    +0.000 C 
BRANCH   3   4
ATOM      4  C   UNL     1       5.716   5.633  16.391  0.00  0.00    +0.000 C 
BRANCH   4   5
ATOM      5  C   UNL     1       5.541   5.546  14.875  0.00  0.00    +0.000 C 
BRANCH   5   6
ATOM      6  C   UNL     1       5.556   4.091  14.415  0.00  0.00    +0.000 C 
BRANCH   6   7
ATOM      7  C   UNL     1       6.399   3.880  13.152  0.00  0.00    +0.000 C 
BRANCH   7   8
ATOM      8  C   UNL     1       5.610   3.100  12.119  0.00  0.00    +0.000 C 
ATOM      9  O   UNL     1       4.531   3.440  11.648  0.00  0.00    +0.000 OA
BRANCH   8  10
ATOM     10  O   UNL     1       6.229   1.957  11.752  0.00  0.00    +0.000 OA
ATOM     11  H   UNL     1       6.093   1.189  12.352  0.00  0.00    +0.000 HD
ENDBRANCH   8  10
ENDBRANCH   7   8
ENDBRANCH   6   7
ENDBRANCH   5   6
ENDBRANCH   4   5
ENDBRANCH   3   4
ENDBRANCH   2   3
ENDBRANCH   1   2
BRANCH   1  12
ATOM     12  S   UNL     1       3.256   2.885  18.014  0.00  0.00    +0.000 S 
BRANCH  12  13
ATOM     13  C   UNL     1       2.344   1.606  18.932  0.00  0.00    +0.000 C 
BRANCH  13  14
ATOM     14  C   UNL     1       1.203   2.311  19.666  0.00  0.00    +0.000 C 
BRANCH  14  15
ATOM     15  C   UNL     1       1.213   3.815  19.415  0.00  0.00    +0.000 C 
BRANCH  15  16
ATOM     16  C   UNL     1       1.493   4.570  20.711  0.00  0.00    +0.000 C 
BRANCH  16  17
ATOM     17  C   UNL     1       1.850   6.019  20.416  0.00  0.00    +0.000 C 
BRANCH  17  18
ATOM     18  C   UNL     1       1.999   6.238  18.916  0.00  0.00    +0.000 C 
BRANCH  18  19
ATOM     19  C   UNL     1       3.169   7.169  18.629  0.00  0.00    +0.000 C 
BRANCH  19  21
ATOM     20  C   UNL     1       1.606   9.003  17.967  0.00  0.00    +0.000 C 
ATOM     21  C   UNL     1       2.806   8.175  17.545  0.00  0.00    +0.000 C 
ENDBRANCH  19  21
ENDBRANCH  18  19
ENDBRANCH  17  18
ENDBRANCH  16  17
ENDBRANCH  15  16
ENDBRANCH  14  15
ENDBRANCH  13  14
ENDBRANCH  12  13
ENDBRANCH   1  12
TORSDOF 17
ENDMDL
MODEL 7
REMARK VINA RESULT:      -5.2      4.010      7.555
REMARK  Name = 
REMARK  18 active torsions:
REMARK  status: ('A' for Active; 'I' for Inactive)
REMARK    1  A    between atoms: C_1  and  C_2
REMARK    2  A    between atoms: C_2  and  C_3
REMARK    3  A    between atoms: C_3  and  C_4
REMARK    4  A    between atoms: C_4  and  C_5
REMARK    5  A    between atoms: C_5  and  C_6
REMARK    6  A    between atoms: C_6  and  C_7
REMARK    7  A    between atoms: C_7  and  C_8
REMARK    8  A    between atoms: C_8  and  C_9
REMARK    9  A    between atoms: C_9  and  S_10
REMARK   10  A    between atoms: S_10  and  C_11
REMARK   11  A    between atoms: C_11  and  C_12
REMARK   12  A    between atoms: C_12  and  C_13
REMARK   13  A    between atoms: C_13  and  C_14
REMARK   14  A    between atoms: C_14  and  C_15
REMARK   15  A    between atoms: C_15  and  C_16
REMARK   16  A    between atoms: C_16  and  C_17
REMARK   17  A    between atoms: C_17  and  C_18
REMARK   18  A    between atoms: C_18  and  O_20
REMARK                            x       y       z     vdW  Elec       q    Type
REMARK                         _______ _______ _______ _____ _____    ______ ____
ROOT
ATOM      1  C   UNL     1       2.975   4.251  17.489  0.00  0.00    +0.000 C 
ENDROOT
BRANCH   1   2
ATOM      2  C   UNL     1       4.321   3.525  17.546  0.00  0.00    +0.000 C 
BRANCH   2   3
ATOM      3  C   UNL     1       5.174   3.814  16.313  0.00  0.00    +0.000 C 
BRANCH   3   4
ATOM      4  C   UNL     1       4.904   5.220  15.781  0.00  0.00    +0.000 C 
BRANCH   4   5
ATOM      5  C   UNL     1       6.134   6.112  15.950  0.00  0.00    +0.000 C 
BRANCH   5   6
ATOM      6  C   UNL     1       6.158   6.738  17.341  0.00  0.00    +0.000 C 
BRANCH   6   7
ATOM      7  C   UNL     1       7.540   6.661  17.999  0.00  0.00    +0.000 C 
BRANCH   7   8
ATOM      8  C   UNL     1       7.635   5.431  18.879  0.00  0.00    +0.000 C 
ATOM      9  O   UNL     1       7.439   5.411  20.089  0.00  0.00    +0.000 OA
BRANCH   8  10
ATOM     10  O   UNL     1       7.968   4.323  18.184  0.00  0.00    +0.000 OA
ATOM     11  H   UNL     1       8.727   3.808  18.541  0.00  0.00    +0.000 HD
ENDBRANCH   8  10
ENDBRANCH   7   8
ENDBRANCH   6   7
ENDBRANCH   5   6
ENDBRANCH   4   5
ENDBRANCH   3   4
ENDBRANCH   2   3
ENDBRANCH   1   2
BRANCH   1  12
ATOM     12  S   UNL     1       2.385   4.419  19.203  0.00  0.00    +0.000 S 
BRANCH  12  13
ATOM     13  C   UNL     1       3.106   6.023  19.670  0.00  0.00    +0.000 C 
BRANCH  13  14
ATOM     14  C   UNL     1       2.912   6.963  18.480  0.00  0.00    +0.000 C 
BRANCH  14  15
ATOM     15  C   UNL     1       1.856   8.024  18.763  0.00  0.00    +0.000 C 
BRANCH  15  16
ATOM     16  C   UNL     1       2.076   9.246  17.875  0.00  0.00    +0.000 C 
BRANCH  16  17
ATOM     17  C   UNL     1       1.198  10.402  18.333  0.00  0.00    +0.000 C 
BRANCH  17  18
ATOM     18  C   UNL     1       0.105   9.904  19.269  0.00  0.00    +0.000 C 
BRANCH  18  19
ATOM     19  C   UNL     1      -1.201  10.640  18.999  0.00  0.00    +0.000 C 
BRANCH  19  21
ATOM     20  C   UNL     1      -3.022   9.699  17.571  0.00  0.00    +0.000 C 
ATOM     21  C   UNL     1      -1.674  10.394  17.572  0.00  0.00    +0.000 C 
ENDBRANCH  19  21
ENDBRANCH  18  19
ENDBRANCH  17  18
ENDBRANCH  16  17
ENDBRANCH  15  16
ENDBRANCH  14  15
ENDBRANCH  13  14
ENDBRANCH  12  13
ENDBRANCH   1  12
TORSDOF 17
ENDMDL
MODEL 8
REMARK VINA RESULT:      -5.1      4.030      5.958
REMARK  Name = 
REMARK  18 active torsions:
REMARK  status: ('A' for Active; 'I' for Inactive)
REMARK    1  A    between atoms: C_1  and  C_2
REMARK    2  A    between atoms: C_2  and  C_3
REMARK    3  A    between atoms: C_3  and  C_4
REMARK    4  A    between atoms: C_4  and  C_5
REMARK    5  A    between atoms: C_5  and  C_6
REMARK    6  A    between atoms: C_6  and  C_7
REMARK    7  A    between atoms: C_7  and  C_8
REMARK    8  A    between atoms: C_8  and  C_9
REMARK    9  A    between atoms: C_9  and  S_10
REMARK   10  A    between atoms: S_10  and  C_11
REMARK   11  A    between atoms: C_11  and  C_12
REMARK   12  A    between atoms: C_12  and  C_13
REMARK   13  A    between atoms: C_13  and  C_14
REMARK   14  A    between atoms: C_14  and  C_15
REMARK   15  A    between atoms: C_15  and  C_16
REMARK   16  A    between atoms: C_16  and  C_17
REMARK   17  A    between atoms: C_17  and  C_18
REMARK   18  A    between atoms: C_18  and  O_20
REMARK                            x       y       z     vdW  Elec       q    Type
REMARK                         _______ _______ _______ _____ _____    ______ ____
ROOT
ATOM      1  C   UNL     1       3.046   3.104  20.961  0.00  0.00    +0.000 C 
ENDROOT
BRANCH   1   2
ATOM      2  C   UNL     1       1.596   3.048  20.475  0.00  0.00    +0.000 C 
BRANCH   2   3
ATOM      3  C   UNL     1       1.010   4.443  20.273  0.00  0.00    +0.000 C 
BRANCH   3   4
ATOM      4  C   UNL     1       2.089   5.514  20.431  0.00  0.00    +0.000 C 
BRANCH   4   5
ATOM      5  C   UNL     1       2.355   6.219  19.101  0.00  0.00    +0.000 C 
BRANCH   5   6
ATOM      6  C   UNL     1       2.070   7.714  19.218  0.00  0.00    +0.000 C 
BRANCH   6   7
ATOM      7  C   UNL     1       2.490   8.494  17.967  0.00  0.00    +0.000 C 
BRANCH   7   8
ATOM      8  C   UNL     1       1.779   9.832  17.920  0.00  0.00    +0.000 C 
ATOM      9  O   UNL     1       2.326  10.926  17.997  0.00  0.00    +0.000 OA
BRANCH   8  10
ATOM     10  O   UNL     1       0.443   9.702  17.780  0.00  0.00    +0.000 OA
ATOM     11  H   UNL     1      -0.032   9.324  18.554  0.00  0.00    +0.000 HD
ENDBRANCH   8  10
ENDBRANCH   7   8
ENDBRANCH   6   7
ENDBRANCH   5   6
ENDBRANCH   4   5
ENDBRANCH   3   4
ENDBRANCH   2   3
ENDBRANCH   1   2
BRANCH   1  12
ATOM     12  S   UNL     1       4.047   2.159  19.769  0.00  0.00    +0.000 S 
BRANCH  12  13
ATOM     13  C   UNL     1       4.605   3.481  18.650  0.00  0.00    +0.000 C 
BRANCH  13  14
ATOM     14  C   UNL     1       3.693   3.442  17.423  0.00  0.00    +0.000 C 
BRANCH  14  15
ATOM     15  C   UNL     1       4.489   3.499  16.124  0.00  0.00    +0.000 C 
BRANCH  15  16
ATOM     16  C   UNL     1       5.848   4.151  16.359  0.00  0.00    +0.000 C 
BRANCH  16  17
ATOM     17  C   UNL     1       6.054   5.313  15.398  0.00  0.00    +0.000 C 
BRANCH  17  18
ATOM     18  C   UNL     1       5.362   6.566  15.918  0.00  0.00    +0.000 C 
BRANCH  18  19
ATOM     19  C   UNL     1       5.765   6.832  17.363  0.00  0.00    +0.000 C 
BRANCH  19  21
ATOM     20  C   UNL     1       7.993   6.860  18.495  0.00  0.00    +0.000 C 
ATOM     21  C   UNL     1       7.129   7.506  17.428  0.00  0.00    +0.000 C 
ENDBRANCH  19  21
ENDBRANCH  18  19
ENDBRANCH  17  18
ENDBRANCH  16  17
ENDBRANCH  15  16
ENDBRANCH  14  15
ENDBRANCH  13  14
ENDBRANCH  12  13
ENDBRANCH   1  12
TORSDOF 17
ENDMDL
MODEL 9
REMARK VINA RESULT:      -5.1      3.841      7.962
REMARK  Name = 
REMARK  18 active torsions:
REMARK  status: ('A' for Active; 'I' for Inactive)
REMARK    1  A    between atoms: C_1  and  C_2
REMARK    2  A    between atoms: C_2  and  C_3
REMARK    3  A    between atoms: C_3  and  C_4
REMARK    4  A    between atoms: C_4  and  C_5
REMARK    5  A    between atoms: C_5  and  C_6
REMARK    6  A    between atoms: C_6  and  C_7
REMARK    7  A    between atoms: C_7  and  C_8
REMARK    8  A    between atoms: C_8  and  C_9
REMARK    9  A    between atoms: C_9  and  S_10
REMARK   10  A    between atoms: S_10  and  C_11
REMARK   11  A    between atoms: C_11  and  C_12
REMARK   12  A    between atoms: C_12  and  C_13
REMARK   13  A    between atoms: C_13  and  C_14
REMARK   14  A    between atoms: C_14  and  C_15
REMARK   15  A    between atoms: C_15  and  C_16
REMARK   16  A    between atoms: C_16  and  C_17
REMARK   17  A    between atoms: C_17  and  C_18
REMARK   18  A    between atoms: C_18  and  O_20
REMARK                            x       y       z     vdW  Elec       q    Type
REMARK                         _______ _______ _______ _____ _____    ______ ____
ROOT
ATOM      1  C   UNL     1       4.602   4.805  19.221  0.00  0.00    +0.000 C 
ENDROOT
BRANCH   1   2
ATOM      2  C   UNL     1       5.108   5.147  17.817  0.00  0.00    +0.000 C 
BRANCH   2   3
ATOM      3  C   UNL     1       6.609   5.427  17.807  0.00  0.00    +0.000 C 
BRANCH   3   4
ATOM      4  C   UNL     1       7.319   4.552  16.774  0.00  0.00    +0.000 C 
BRANCH   4   5
ATOM      5  C   UNL     1       6.311   3.907  15.823  0.00  0.00    +0.000 C 
BRANCH   5   6
ATOM      6  C   UNL     1       6.336   4.597  14.462  0.00  0.00    +0.000 C 
BRANCH   6   7
ATOM      7  C   UNL     1       5.540   3.834  13.399  0.00  0.00    +0.000 C 
BRANCH   7   8
ATOM      8  C   UNL     1       6.442   3.451  12.242  0.00  0.00    +0.000 C 
ATOM      9  O   UNL     1       7.294   4.174  11.740  0.00  0.00    +0.000 OA
BRANCH   8  10
ATOM     10  O   UNL     1       6.212   2.195  11.802  0.00  0.00    +0.000 OA
ATOM     11  H   UNL     1       6.660   1.478  12.305  0.00  0.00    +0.000 HD
ENDBRANCH   8  10
ENDBRANCH   7   8
ENDBRANCH   6   7
ENDBRANCH   5   6
ENDBRANCH   4   5
ENDBRANCH   3   4
ENDBRANCH   2   3
ENDBRANCH   1   2
BRANCH   1  12
ATOM     12  S   UNL     1       4.403   2.997  19.291  0.00  0.00    +0.000 S 
BRANCH  12  13
ATOM     13  C   UNL     1       3.159   2.728  17.990  0.00  0.00    +0.000 C 
BRANCH  13  14
ATOM     14  C   UNL     1       1.928   3.550  18.372  0.00  0.00    +0.000 C 
BRANCH  14  15
ATOM     15  C   UNL     1       1.319   3.079  19.687  0.00  0.00    +0.000 C 
BRANCH  15  16
ATOM     16  C   UNL     1       1.106   4.260  20.629  0.00  0.00    +0.000 C 
BRANCH  16  17
ATOM     17  C   UNL     1       1.679   5.534  20.024  0.00  0.00    +0.000 C 
BRANCH  17  18
ATOM     18  C   UNL     1       1.350   6.736  20.898  0.00  0.00    +0.000 C 
BRANCH  18  19
ATOM     19  C   UNL     1       1.751   8.027  20.196  0.00  0.00    +0.000 C 
BRANCH  19  21
ATOM     20  C   UNL     1       1.971   8.882  17.858  0.00  0.00    +0.000 C 
ATOM     21  C   UNL     1       2.291   7.738  18.801  0.00  0.00    +0.000 C 
ENDBRANCH  19  21
ENDBRANCH  18  19
ENDBRANCH  17  18
ENDBRANCH  16  17
ENDBRANCH  15  16
ENDBRANCH  14  15
ENDBRANCH  13  14
ENDBRANCH  12  13
ENDBRANCH   1  12
TORSDOF 17
ENDMDL
