MODEL 1
REMARK VINA RESULT:      -6.9      0.000      0.000
REMARK  Name = 
REMARK  11 active torsions:
REMARK  status: ('A' for Active; 'I' for Inactive)
REMARK    1  A    between atoms: C_1  and  N_2
REMARK    2  A    between atoms: N_5  and  C_6
REMARK    3  A    between atoms: C_6  and  C_7
REMARK    4  A    between atoms: C_7  and  C_8
REMARK    5  A    between atoms: C_8  and  O_9
REMARK    6  A    between atoms: C_8  and  P_10
REMARK    7  A    between atoms: C_8  and  P_14
REMARK    8  A    between atoms: P_10  and  O_12
REMARK    9  A    between atoms: P_10  and  O_13
REMARK   10  A    between atoms: P_14  and  O_16
REMARK   11  A    between atoms: P_14  and  O_17
REMARK                            x       y       z     vdW  Elec       q    Type
REMARK                         _______ _______ _______ _____ _____    ______ ____
ROOT
ATOM      1  C   UNL     1       6.195   6.052  17.312  0.00  0.00    +0.000 C 
ENDROOT
BRANCH   1   2
ATOM      2  O   UNL     1       6.850   7.255  16.754  0.00  0.00    +0.000 OA
ATOM      3  H   UNL     1       7.413   6.911  16.030  0.00  0.00    +0.000 HD
ENDBRANCH   1   2
BRANCH   1   4
ATOM      4  P   UNL     1       7.093   5.682  18.864  0.00  0.00    +0.000 P 
ATOM      5  O   UNL     1       7.822   4.498  18.211  0.00  0.00    +0.000 OA
BRANCH   4   6
ATOM      6  O   UNL     1       8.146   6.932  18.637  0.00  0.00    +0.000 OA
ATOM      7  H   UNL     1       8.967   6.600  18.219  0.00  0.00    +0.000 HD
ENDBRANCH   4   6
BRANCH   4   8
ATOM      8  O   UNL     1       7.942   5.332  20.330  0.00  0.00    +0.000 OA
ATOM      9  H   UNL     1       7.501   4.549  20.720  0.00  0.00    +0.000 HD
ENDBRANCH   4   8
ENDBRANCH   1   4
BRANCH   1  10
ATOM     10  P   UNL     1       6.274   4.826  15.955  0.00  0.00    +0.000 P 
ATOM     11  O   UNL     1       5.411   5.084  14.761  0.00  0.00    +0.000 OA
BRANCH  10  12
ATOM     12  O   UNL     1       7.828   4.619  15.606  0.00  0.00    +0.000 OA
ATOM     13  H   UNL     1       8.162   5.312  14.988  0.00  0.00    +0.000 HD
ENDBRANCH  10  12
BRANCH  10  14
ATOM     14  O   UNL     1       5.948   3.399  16.614  0.00  0.00    +0.000 OA
ATOM     15  H   UNL     1       5.991   3.488  17.589  0.00  0.00    +0.000 HD
ENDBRANCH  10  14
ENDBRANCH   1  10
BRANCH   1  16
ATOM     16  C   UNL     1       4.748   6.501  17.560  0.00  0.00    +0.000 C 
BRANCH  16  17
ATOM     17  C   UNL     1       3.993   5.583  18.518  0.00  0.00    +0.000 C 
BRANCH  17  22
ATOM     18  C   UNL     1       1.414   2.730  21.317  0.00  0.00    +0.000 C 
ATOM     19  N   UNL     1       1.308   3.867  20.408  0.00  0.00    +0.000 NA
ATOM     20  C   UNL     1       1.730   3.488  19.047  0.00  0.00    +0.000 C 
ATOM     21  C   UNL     1       1.727   4.701  18.083  0.00  0.00    +0.000 C 
ATOM     22  N   UNL     1       2.548   5.854  18.529  0.00  0.00    +0.000 NA
ATOM     23  C   UNL     1       2.093   6.201  19.899  0.00  0.00    +0.000 C 
ATOM     24  C   UNL     1       2.093   5.014  20.897  0.00  0.00    +0.000 C 
ENDBRANCH  17  22
ENDBRANCH  16  17
ENDBRANCH   1  16
TORSDOF 10
ENDMDL
MODEL 2
REMARK VINA RESULT:      -6.7      0.898      2.999
REMARK  Name = 
REMARK  11 active torsions:
REMARK  status: ('A' for Active; 'I' for Inactive)
REMARK    1  A    between atoms: C_1  and  N_2
REMARK    2  A    between atoms: N_5  and  C_6
REMARK    3  A    between atoms: C_6  and  C_7
REMARK    4  A    between atoms: C_7  and  C_8
REMARK    5  A    between atoms: C_8  and  O_9
REMARK    6  A    between atoms: C_8  and  P_10
REMARK    7  A    between atoms: C_8  and  P_14
REMARK    8  A    between atoms: P_10  and  O_12
REMARK    9  A    between atoms: P_10  and  O_13
REMARK   10  A    between atoms: P_14  and  O_16
REMARK   11  A    between atoms: P_14  and  O_17
REMARK                            x       y       z     vdW  Elec       q    Type
REMARK                         _______ _______ _______ _____ _____    ______ ____
ROOT
ATOM      1  C   UNL     1       5.801   4.612  17.160  0.00  0.00    +0.000 C 
ENDROOT
BRANCH   1   2
ATOM      2  O   UNL     1       5.208   3.455  17.866  0.00  0.00    +0.000 OA
ATOM      3  H   UNL     1       5.972   3.014  18.294  0.00  0.00    +0.000 HD
ENDBRANCH   1   2
BRANCH   1   4
ATOM      4  P   UNL     1       6.095   4.040  15.447  0.00  0.00    +0.000 P 
ATOM      5  O   UNL     1       5.135   5.099  14.882  0.00  0.00    +0.000 OA
BRANCH   4   6
ATOM      6  O   UNL     1       7.561   4.795  15.369  0.00  0.00    +0.000 OA
ATOM      7  H   UNL     1       7.766   5.206  16.234  0.00  0.00    +0.000 HD
ENDBRANCH   4   6
BRANCH   4   8
ATOM      8  O   UNL     1       6.373   3.500  13.826  0.00  0.00    +0.000 OA
ATOM      9  H   UNL     1       7.043   2.790  13.887  0.00  0.00    +0.000 HD
ENDBRANCH   4   8
ENDBRANCH   1   4
BRANCH   1  10
ATOM     10  P   UNL     1       7.251   5.066  18.181  0.00  0.00    +0.000 P 
ATOM     11  O   UNL     1       7.019   5.226  19.650  0.00  0.00    +0.000 OA
BRANCH  10  12
ATOM     12  O   UNL     1       8.422   4.031  17.812  0.00  0.00    +0.000 OA
ATOM     13  H   UNL     1       8.342   3.702  16.884  0.00  0.00    +0.000 HD
ENDBRANCH  10  12
BRANCH  10  14
ATOM     14  O   UNL     1       7.856   6.406  17.536  0.00  0.00    +0.000 OA
ATOM     15  H   UNL     1       8.630   6.166  16.987  0.00  0.00    +0.000 HD
ENDBRANCH  10  14
ENDBRANCH   1  10
BRANCH   1  16
ATOM     16  C   UNL     1       4.712   5.691  17.245  0.00  0.00    +0.000 C 
BRANCH  16  17
ATOM     17  C   UNL     1       4.038   5.754  18.613  0.00  0.00    +0.000 C 
BRANCH  17  22
ATOM     18  C   UNL     1       1.321   2.815  21.184  0.00  0.00    +0.000 C 
ATOM     19  N   UNL     1       1.257   3.957  20.276  0.00  0.00    +0.000 NA
ATOM     20  C   UNL     1       1.794   3.600  18.950  0.00  0.00    +0.000 C 
ATOM     21  C   UNL     1       1.837   4.820  17.996  0.00  0.00    +0.000 C 
ATOM     22  N   UNL     1       2.590   5.989  18.513  0.00  0.00    +0.000 NA
ATOM     23  C   UNL     1       2.022   6.313  19.845  0.00  0.00    +0.000 C 
ATOM     24  C   UNL     1       1.974   5.118  20.833  0.00  0.00    +0.000 C 
ENDBRANCH  17  22
ENDBRANCH  16  17
ENDBRANCH   1  16
TORSDOF 10
ENDMDL
MODEL 3
REMARK VINA RESULT:      -6.7      0.921      1.361
REMARK  Name = 
REMARK  11 active torsions:
REMARK  status: ('A' for Active; 'I' for Inactive)
REMARK    1  A    between atoms: C_1  and  N_2
REMARK    2  A    between atoms: N_5  and  C_6
REMARK    3  A    between atoms: C_6  and  C_7
REMARK    4  A    between atoms: C_7  and  C_8
REMARK    5  A    between atoms: C_8  and  O_9
REMARK    6  A    between atoms: C_8  and  P_10
REMARK    7  A    between atoms: C_8  and  P_14
REMARK    8  A    between atoms: P_10  and  O_12
REMARK    9  A    between atoms: P_10  and  O_13
REMARK   10  A    between atoms: P_14  and  O_16
REMARK   11  A    between atoms: P_14  and  O_17
REMARK                            x       y       z     vdW  Elec       q    Type
REMARK                         _______ _______ _______ _____ _____    ______ ____
ROOT
ATOM      1  C   UNL     1       5.822   5.591  16.493  0.00  0.00    +0.000 C 
ENDROOT
BRANCH   1   2
ATOM      2  O   UNL     1       5.272   6.850  15.944  0.00  0.00    +0.000 OA
ATOM      3  H   UNL     1       4.342   6.863  16.253  0.00  0.00    +0.000 HD
ENDBRANCH   1   2
BRANCH   1   4
ATOM      4  P   UNL     1       7.028   6.101  17.772  0.00  0.00    +0.000 P 
ATOM      5  O   UNL     1       7.819   4.794  17.610  0.00  0.00    +0.000 OA
BRANCH   4   6
ATOM      6  O   UNL     1       7.801   7.128  16.736  0.00  0.00    +0.000 OA
ATOM      7  H   UNL     1       7.810   8.032  17.113  0.00  0.00    +0.000 HD
ENDBRANCH   4   6
BRANCH   4   8
ATOM      8  O   UNL     1       8.169   6.583  18.980  0.00  0.00    +0.000 OA
ATOM      9  H   UNL     1       8.066   7.552  19.080  0.00  0.00    +0.000 HD
ENDBRANCH   4   8
ENDBRANCH   1   4
BRANCH   1  10
ATOM     10  P   UNL     1       6.447   4.696  15.024  0.00  0.00    +0.000 P 
ATOM     11  O   UNL     1       7.659   5.260  14.353  0.00  0.00    +0.000 OA
BRANCH  10  12
ATOM     12  O   UNL     1       6.591   3.153  15.446  0.00  0.00    +0.000 OA
ATOM     13  H   UNL     1       5.912   2.890  16.113  0.00  0.00    +0.000 HD
ENDBRANCH  10  12
BRANCH  10  14
ATOM     14  O   UNL     1       5.212   4.586  14.003  0.00  0.00    +0.000 OA
ATOM     15  H   UNL     1       5.543   4.746  13.095  0.00  0.00    +0.000 HD
ENDBRANCH  10  14
ENDBRANCH   1  10
BRANCH   1  16
ATOM     16  C   UNL     1       4.597   4.881  17.086  0.00  0.00    +0.000 C 
BRANCH  16  17
ATOM     17  C   UNL     1       4.150   5.475  18.420  0.00  0.00    +0.000 C 
BRANCH  17  22
ATOM     18  C   UNL     1       1.310   2.851  21.190  0.00  0.00    +0.000 C 
ATOM     19  N   UNL     1       1.309   3.991  20.278  0.00  0.00    +0.000 NA
ATOM     20  C   UNL     1       1.715   3.575  18.923  0.00  0.00    +0.000 C 
ATOM     21  C   UNL     1       1.826   4.781  17.957  0.00  0.00    +0.000 C 
ATOM     22  N   UNL     1       2.732   5.864  18.413  0.00  0.00    +0.000 NA
ATOM     23  C   UNL     1       2.291   6.250  19.776  0.00  0.00    +0.000 C 
ATOM     24  C   UNL     1       2.180   5.069  20.776  0.00  0.00    +0.000 C 
ENDBRANCH  17  22
ENDBRANCH  16  17
ENDBRANCH   1  16
TORSDOF 10
ENDMDL
MODEL 4
REMARK VINA RESULT:      -6.7      1.476      1.885
REMARK  Name = 
REMARK  11 active torsions:
REMARK  status: ('A' for Active; 'I' for Inactive)
REMARK    1  A    between atoms: C_1  and  N_2
REMARK    2  A    between atoms: N_5  and  C_6
REMARK    3  A    between atoms: C_6  and  C_7
REMARK    4  A    between atoms: C_7  and  C_8
REMARK    5  A    between atoms: C_8  and  O_9
REMARK    6  A    between atoms: C_8  and  P_10
REMARK    7  A    between atoms: C_8  and  P_14
REMARK    8  A    between atoms: P_10  and  O_12
REMARK    9  A    between atoms: P_10  and  O_13
REMARK   10  A    between atoms: P_14  and  O_16
REMARK   11  A    between atoms: P_14  and  O_17
REMARK                            x       y       z     vdW  Elec       q    Type
REMARK                         _______ _______ _______ _____ _____    ______ ____
ROOT
ATOM      1  C   UNL     1       5.730   5.806  16.423  0.00  0.00    +0.000 C 
ENDROOT
BRANCH   1   2
ATOM      2  O   UNL     1       5.452   7.075  15.716  0.00  0.00    +0.000 OA
ATOM      3  H   UNL     1       4.996   7.630  16.383  0.00  0.00    +0.000 HD
ENDBRANCH   1   2
BRANCH   1   4
ATOM      4  P   UNL     1       6.989   6.216  17.687  0.00  0.00    +0.000 P 
ATOM      5  O   UNL     1       7.746   4.905  17.421  0.00  0.00    +0.000 OA
BRANCH   4   6
ATOM      6  O   UNL     1       7.749   7.287  16.687  0.00  0.00    +0.000 OA
ATOM      7  H   UNL     1       7.325   8.166  16.762  0.00  0.00    +0.000 HD
ENDBRANCH   4   6
BRANCH   4   8
ATOM      8  O   UNL     1       8.180   6.603  18.881  0.00  0.00    +0.000 OA
ATOM      9  H   UNL     1       8.920   7.026  18.400  0.00  0.00    +0.000 HD
ENDBRANCH   4   8
ENDBRANCH   1   4
BRANCH   1  10
ATOM     10  P   UNL     1       6.192   4.641  15.089  0.00  0.00    +0.000 P 
ATOM     11  O   UNL     1       5.252   4.534  13.930  0.00  0.00    +0.000 OA
BRANCH  10  12
ATOM     12  O   UNL     1       7.705   4.985  14.675  0.00  0.00    +0.000 OA
ATOM     13  H   UNL     1       7.745   5.559  13.873  0.00  0.00    +0.000 HD
ENDBRANCH  10  12
BRANCH  10  14
ATOM     14  O   UNL     1       6.417   3.215  15.791  0.00  0.00    +0.000 OA
ATOM     15  H   UNL     1       7.362   2.972  15.709  0.00  0.00    +0.000 HD
ENDBRANCH  10  14
ENDBRANCH   1  10
BRANCH   1  16
ATOM     16  C   UNL     1       4.377   5.423  17.039  0.00  0.00    +0.000 C 
BRANCH  16  17
ATOM     17  C   UNL     1       4.474   4.250  18.012  0.00  0.00    +0.000 C 
BRANCH  17  22
ATOM     18  C   UNL     1       1.263   2.911  21.256  0.00  0.00    +0.000 C 
ATOM     19  N   UNL     1       1.746   2.614  19.911  0.00  0.00    +0.000 NA
ATOM     20  C   UNL     1       3.153   2.175  19.946  0.00  0.00    +0.000 C 
ATOM     21  C   UNL     1       3.725   1.953  18.523  0.00  0.00    +0.000 C 
ATOM     22  N   UNL     1       3.615   3.124  17.618  0.00  0.00    +0.000 NA
ATOM     23  C   UNL     1       2.189   3.532  17.612  0.00  0.00    +0.000 C 
ATOM     24  C   UNL     1       1.584   3.776  19.020  0.00  0.00    +0.000 C 
ENDBRANCH  17  22
ENDBRANCH  16  17
ENDBRANCH   1  16
TORSDOF 10
ENDMDL
MODEL 5
REMARK VINA RESULT:      -6.6      0.945      1.539
REMARK  Name = 
REMARK  11 active torsions:
REMARK  status: ('A' for Active; 'I' for Inactive)
REMARK    1  A    between atoms: C_1  and  N_2
REMARK    2  A    between atoms: N_5  and  C_6
REMARK    3  A    between atoms: C_6  and  C_7
REMARK    4  A    between atoms: C_7  and  C_8
REMARK    5  A    between atoms: C_8  and  O_9
REMARK    6  A    between atoms: C_8  and  P_10
REMARK    7  A    between atoms: C_8  and  P_14
REMARK    8  A    between atoms: P_10  and  O_12
REMARK    9  A    between atoms: P_10  and  O_13
REMARK   10  A    between atoms: P_14  and  O_16
REMARK   11  A    between atoms: P_14  and  O_17
REMARK                            x       y       z     vdW  Elec       q    Type
REMARK                         _______ _______ _______ _____ _____    ______ ____
ROOT
ATOM      1  C   UNL     1       6.151   6.187  17.467  0.00  0.00    +0.000 C 
ENDROOT
BRANCH   1   2
ATOM      2  O   UNL     1       6.660   7.520  17.078  0.00  0.00    +0.000 OA
ATOM      3  H   UNL     1       7.205   7.803  17.841  0.00  0.00    +0.000 HD
ENDBRANCH   1   2
BRANCH   1   4
ATOM      4  P   UNL     1       7.142   5.690  18.923  0.00  0.00    +0.000 P 
ATOM      5  O   UNL     1       7.823   4.564  18.130  0.00  0.00    +0.000 OA
BRANCH   4   6
ATOM      6  O   UNL     1       8.186   6.954  18.734  0.00  0.00    +0.000 OA
ATOM      7  H   UNL     1       7.691   7.753  18.457  0.00  0.00    +0.000 HD
ENDBRANCH   4   6
BRANCH   4   8
ATOM      8  O   UNL     1       8.080   5.221  20.299  0.00  0.00    +0.000 OA
ATOM      9  H   UNL     1       7.595   5.549  21.084  0.00  0.00    +0.000 HD
ENDBRANCH   4   8
ENDBRANCH   1   4
BRANCH   1  10
ATOM     10  P   UNL     1       6.297   5.187  15.940  0.00  0.00    +0.000 P 
ATOM     11  O   UNL     1       6.007   3.724  16.060  0.00  0.00    +0.000 OA
BRANCH  10  12
ATOM     12  O   UNL     1       5.434   5.935  14.811  0.00  0.00    +0.000 OA
ATOM     13  H   UNL     1       4.640   6.383  15.192  0.00  0.00    +0.000 HD
ENDBRANCH  10  12
BRANCH  10  14
ATOM     14  O   UNL     1       7.776   5.445  15.371  0.00  0.00    +0.000 OA
ATOM     15  H   UNL     1       8.282   5.955  16.036  0.00  0.00    +0.000 HD
ENDBRANCH  10  14
ENDBRANCH   1  10
BRANCH   1  16
ATOM     16  C   UNL     1       4.677   6.442  17.814  0.00  0.00    +0.000 C 
BRANCH  16  17
ATOM     17  C   UNL     1       4.109   5.421  18.796  0.00  0.00    +0.000 C 
BRANCH  17  22
ATOM     18  C   UNL     1       1.521   2.638  21.657  0.00  0.00    +0.000 C 
ATOM     19  N   UNL     1       1.864   2.860  20.256  0.00  0.00    +0.000 NA
ATOM     20  C   UNL     1       3.308   2.661  20.034  0.00  0.00    +0.000 C 
ATOM     21  C   UNL     1       3.720   2.992  18.577  0.00  0.00    +0.000 C 
ATOM     22  N   UNL     1       3.354   4.356  18.121  0.00  0.00    +0.000 NA
ATOM     23  C   UNL     1       1.898   4.514  18.363  0.00  0.00    +0.000 C 
ATOM     24  C   UNL     1       1.449   4.203  19.815  0.00  0.00    +0.000 C 
ENDBRANCH  17  22
ENDBRANCH  16  17
ENDBRANCH   1  16
TORSDOF 10
ENDMDL
MODEL 6
REMARK VINA RESULT:      -6.6      1.372      1.972
REMARK  Name = 
REMARK  11 active torsions:
REMARK  status: ('A' for Active; 'I' for Inactive)
REMARK    1  A    between atoms: C_1  and  N_2
REMARK    2  A    between atoms: N_5  and  C_6
REMARK    3  A    between atoms: C_6  and  C_7
REMARK    4  A    between atoms: C_7  and  C_8
REMARK    5  A    between atoms: C_8  and  O_9
REMARK    6  A    between atoms: C_8  and  P_10
REMARK    7  A    between atoms: C_8  and  P_14
REMARK    8  A    between atoms: P_10  and  O_12
REMARK    9  A    between atoms: P_10  and  O_13
REMARK   10  A    between atoms: P_14  and  O_16
REMARK   11  A    between atoms: P_14  and  O_17
REMARK                            x       y       z     vdW  Elec       q    Type
REMARK                         _______ _______ _______ _____ _____    ______ ____
ROOT
ATOM      1  C   UNL     1       6.184   5.959  17.304  0.00  0.00    +0.000 C 
ENDROOT
BRANCH   1   2
ATOM      2  O   UNL     1       5.055   6.500  16.517  0.00  0.00    +0.000 OA
ATOM      3  H   UNL     1       5.194   7.470  16.528  0.00  0.00    +0.000 HD
ENDBRANCH   1   2
BRANCH   1   4
ATOM      4  P   UNL     1       7.197   7.411  17.767  0.00  0.00    +0.000 P 
ATOM      5  O   UNL     1       7.968   6.595  18.815  0.00  0.00    +0.000 OA
BRANCH   4   6
ATOM      6  O   UNL     1       8.144   7.270  16.423  0.00  0.00    +0.000 OA
ATOM      7  H   UNL     1       9.088   7.252  16.685  0.00  0.00    +0.000 HD
ENDBRANCH   4   6
BRANCH   4   8
ATOM      8  O   UNL     1       8.155   8.784  18.204  0.00  0.00    +0.000 OA
ATOM      9  H   UNL     1       9.045   8.437  18.421  0.00  0.00    +0.000 HD
ENDBRANCH   4   8
ENDBRANCH   1   4
BRANCH   1  10
ATOM     10  P   UNL     1       6.931   4.697  16.208  0.00  0.00    +0.000 P 
ATOM     11  O   UNL     1       7.306   5.136  14.828  0.00  0.00    +0.000 OA
BRANCH  10  12
ATOM     12  O   UNL     1       8.135   4.023  17.030  0.00  0.00    +0.000 OA
ATOM     13  H   UNL     1       8.813   3.626  16.431  0.00  0.00    +0.000 HD
ENDBRANCH  10  12
BRANCH  10  14
ATOM     14  O   UNL     1       5.902   3.465  16.169  0.00  0.00    +0.000 OA
ATOM     15  H   UNL     1       6.385   2.664  15.881  0.00  0.00    +0.000 HD
ENDBRANCH  10  14
ENDBRANCH   1  10
BRANCH   1  16
ATOM     16  C   UNL     1       5.507   5.300  18.515  0.00  0.00    +0.000 C 
BRANCH  16  17
ATOM     17  C   UNL     1       3.983   5.345  18.444  0.00  0.00    +0.000 C 
BRANCH  17  22
ATOM     18  C   UNL     1       1.441   2.787  21.547  0.00  0.00    +0.000 C 
ATOM     19  N   UNL     1       1.890   2.813  20.158  0.00  0.00    +0.000 NA
ATOM     20  C   UNL     1       3.362   2.753  20.084  0.00  0.00    +0.000 C 
ATOM     21  C   UNL     1       3.872   2.885  18.627  0.00  0.00    +0.000 C 
ATOM     22  N   UNL     1       3.411   4.100  17.911  0.00  0.00    +0.000 NA
ATOM     23  C   UNL     1       1.930   4.122  18.011  0.00  0.00    +0.000 C 
ATOM     24  C   UNL     1       1.381   4.005  19.457  0.00  0.00    +0.000 C 
ENDBRANCH  17  22
ENDBRANCH  16  17
ENDBRANCH   1  16
TORSDOF 10
ENDMDL
MODEL 7
REMARK VINA RESULT:      -6.6      1.163      1.648
REMARK  Name = 
REMARK  11 active torsions:
REMARK  status: ('A' for Active; 'I' for Inactive)
REMARK    1  A    between atoms: C_1  and  N_2
REMARK    2  A    between atoms: N_5  and  C_6
REMARK    3  A    between atoms: C_6  and  C_7
REMARK    4  A    between atoms: C_7  and  C_8
REMARK    5  A    between atoms: C_8  and  O_9
REMARK    6  A    between atoms: C_8  and  P_10
REMARK    7  A    between atoms: C_8  and  P_14
REMARK    8  A    between atoms: P_10  and  O_12
REMARK    9  A    between atoms: P_10  and  O_13
REMARK   10  A    between atoms: P_14  and  O_16
REMARK   11  A    between atoms: P_14  and  O_17
REMARK                            x       y       z     vdW  Elec       q    Type
REMARK                         _______ _______ _______ _____ _____    ______ ____
ROOT
ATOM      1  C   UNL     1       6.334   6.170  17.431  0.00  0.00    +0.000 C 
ENDROOT
BRANCH   1   2
ATOM      2  O   UNL     1       6.897   7.471  17.011  0.00  0.00    +0.000 OA
ATOM      3  H   UNL     1       6.544   7.609  16.107  0.00  0.00    +0.000 HD
ENDBRANCH   1   2
BRANCH   1   4
ATOM      4  P   UNL     1       7.257   5.703  18.941  0.00  0.00    +0.000 P 
ATOM      5  O   UNL     1       8.012   4.595  18.190  0.00  0.00    +0.000 OA
BRANCH   4   6
ATOM      6  O   UNL     1       8.274   6.995  18.807  0.00  0.00    +0.000 OA
ATOM      7  H   UNL     1       8.143   7.430  17.939  0.00  0.00    +0.000 HD
ENDBRANCH   4   6
BRANCH   4   8
ATOM      8  O   UNL     1       8.130   5.261  20.368  0.00  0.00    +0.000 OA
ATOM      9  H   UNL     1       7.661   5.686  21.116  0.00  0.00    +0.000 HD
ENDBRANCH   4   8
ENDBRANCH   1   4
BRANCH   1  10
ATOM     10  P   UNL     1       6.506   5.108  15.950  0.00  0.00    +0.000 P 
ATOM     11  O   UNL     1       7.749   5.278  15.136  0.00  0.00    +0.000 OA
BRANCH  10  12
ATOM     12  O   UNL     1       6.238   3.598  16.427  0.00  0.00    +0.000 OA
ATOM     13  H   UNL     1       6.973   3.254  16.990  0.00  0.00    +0.000 HD
ENDBRANCH  10  12
BRANCH  10  14
ATOM     14  O   UNL     1       5.190   5.353  15.063  0.00  0.00    +0.000 OA
ATOM     15  H   UNL     1       5.122   6.309  14.863  0.00  0.00    +0.000 HD
ENDBRANCH  10  14
ENDBRANCH   1  10
BRANCH   1  16
ATOM     16  C   UNL     1       4.857   6.481  17.713  0.00  0.00    +0.000 C 
BRANCH  16  17
ATOM     17  C   UNL     1       4.388   5.969  19.073  0.00  0.00    +0.000 C 
BRANCH  17  22
ATOM     18  C   UNL     1       3.466   1.334  18.535  0.00  0.00    +0.000 C 
ATOM     19  N   UNL     1       2.822   2.629  18.730  0.00  0.00    +0.000 NA
ATOM     20  C   UNL     1       3.105   3.528  17.595  0.00  0.00    +0.000 C 
ATOM     21  C   UNL     1       2.521   4.945  17.822  0.00  0.00    +0.000 C 
ATOM     22  N   UNL     1       2.963   5.609  19.074  0.00  0.00    +0.000 NA
ATOM     23  C   UNL     1       2.663   4.673  20.186  0.00  0.00    +0.000 C 
ATOM     24  C   UNL     1       3.242   3.246  20.000  0.00  0.00    +0.000 C 
ENDBRANCH  17  22
ENDBRANCH  16  17
ENDBRANCH   1  16
TORSDOF 10
ENDMDL
MODEL 8
REMARK VINA RESULT:      -6.6      1.572      2.205
REMARK  Name = 
REMARK  11 active torsions:
REMARK  status: ('A' for Active; 'I' for Inactive)
REMARK    1  A    between atoms: C_1  and  N_2
REMARK    2  A    between atoms: N_5  and  C_6
REMARK    3  A    between atoms: C_6  and  C_7
REMARK    4  A    between atoms: C_7  and  C_8
REMARK    5  A    between atoms: C_8  and  O_9
REMARK    6  A    between atoms: C_8  and  P_10
REMARK    7  A    between atoms: C_8  and  P_14
REMARK    8  A    between atoms: P_10  and  O_12
REMARK    9  A    between atoms: P_10  and  O_13
REMARK   10  A    between atoms: P_14  and  O_16
REMARK   11  A    between atoms: P_14  and  O_17
REMARK                            x       y       z     vdW  Elec       q    Type
REMARK                         _______ _______ _______ _____ _____    ______ ____
ROOT
ATOM      1  C   UNL     1       5.553   5.254  17.491  0.00  0.00    +0.000 C 
ENDROOT
BRANCH   1   2
ATOM      2  O   UNL     1       4.644   6.408  17.654  0.00  0.00    +0.000 OA
ATOM      3  H   UNL     1       4.235   6.273  18.535  0.00  0.00    +0.000 HD
ENDBRANCH   1   2
BRANCH   1   4
ATOM      4  P   UNL     1       6.753   5.379  18.868  0.00  0.00    +0.000 P 
ATOM      5  O   UNL     1       5.868   4.510  19.776  0.00  0.00    +0.000 OA
BRANCH   4   6
ATOM      6  O   UNL     1       7.768   4.275  18.180  0.00  0.00    +0.000 OA
ATOM      7  H   UNL     1       7.528   3.374  18.480  0.00  0.00    +0.000 HD
ENDBRANCH   4   6
BRANCH   4   8
ATOM      8  O   UNL     1       7.887   5.497  20.170  0.00  0.00    +0.000 OA
ATOM      9  H   UNL     1       7.934   6.446  20.404  0.00  0.00    +0.000 HD
ENDBRANCH   4   8
ENDBRANCH   1   4
BRANCH   1  10
ATOM     10  P   UNL     1       6.181   5.415  15.780  0.00  0.00    +0.000 P 
ATOM     11  O   UNL     1       6.257   4.162  14.966  0.00  0.00    +0.000 OA
BRANCH  10  12
ATOM     12  O   UNL     1       5.342   6.596  15.086  0.00  0.00    +0.000 OA
ATOM     13  H   UNL     1       5.364   6.532  14.101  0.00  0.00    +0.000 HD
ENDBRANCH  10  12
BRANCH  10  14
ATOM     14  O   UNL     1       7.616   6.127  15.890  0.00  0.00    +0.000 OA
ATOM     15  H   UNL     1       7.911   6.092  16.823  0.00  0.00    +0.000 HD
ENDBRANCH  10  14
ENDBRANCH   1  10
BRANCH   1  16
ATOM     16  C   UNL     1       4.628   4.035  17.622  0.00  0.00    +0.000 C 
BRANCH  16  17
ATOM     17  C   UNL     1       3.148   4.396  17.528  0.00  0.00    +0.000 C 
BRANCH  17  22
ATOM     18  C   UNL     1       1.830   2.735  21.786  0.00  0.00    +0.000 C 
ATOM     19  N   UNL     1       1.678   2.502  20.353  0.00  0.00    +0.000 NA
ATOM     20  C   UNL     1       2.979   2.184  19.735  0.00  0.00    +0.000 C 
ATOM     21  C   UNL     1       2.866   2.035  18.197  0.00  0.00    +0.000 C 
ATOM     22  N   UNL     1       2.283   3.207  17.498  0.00  0.00    +0.000 NA
ATOM     23  C   UNL     1       0.981   3.493  18.150  0.00  0.00    +0.000 C 
ATOM     24  C   UNL     1       1.055   3.661  19.690  0.00  0.00    +0.000 C 
ENDBRANCH  17  22
ENDBRANCH  16  17
ENDBRANCH   1  16
TORSDOF 10
ENDMDL
MODEL 9
REMARK VINA RESULT:      -6.6      4.076      5.818
REMARK  Name = 
REMARK  11 active torsions:
REMARK  status: ('A' for Active; 'I' for Inactive)
REMARK    1  A    between atoms: C_1  and  N_2
REMARK    2  A    between atoms: N_5  and  C_6
REMARK    3  A    between atoms: C_6  and  C_7
REMARK    4  A    between atoms: C_7  and  C_8
REMARK    5  A    between atoms: C_8  and  O_9
REMARK    6  A    between atoms: C_8  and  P_10
REMARK    7  A    between atoms: C_8  and  P_14
REMARK    8  A    between atoms: P_10  and  O_12
REMARK    9  A    between atoms: P_10  and  O_13
REMARK   10  A    between atoms: P_14  and  O_16
REMARK   11  A    between atoms: P_14  and  O_17
REMARK                            x       y       z     vdW  Elec       q    Type
REMARK                         _______ _______ _______ _____ _____    ______ ____
ROOT
ATOM      1  C   UNL     1       3.085   3.285  19.652  0.00  0.00    +0.000 C 
ENDROOT
BRANCH   1   2
ATOM      2  O   UNL     1       4.449   2.809  19.971  0.00  0.00    +0.000 OA
ATOM      3  H   UNL     1       4.332   2.258  20.773  0.00  0.00    +0.000 HD
ENDBRANCH   1   2
BRANCH   1   4
ATOM      4  P   UNL     1       2.083   2.933  21.143  0.00  0.00    +0.000 P 
ATOM      5  O   UNL     1       2.408   4.311  21.740  0.00  0.00    +0.000 OA
BRANCH   4   6
ATOM      6  O   UNL     1       0.666   3.204  20.343  0.00  0.00    +0.000 OA
ATOM      7  H   UNL     1       0.352   2.370  19.937  0.00  0.00    +0.000 HD
ENDBRANCH   4   6
BRANCH   4   8
ATOM      8  O   UNL     1       1.136   2.601  22.552  0.00  0.00    +0.000 OA
ATOM      9  H   UNL     1       1.741   2.172  23.192  0.00  0.00    +0.000 HD
ENDBRANCH   4   8
ENDBRANCH   1   4
BRANCH   1  10
ATOM     10  P   UNL     1       2.658   2.418  18.098  0.00  0.00    +0.000 P 
ATOM     11  O   UNL     1       2.342   3.272  16.912  0.00  0.00    +0.000 OA
BRANCH  10  12
ATOM     12  O   UNL     1       3.817   1.337  17.836  0.00  0.00    +0.000 OA
ATOM     13  H   UNL     1       3.508   0.600  17.256  0.00  0.00    +0.000 HD
ENDBRANCH  10  12
BRANCH  10  14
ATOM     14  O   UNL     1       1.440   1.433  18.450  0.00  0.00    +0.000 OA
ATOM     15  H   UNL     1       0.664   1.692  17.911  0.00  0.00    +0.000 HD
ENDBRANCH  10  14
ENDBRANCH   1  10
BRANCH   1  16
ATOM     16  C   UNL     1       3.270   4.790  19.406  0.00  0.00    +0.000 C 
BRANCH  16  17
ATOM     17  C   UNL     1       4.736   5.202  19.296  0.00  0.00    +0.000 C 
BRANCH  17  22
ATOM     18  C   UNL     1       7.829   8.351  17.523  0.00  0.00    +0.000 C 
ATOM     19  N   UNL     1       7.205   7.059  17.251  0.00  0.00    +0.000 NA
ATOM     20  C   UNL     1       5.744   7.204  17.113  0.00  0.00    +0.000 C 
ATOM     21  C   UNL     1       5.042   5.835  16.928  0.00  0.00    +0.000 C 
ATOM     22  N   UNL     1       5.322   4.843  17.996  0.00  0.00    +0.000 NA
ATOM     23  C   UNL     1       6.797   4.729  18.103  0.00  0.00    +0.000 C 
ATOM     24  C   UNL     1       7.535   6.079  18.301  0.00  0.00    +0.000 C 
ENDBRANCH  17  22
ENDBRANCH  16  17
ENDBRANCH   1  16
TORSDOF 10
ENDMDL
