MODEL 1
REMARK VINA RESULT:      -7.5      0.000      0.000
REMARK  Name = 
REMARK  5 active torsions:
REMARK  status: ('A' for Active; 'I' for Inactive)
REMARK    1  A    between atoms: C_1  and  C_2
REMARK    2  A    between atoms: C_2  and  N_3
REMARK    3  A    between atoms: C_2  and  C_25
REMARK    4  A    between atoms: N_7  and  C_8
REMARK    5  A    between atoms: C_14  and  C_15
REMARK                            x       y       z     vdW  Elec       q    Type
REMARK                         _______ _______ _______ _____ _____    ______ ____
ROOT
ATOM      1  N   UNL     1      -0.831  13.145  20.938  0.00  0.00    +0.000 N 
ATOM      2  C   UNL     1      -1.131  12.332  19.883  0.00  0.00    +0.000 A 
ATOM      3  N   UNL     1      -0.131  11.472  19.471  0.00  0.00    +0.000 NA
ATOM      4  C   UNL     1      -0.309  10.754  18.395  0.00  0.00    +0.000 A 
ATOM      5  N   UNL     1       0.621   9.922  17.799  0.00  0.00    +0.000 N 
ATOM      6  N   UNL     1      -1.566  10.806  17.777  0.00  0.00    +0.000 N 
ATOM      7  N   UNL     1      -1.926  10.034  16.721  0.00  0.00    +0.000 NA
ATOM      8  C   UNL     1      -3.222  10.345  16.569  0.00  0.00    +0.000 A 
ATOM      9  C   UNL     1      -3.676  11.296  17.516  0.00  0.00    +0.000 A 
ATOM     10  C   UNL     1      -2.562  11.586  18.274  0.00  0.00    +0.000 A 
ATOM     11  N   UNL     1      -2.310  12.404  19.325  0.00  0.00    +0.000 NA
ATOM     12  H   UNL     1      -0.533  12.609  21.743  0.00  0.00    +0.000 HD
ATOM     13  H   UNL     1       0.234   9.374  17.028  0.00  0.00    +0.000 HD
ENDROOT
BRANCH   9  14
ATOM     14  C   UNL     1      -4.988  11.845  17.660  0.00  0.00    +0.000 C 
ATOM     15  C   UNL     1      -5.949  11.420  18.491  0.00  0.00    +0.000 C 
ATOM     16  N   UNL     1      -5.903  10.369  19.362  0.00  0.00    +0.000 N 
ATOM     17  C   UNL     1      -7.087  10.273  20.064  0.00  0.00    +0.000 C 
ATOM     18  O   UNL     1      -7.338   9.469  20.941  0.00  0.00    +0.000 OA
ATOM     19  N   UNL     1      -7.916  11.264  19.604  0.00  0.00    +0.000 N 
ATOM     20  C   UNL     1      -7.303  12.030  18.651  0.00  0.00    +0.000 C 
ATOM     21  O   UNL     1      -7.741  13.003  18.071  0.00  0.00    +0.000 OA
ATOM     22  H   UNL     1      -5.079   9.812  19.552  0.00  0.00    +0.000 HD
ATOM     23  H   UNL     1      -8.835  11.434  19.971  0.00  0.00    +0.000 HD
ENDBRANCH   9  14
BRANCH   5  24
ATOM     24  C   UNL     1       1.714   9.360  18.578  0.00  0.00    +0.000 C 
ATOM     25  C   UNL     1       1.477   8.213  19.520  0.00  0.00    +0.000 C 
ATOM     26  C   UNL     1       2.236   7.988  18.245  0.00  0.00    +0.000 C 
ENDBRANCH   5  24
BRANCH   1  28
ATOM     27  C   UNL     1      -0.635  15.587  21.060  0.00  0.00    +0.000 C 
ATOM     28  C   UNL     1      -1.561  14.373  21.249  0.00  0.00    +0.000 C 
BRANCH  28  29
ATOM     29  C   UNL     1      -2.032  14.379  22.702  0.00  0.00    +0.000 A 
ATOM     30  C   UNL     1      -1.291  15.059  23.692  0.00  0.00    +0.000 A 
ATOM     31  C   UNL     1      -1.769  15.173  24.997  0.00  0.00    +0.000 A 
ATOM     32 CL   UNL     1      -0.842  16.022  26.170  0.00  0.00    +0.000 Cl
ATOM     33  C   UNL     1      -2.998  14.626  25.347  0.00  0.00    +0.000 A 
ATOM     34  C   UNL     1      -3.751  13.951  24.387  0.00  0.00    +0.000 A 
ATOM     35  C   UNL     1      -3.275  13.825  23.076  0.00  0.00    +0.000 A 
ATOM     36 CL   UNL     1      -4.304  13.018  21.946  0.00  0.00    +0.000 Cl
ENDBRANCH  28  29
ENDBRANCH   1  28
TORSDOF 4
ENDMDL
MODEL 2
REMARK VINA RESULT:      -7.3      1.463      1.748
REMARK  Name = 
REMARK  5 active torsions:
REMARK  status: ('A' for Active; 'I' for Inactive)
REMARK    1  A    between atoms: C_1  and  C_2
REMARK    2  A    between atoms: C_2  and  N_3
REMARK    3  A    between atoms: C_2  and  C_25
REMARK    4  A    between atoms: N_7  and  C_8
REMARK    5  A    between atoms: C_14  and  C_15
REMARK                            x       y       z     vdW  Elec       q    Type
REMARK                         _______ _______ _______ _____ _____    ______ ____
ROOT
ATOM      1  N   UNL     1      -0.907  12.762  20.946  0.00  0.00    +0.000 N 
ATOM      2  C   UNL     1      -1.201  12.033  19.831  0.00  0.00    +0.000 A 
ATOM      3  N   UNL     1      -0.223  11.160  19.395  0.00  0.00    +0.000 NA
ATOM      4  C   UNL     1      -0.391  10.521  18.269  0.00  0.00    +0.000 A 
ATOM      5  N   UNL     1       0.526   9.692  17.650  0.00  0.00    +0.000 N 
ATOM      6  N   UNL     1      -1.622  10.665  17.615  0.00  0.00    +0.000 N 
ATOM      7  N   UNL     1      -1.976   9.979  16.500  0.00  0.00    +0.000 NA
ATOM      8  C   UNL     1      -3.252  10.354  16.326  0.00  0.00    +0.000 A 
ATOM      9  C   UNL     1      -3.701  11.260  17.320  0.00  0.00    +0.000 A 
ATOM     10  C   UNL     1      -2.604  11.453  18.130  0.00  0.00    +0.000 A 
ATOM     11  N   UNL     1      -2.357  12.190  19.241  0.00  0.00    +0.000 NA
ATOM     12  H   UNL     1      -0.659  12.163  21.723  0.00  0.00    +0.000 HD
ATOM     13  H   UNL     1       0.144   9.211  16.832  0.00  0.00    +0.000 HD
ENDROOT
BRANCH   9  14
ATOM     14  C   UNL     1      -4.995  11.853  17.457  0.00  0.00    +0.000 C 
ATOM     15  C   UNL     1      -5.949  11.503  18.329  0.00  0.00    +0.000 C 
ATOM     16  N   UNL     1      -5.913  10.502  19.258  0.00  0.00    +0.000 N 
ATOM     17  C   UNL     1      -7.085  10.479  19.987  0.00  0.00    +0.000 C 
ATOM     18  O   UNL     1      -7.340   9.732  20.912  0.00  0.00    +0.000 OA
ATOM     19  N   UNL     1      -7.897  11.465  19.486  0.00  0.00    +0.000 N 
ATOM     20  C   UNL     1      -7.283  12.158  18.480  0.00  0.00    +0.000 C 
ATOM     21  O   UNL     1      -7.707  13.109  17.854  0.00  0.00    +0.000 OA
ATOM     22  H   UNL     1      -5.101   9.933  19.463  0.00  0.00    +0.000 HD
ATOM     23  H   UNL     1      -8.803  11.681  19.861  0.00  0.00    +0.000 HD
ENDBRANCH   9  14
BRANCH   5  24
ATOM     24  C   UNL     1       1.567   9.035  18.425  0.00  0.00    +0.000 C 
ATOM     25  C   UNL     1       1.814   7.559  18.288  0.00  0.00    +0.000 C 
ATOM     26  C   UNL     1       2.808   8.537  17.733  0.00  0.00    +0.000 C 
ENDBRANCH   5  24
BRANCH   1  28
ATOM     27  C   UNL     1      -0.606  14.966  21.980  0.00  0.00    +0.000 C 
ATOM     28  C   UNL     1      -1.598  13.997  21.314  0.00  0.00    +0.000 C 
BRANCH  28  29
ATOM     29  C   UNL     1      -2.714  13.723  22.320  0.00  0.00    +0.000 A 
ATOM     30  C   UNL     1      -3.903  14.482  22.293  0.00  0.00    +0.000 A 
ATOM     31  C   UNL     1      -4.977  14.166  23.125  0.00  0.00    +0.000 A 
ATOM     32 CL   UNL     1      -6.415  15.106  23.051  0.00  0.00    +0.000 Cl
ATOM     33  C   UNL     1      -4.902  13.083  23.993  0.00  0.00    +0.000 A 
ATOM     34  C   UNL     1      -3.738  12.316  24.037  0.00  0.00    +0.000 A 
ATOM     35  C   UNL     1      -2.652  12.630  23.210  0.00  0.00    +0.000 A 
ATOM     36 CL   UNL     1      -1.275  11.589  23.299  0.00  0.00    +0.000 Cl
ENDBRANCH  28  29
ENDBRANCH   1  28
TORSDOF 4
ENDMDL
MODEL 3
REMARK VINA RESULT:      -7.2      3.313      6.870
REMARK  Name = 
REMARK  5 active torsions:
REMARK  status: ('A' for Active; 'I' for Inactive)
REMARK    1  A    between atoms: C_1  and  C_2
REMARK    2  A    between atoms: C_2  and  N_3
REMARK    3  A    between atoms: C_2  and  C_25
REMARK    4  A    between atoms: N_7  and  C_8
REMARK    5  A    between atoms: C_14  and  C_15
REMARK                            x       y       z     vdW  Elec       q    Type
REMARK                         _______ _______ _______ _____ _____    ______ ____
ROOT
ATOM      1  N   UNL     1       1.048  10.534  20.602  0.00  0.00    +0.000 N 
ATOM      2  C   UNL     1       0.318  11.675  20.773  0.00  0.00    +0.000 A 
ATOM      3  N   UNL     1       1.012  12.782  21.222  0.00  0.00    +0.000 NA
ATOM      4  C   UNL     1       0.355  13.870  21.521  0.00  0.00    +0.000 A 
ATOM      5  N   UNL     1       0.883  15.025  22.069  0.00  0.00    +0.000 N 
ATOM      6  N   UNL     1      -1.020  13.896  21.254  0.00  0.00    +0.000 N 
ATOM      7  N   UNL     1      -1.805  14.991  21.410  0.00  0.00    +0.000 NA
ATOM      8  C   UNL     1      -2.983  14.571  20.924  0.00  0.00    +0.000 A 
ATOM      9  C   UNL     1      -2.943  13.232  20.462  0.00  0.00    +0.000 A 
ATOM     10  C   UNL     1      -1.651  12.820  20.712  0.00  0.00    +0.000 A 
ATOM     11  N   UNL     1      -0.963  11.668  20.518  0.00  0.00    +0.000 NA
ATOM     12  H   UNL     1       1.827  10.686  19.974  0.00  0.00    +0.000 HD
ATOM     13  H   UNL     1       0.208  15.790  22.121  0.00  0.00    +0.000 HD
ENDROOT
BRANCH   9  14
ATOM     14  C   UNL     1      -3.997  12.466  19.874  0.00  0.00    +0.000 C 
ATOM     15  C   UNL     1      -4.003  11.912  18.655  0.00  0.00    +0.000 C 
ATOM     16  N   UNL     1      -3.027  11.968  17.701  0.00  0.00    +0.000 N 
ATOM     17  C   UNL     1      -3.399  11.243  16.587  0.00  0.00    +0.000 C 
ATOM     18  O   UNL     1      -2.728  11.068  15.588  0.00  0.00    +0.000 OA
ATOM     19  N   UNL     1      -4.654  10.745  16.825  0.00  0.00    +0.000 N 
ATOM     20  C   UNL     1      -5.102  11.086  18.072  0.00  0.00    +0.000 C 
ATOM     21  O   UNL     1      -6.148  10.776  18.606  0.00  0.00    +0.000 OA
ATOM     22  H   UNL     1      -2.112  12.383  17.834  0.00  0.00    +0.000 HD
ATOM     23  H   UNL     1      -5.148  10.153  16.181  0.00  0.00    +0.000 HD
ENDBRANCH   9  14
BRANCH   5  24
ATOM     24  C   UNL     1       2.292  15.345  21.898  0.00  0.00    +0.000 C 
ATOM     25  C   UNL     1       2.721  16.706  21.427  0.00  0.00    +0.000 C 
ATOM     26  C   UNL     1       2.960  16.298  22.852  0.00  0.00    +0.000 C 
ENDBRANCH   5  24
BRANCH   1  28
ATOM     27  C   UNL     1       0.138   8.712  21.969  0.00  0.00    +0.000 C 
ATOM     28  C   UNL     1       0.461   9.196  20.545  0.00  0.00    +0.000 C 
BRANCH  28  29
ATOM     29  C   UNL     1       1.437   8.194  19.931  0.00  0.00    +0.000 A 
ATOM     30  C   UNL     1       1.653   6.940  20.542  0.00  0.00    +0.000 A 
ATOM     31  C   UNL     1       2.448   5.971  19.931  0.00  0.00    +0.000 A 
ATOM     32 CL   UNL     1       2.674   4.450  20.700  0.00  0.00    +0.000 Cl
ATOM     33  C   UNL     1       3.037   6.217  18.697  0.00  0.00    +0.000 A 
ATOM     34  C   UNL     1       2.838   7.448  18.072  0.00  0.00    +0.000 A 
ATOM     35  C   UNL     1       2.046   8.430  18.681  0.00  0.00    +0.000 A 
ATOM     36 CL   UNL     1       1.815   9.902  17.804  0.00  0.00    +0.000 Cl
ENDBRANCH  28  29
ENDBRANCH   1  28
TORSDOF 4
ENDMDL
MODEL 4
REMARK VINA RESULT:      -7.2      1.564      1.804
REMARK  Name = 
REMARK  5 active torsions:
REMARK  status: ('A' for Active; 'I' for Inactive)
REMARK    1  A    between atoms: C_1  and  C_2
REMARK    2  A    between atoms: C_2  and  N_3
REMARK    3  A    between atoms: C_2  and  C_25
REMARK    4  A    between atoms: N_7  and  C_8
REMARK    5  A    between atoms: C_14  and  C_15
REMARK                            x       y       z     vdW  Elec       q    Type
REMARK                         _______ _______ _______ _____ _____    ______ ____
ROOT
ATOM      1  N   UNL     1      -1.081  13.184  21.093  0.00  0.00    +0.000 N 
ATOM      2  C   UNL     1      -1.206  12.259  20.097  0.00  0.00    +0.000 A 
ATOM      3  N   UNL     1      -0.199  11.318  20.008  0.00  0.00    +0.000 NA
ATOM      4  C   UNL     1      -0.194  10.479  19.007  0.00  0.00    +0.000 A 
ATOM      5  N   UNL     1       0.785   9.546  18.721  0.00  0.00    +0.000 N 
ATOM      6  N   UNL     1      -1.289  10.502  18.132  0.00  0.00    +0.000 N 
ATOM      7  N   UNL     1      -1.469   9.620  17.117  0.00  0.00    +0.000 NA
ATOM      8  C   UNL     1      -2.683   9.960  16.657  0.00  0.00    +0.000 A 
ATOM      9  C   UNL     1      -3.263  11.037  17.372  0.00  0.00    +0.000 A 
ATOM     10  C   UNL     1      -2.315  11.376  18.313  0.00  0.00    +0.000 A 
ATOM     11  N   UNL     1      -2.236  12.307  19.295  0.00  0.00    +0.000 NA
ATOM     12  H   UNL     1      -0.992  12.740  21.999  0.00  0.00    +0.000 HD
ATOM     13  H   UNL     1       0.533   8.922  17.952  0.00  0.00    +0.000 HD
ENDROOT
BRANCH   9  14
ATOM     14  C   UNL     1      -4.539  11.649  17.168  0.00  0.00    +0.000 C 
ATOM     15  C   UNL     1      -5.605  11.567  17.975  0.00  0.00    +0.000 C 
ATOM     16  N   UNL     1      -5.723  10.874  19.146  0.00  0.00    +0.000 N 
ATOM     17  C   UNL     1      -6.974  11.066  19.696  0.00  0.00    +0.000 C 
ATOM     18  O   UNL     1      -7.369  10.616  20.755  0.00  0.00    +0.000 OA
ATOM     19  N   UNL     1      -7.679  11.870  18.837  0.00  0.00    +0.000 N 
ATOM     20  C   UNL     1      -6.920  12.243  17.762  0.00  0.00    +0.000 C 
ATOM     21  O   UNL     1      -7.226  12.976  16.843  0.00  0.00    +0.000 OA
ATOM     22  H   UNL     1      -4.965  10.385  19.607  0.00  0.00    +0.000 HD
ATOM     23  H   UNL     1      -8.615  12.188  19.016  0.00  0.00    +0.000 HD
ENDBRANCH   9  14
BRANCH   5  24
ATOM     24  C   UNL     1       1.654   9.043  19.774  0.00  0.00    +0.000 C 
ATOM     25  C   UNL     1       1.116   8.147  20.854  0.00  0.00    +0.000 C 
ATOM     26  C   UNL     1       2.024   7.584  19.800  0.00  0.00    +0.000 C 
ENDBRANCH   5  24
BRANCH   1  28
ATOM     27  C   UNL     1      -0.912  15.526  21.802  0.00  0.00    +0.000 C 
ATOM     28  C   UNL     1      -1.781  14.468  21.101  0.00  0.00    +0.000 C 
BRANCH  28  29
ATOM     29  C   UNL     1      -3.096  14.372  21.871  0.00  0.00    +0.000 A 
ATOM     30  C   UNL     1      -3.249  13.430  22.911  0.00  0.00    +0.000 A 
ATOM     31  C   UNL     1      -4.398  13.410  23.700  0.00  0.00    +0.000 A 
ATOM     32 CL   UNL     1      -4.539  12.256  24.967  0.00  0.00    +0.000 Cl
ATOM     33  C   UNL     1      -5.417  14.331  23.485  0.00  0.00    +0.000 A 
ATOM     34  C   UNL     1      -5.289  15.273  22.465  0.00  0.00    +0.000 A 
ATOM     35  C   UNL     1      -4.142  15.296  21.663  0.00  0.00    +0.000 A 
ATOM     36 CL   UNL     1      -4.053  16.535  20.461  0.00  0.00    +0.000 Cl
ENDBRANCH  28  29
ENDBRANCH   1  28
TORSDOF 4
ENDMDL
MODEL 5
REMARK VINA RESULT:      -7.2      5.132      9.237
REMARK  Name = 
REMARK  5 active torsions:
REMARK  status: ('A' for Active; 'I' for Inactive)
REMARK    1  A    between atoms: C_1  and  C_2
REMARK    2  A    between atoms: C_2  and  N_3
REMARK    3  A    between atoms: C_2  and  C_25
REMARK    4  A    between atoms: N_7  and  C_8
REMARK    5  A    between atoms: C_14  and  C_15
REMARK                            x       y       z     vdW  Elec       q    Type
REMARK                         _______ _______ _______ _____ _____    ______ ____
ROOT
ATOM      1  N   UNL     1       0.920   8.672  18.437  0.00  0.00    +0.000 N 
ATOM      2  C   UNL     1       0.500   9.969  18.520  0.00  0.00    +0.000 A 
ATOM      3  N   UNL     1      -0.674  10.275  17.860  0.00  0.00    +0.000 NA
ATOM      4  C   UNL     1      -1.067  11.519  17.799  0.00  0.00    +0.000 A 
ATOM      5  N   UNL     1      -2.159  12.002  17.101  0.00  0.00    +0.000 N 
ATOM      6  N   UNL     1      -0.332  12.471  18.516  0.00  0.00    +0.000 N 
ATOM      7  N   UNL     1      -0.685  13.776  18.632  0.00  0.00    +0.000 NA
ATOM      8  C   UNL     1       0.233  14.246  19.490  0.00  0.00    +0.000 A 
ATOM      9  C   UNL     1       1.151  13.253  19.915  0.00  0.00    +0.000 A 
ATOM     10  C   UNL     1       0.762  12.115  19.242  0.00  0.00    +0.000 A 
ATOM     11  N   UNL     1       1.208  10.836  19.194  0.00  0.00    +0.000 NA
ATOM     12  H   UNL     1       0.206   8.033  18.763  0.00  0.00    +0.000 HD
ATOM     13  H   UNL     1      -2.344  12.991  17.280  0.00  0.00    +0.000 HD
ENDROOT
BRANCH   9  14
ATOM     14  C   UNL     1       2.243  13.390  20.826  0.00  0.00    +0.000 C 
ATOM     15  C   UNL     1       3.378  14.071  20.621  0.00  0.00    +0.000 C 
ATOM     16  N   UNL     1       3.754  14.762  19.505  0.00  0.00    +0.000 N 
ATOM     17  C   UNL     1       4.986  15.354  19.696  0.00  0.00    +0.000 C 
ATOM     18  O   UNL     1       5.570  16.069  18.904  0.00  0.00    +0.000 OA
ATOM     19  N   UNL     1       5.418  15.002  20.950  0.00  0.00    +0.000 N 
ATOM     20  C   UNL     1       4.494  14.231  21.601  0.00  0.00    +0.000 C 
ATOM     21  O   UNL     1       4.547  13.786  22.730  0.00  0.00    +0.000 OA
ATOM     22  H   UNL     1       3.165  14.918  18.695  0.00  0.00    +0.000 HD
ATOM     23  H   UNL     1       6.279  15.326  21.352  0.00  0.00    +0.000 HD
ENDBRANCH   9  14
BRANCH   5  24
ATOM     24  C   UNL     1      -3.278  11.127  16.784  0.00  0.00    +0.000 C 
ATOM     25  C   UNL     1      -4.239  10.689  17.852  0.00  0.00    +0.000 C 
ATOM     26  C   UNL     1      -4.680  11.674  16.809  0.00  0.00    +0.000 C 
ENDBRANCH   5  24
BRANCH   1  28
ATOM     27  C   UNL     1       3.121   8.362  17.400  0.00  0.00    +0.000 C 
ATOM     28  C   UNL     1       2.295   8.246  18.692  0.00  0.00    +0.000 C 
BRANCH  28  29
ATOM     29  C   UNL     1       2.342   6.785  19.136  0.00  0.00    +0.000 A 
ATOM     30  C   UNL     1       2.988   5.816  18.339  0.00  0.00    +0.000 A 
ATOM     31  C   UNL     1       3.144   4.504  18.786  0.00  0.00    +0.000 A 
ATOM     32 CL   UNL     1       3.950   3.357  17.791  0.00  0.00    +0.000 Cl
ATOM     33  C   UNL     1       2.673   4.126  20.038  0.00  0.00    +0.000 A 
ATOM     34  C   UNL     1       2.033   5.065  20.846  0.00  0.00    +0.000 A 
ATOM     35  C   UNL     1       1.866   6.383  20.402  0.00  0.00    +0.000 A 
ATOM     36 CL   UNL     1       1.108   7.486  21.496  0.00  0.00    +0.000 Cl
ENDBRANCH  28  29
ENDBRANCH   1  28
TORSDOF 4
ENDMDL
MODEL 6
REMARK VINA RESULT:      -7.1      3.043      5.248
REMARK  Name = 
REMARK  5 active torsions:
REMARK  status: ('A' for Active; 'I' for Inactive)
REMARK    1  A    between atoms: C_1  and  C_2
REMARK    2  A    between atoms: C_2  and  N_3
REMARK    3  A    between atoms: C_2  and  C_25
REMARK    4  A    between atoms: N_7  and  C_8
REMARK    5  A    between atoms: C_14  and  C_15
REMARK                            x       y       z     vdW  Elec       q    Type
REMARK                         _______ _______ _______ _____ _____    ______ ____
ROOT
ATOM      1  N   UNL     1      -0.364  10.373  17.688  0.00  0.00    +0.000 N 
ATOM      2  C   UNL     1      -1.668  10.767  17.607  0.00  0.00    +0.000 A 
ATOM      3  N   UNL     1      -2.336  10.438  16.443  0.00  0.00    +0.000 NA
ATOM      4  C   UNL     1      -3.546  10.887  16.251  0.00  0.00    +0.000 A 
ATOM      5  N   UNL     1      -4.310  10.730  15.109  0.00  0.00    +0.000 N 
ATOM      6  N   UNL     1      -4.156  11.588  17.300  0.00  0.00    +0.000 N 
ATOM      7  N   UNL     1      -5.443  12.016  17.282  0.00  0.00    +0.000 NA
ATOM      8  C   UNL     1      -5.598  12.508  18.520  0.00  0.00    +0.000 A 
ATOM      9  C   UNL     1      -4.428  12.390  19.312  0.00  0.00    +0.000 A 
ATOM     10  C   UNL     1      -3.504  11.802  18.474  0.00  0.00    +0.000 A 
ATOM     11  N   UNL     1      -2.210  11.421  18.601  0.00  0.00    +0.000 NA
ATOM     12  H   UNL     1      -0.272   9.374  17.551  0.00  0.00    +0.000 HD
ATOM     13  H   UNL     1      -5.268  11.070  15.216  0.00  0.00    +0.000 HD
ENDROOT
BRANCH   9  14
ATOM     14  C   UNL     1      -4.234  12.792  20.669  0.00  0.00    +0.000 C 
ATOM     15  C   UNL     1      -5.077  12.596  21.692  0.00  0.00    +0.000 C 
ATOM     16  N   UNL     1      -6.303  11.996  21.668  0.00  0.00    +0.000 N 
ATOM     17  C   UNL     1      -6.848  11.961  22.935  0.00  0.00    +0.000 C 
ATOM     18  O   UNL     1      -7.910  11.456  23.247  0.00  0.00    +0.000 OA
ATOM     19  N   UNL     1      -5.963  12.586  23.777  0.00  0.00    +0.000 N 
ATOM     20  C   UNL     1      -4.840  12.993  23.112  0.00  0.00    +0.000 C 
ATOM     21  O   UNL     1      -3.854  13.540  23.565  0.00  0.00    +0.000 OA
ATOM     22  H   UNL     1      -6.706  11.536  20.860  0.00  0.00    +0.000 HD
ATOM     23  H   UNL     1      -6.106  12.672  24.768  0.00  0.00    +0.000 HD
ENDBRANCH   9  14
BRANCH   5  24
ATOM     24  C   UNL     1      -4.057   9.622  14.200  0.00  0.00    +0.000 C 
ATOM     25  C   UNL     1      -4.404   9.728  12.742  0.00  0.00    +0.000 C 
ATOM     26  C   UNL     1      -2.965   9.738  13.170  0.00  0.00    +0.000 C 
ENDBRANCH   5  24
BRANCH   1  28
ATOM     27  C   UNL     1       2.033  10.691  18.102  0.00  0.00    +0.000 C 
ATOM     28  C   UNL     1       0.606  10.962  18.609  0.00  0.00    +0.000 C 
BRANCH  28  29
ATOM     29  C   UNL     1       0.489  10.341  20.000  0.00  0.00    +0.000 A 
ATOM     30  C   UNL     1      -0.281  10.970  21.002  0.00  0.00    +0.000 A 
ATOM     31  C   UNL     1      -0.494  10.358  22.236  0.00  0.00    +0.000 A 
ATOM     32 CL   UNL     1      -1.451  11.150  23.424  0.00  0.00    +0.000 Cl
ATOM     33  C   UNL     1       0.041   9.103  22.501  0.00  0.00    +0.000 A 
ATOM     34  C   UNL     1       0.804   8.459  21.528  0.00  0.00    +0.000 A 
ATOM     35  C   UNL     1       1.030   9.071  20.288  0.00  0.00    +0.000 A 
ATOM     36 CL   UNL     1       1.943   8.171  19.128  0.00  0.00    +0.000 Cl
ENDBRANCH  28  29
ENDBRANCH   1  28
TORSDOF 4
ENDMDL
MODEL 7
REMARK VINA RESULT:      -7.0      2.974      6.630
REMARK  Name = 
REMARK  5 active torsions:
REMARK  status: ('A' for Active; 'I' for Inactive)
REMARK    1  A    between atoms: C_1  and  C_2
REMARK    2  A    between atoms: C_2  and  N_3
REMARK    3  A    between atoms: C_2  and  C_25
REMARK    4  A    between atoms: N_7  and  C_8
REMARK    5  A    between atoms: C_14  and  C_15
REMARK                            x       y       z     vdW  Elec       q    Type
REMARK                         _______ _______ _______ _____ _____    ______ ____
ROOT
ATOM      1  N   UNL     1      -0.189  11.671  21.735  0.00  0.00    +0.000 N 
ATOM      2  C   UNL     1      -1.133  12.604  22.051  0.00  0.00    +0.000 A 
ATOM      3  N   UNL     1      -0.675  13.754  22.665  0.00  0.00    +0.000 NA
ATOM      4  C   UNL     1      -1.537  14.633  23.101  0.00  0.00    +0.000 A 
ATOM      5  N   UNL     1      -1.249  15.781  23.817  0.00  0.00    +0.000 N 
ATOM      6  N   UNL     1      -2.891  14.417  22.813  0.00  0.00    +0.000 N 
ATOM      7  N   UNL     1      -3.881  15.297  23.107  0.00  0.00    +0.000 NA
ATOM      8  C   UNL     1      -4.953  14.720  22.543  0.00  0.00    +0.000 A 
ATOM      9  C   UNL     1      -4.645  13.496  21.898  0.00  0.00    +0.000 A 
ATOM     10  C   UNL     1      -3.295  13.323  22.113  0.00  0.00    +0.000 A 
ATOM     11  N   UNL     1      -2.389  12.374  21.772  0.00  0.00    +0.000 NA
ATOM     12  H   UNL     1       0.538  12.065  21.150  0.00  0.00    +0.000 HD
ATOM     13  H   UNL     1      -2.065  16.378  23.962  0.00  0.00    +0.000 HD
ENDROOT
BRANCH   9  14
ATOM     14  C   UNL     1      -5.528  12.624  21.188  0.00  0.00    +0.000 C 
ATOM     15  C   UNL     1      -5.349  12.132  19.955  0.00  0.00    +0.000 C 
ATOM     16  N   UNL     1      -4.310  12.365  19.099  0.00  0.00    +0.000 N 
ATOM     17  C   UNL     1      -4.478  11.650  17.931  0.00  0.00    +0.000 C 
ATOM     18  O   UNL     1      -3.704  11.614  16.994  0.00  0.00    +0.000 OA
ATOM     19  N   UNL     1      -5.669  10.976  18.033  0.00  0.00    +0.000 N 
ATOM     20  C   UNL     1      -6.267  11.194  19.243  0.00  0.00    +0.000 C 
ATOM     21  O   UNL     1      -7.304  10.721  19.666  0.00  0.00    +0.000 OA
ATOM     22  H   UNL     1      -3.477  12.892  19.332  0.00  0.00    +0.000 HD
ATOM     23  H   UNL     1      -6.016  10.354  17.325  0.00  0.00    +0.000 HD
ENDBRANCH   9  14
BRANCH   5  24
ATOM     24  C   UNL     1       0.064  16.401  23.719  0.00  0.00    +0.000 C 
ATOM     25  C   UNL     1       0.320  17.512  22.742  0.00  0.00    +0.000 C 
ATOM     26  C   UNL     1       0.259  17.810  24.212  0.00  0.00    +0.000 C 
ENDBRANCH   5  24
BRANCH   1  28
ATOM     27  C   UNL     1      -0.204   9.435  22.742  0.00  0.00    +0.000 C 
ATOM     28  C   UNL     1      -0.492  10.264  21.479  0.00  0.00    +0.000 C 
BRANCH  28  29
ATOM     29  C   UNL     1       0.385   9.708  20.358  0.00  0.00    +0.000 A 
ATOM     30  C   UNL     1       1.177   8.560  20.572  0.00  0.00    +0.000 A 
ATOM     31  C   UNL     1       1.889   7.973  19.526  0.00  0.00    +0.000 A 
ATOM     32 CL   UNL     1       2.830   6.565  19.824  0.00  0.00    +0.000 Cl
ATOM     33  C   UNL     1       1.823   8.503  18.243  0.00  0.00    +0.000 A 
ATOM     34  C   UNL     1       1.047   9.637  18.006  0.00  0.00    +0.000 A 
ATOM     35  C   UNL     1       0.334  10.238  19.052  0.00  0.00    +0.000 A 
ATOM     36 CL   UNL     1      -0.642  11.606  18.647  0.00  0.00    +0.000 Cl
ENDBRANCH  28  29
ENDBRANCH   1  28
TORSDOF 4
ENDMDL
MODEL 8
REMARK VINA RESULT:      -7.0      3.205      5.917
REMARK  Name = 
REMARK  5 active torsions:
REMARK  status: ('A' for Active; 'I' for Inactive)
REMARK    1  A    between atoms: C_1  and  C_2
REMARK    2  A    between atoms: C_2  and  N_3
REMARK    3  A    between atoms: C_2  and  C_25
REMARK    4  A    between atoms: N_7  and  C_8
REMARK    5  A    between atoms: C_14  and  C_15
REMARK                            x       y       z     vdW  Elec       q    Type
REMARK                         _______ _______ _______ _____ _____    ______ ____
ROOT
ATOM      1  N   UNL     1      -0.500  10.461  17.766  0.00  0.00    +0.000 N 
ATOM      2  C   UNL     1      -1.810  10.816  17.622  0.00  0.00    +0.000 A 
ATOM      3  N   UNL     1      -2.404  10.489  16.419  0.00  0.00    +0.000 NA
ATOM      4  C   UNL     1      -3.617  10.904  16.170  0.00  0.00    +0.000 A 
ATOM      5  N   UNL     1      -4.313  10.746  14.986  0.00  0.00    +0.000 N 
ATOM      6  N   UNL     1      -4.304  11.564  17.198  0.00  0.00    +0.000 N 
ATOM      7  N   UNL     1      -5.601  11.952  17.119  0.00  0.00    +0.000 NA
ATOM      8  C   UNL     1      -5.837  12.414  18.356  0.00  0.00    +0.000 A 
ATOM      9  C   UNL     1      -4.707  12.316  19.206  0.00  0.00    +0.000 A 
ATOM     10  C   UNL     1      -3.722  11.776  18.409  0.00  0.00    +0.000 A 
ATOM     11  N   UNL     1      -2.425  11.433  18.597  0.00  0.00    +0.000 NA
ATOM     12  H   UNL     1      -0.368   9.469  17.615  0.00  0.00    +0.000 HD
ATOM     13  H   UNL     1      -5.286  11.053  15.048  0.00  0.00    +0.000 HD
ENDROOT
BRANCH   9  14
ATOM     14  C   UNL     1      -4.598  12.697  20.580  0.00  0.00    +0.000 C 
ATOM     15  C   UNL     1      -3.847  13.687  21.080  0.00  0.00    +0.000 C 
ATOM     16  N   UNL     1      -3.012  14.532  20.406  0.00  0.00    +0.000 N 
ATOM     17  C   UNL     1      -2.438  15.437  21.276  0.00  0.00    +0.000 C 
ATOM     18  O   UNL     1      -1.683  16.341  20.975  0.00  0.00    +0.000 OA
ATOM     19  N   UNL     1      -2.892  15.138  22.535  0.00  0.00    +0.000 N 
ATOM     20  C   UNL     1      -3.773  14.092  22.516  0.00  0.00    +0.000 C 
ATOM     21  O   UNL     1      -4.383  13.604  23.447  0.00  0.00    +0.000 OA
ATOM     22  H   UNL     1      -2.916  14.568  19.398  0.00  0.00    +0.000 HD
ATOM     23  H   UNL     1      -2.647  15.666  23.354  0.00  0.00    +0.000 HD
ENDBRANCH   9  14
BRANCH   5  24
ATOM     24  C   UNL     1      -3.978   9.665  14.072  0.00  0.00    +0.000 C 
ATOM     25  C   UNL     1      -4.275   9.777  12.603  0.00  0.00    +0.000 C 
ATOM     26  C   UNL     1      -2.855   9.847  13.085  0.00  0.00    +0.000 C 
ENDBRANCH   5  24
BRANCH   1  28
ATOM     27  C   UNL     1       1.808  11.202  18.143  0.00  0.00    +0.000 C 
ATOM     28  C   UNL     1       0.401  11.063  18.748  0.00  0.00    +0.000 C 
BRANCH  28  29
ATOM     29  C   UNL     1       0.523  10.183  19.991  0.00  0.00    +0.000 A 
ATOM     30  C   UNL     1       1.013   8.864  19.888  0.00  0.00    +0.000 A 
ATOM     31  C   UNL     1       1.242   8.091  21.026  0.00  0.00    +0.000 A 
ATOM     32 CL   UNL     1       1.855   6.493  20.859  0.00  0.00    +0.000 Cl
ATOM     33  C   UNL     1       1.002   8.612  22.292  0.00  0.00    +0.000 A 
ATOM     34  C   UNL     1       0.518   9.913  22.421  0.00  0.00    +0.000 A 
ATOM     35  C   UNL     1       0.278  10.694  21.283  0.00  0.00    +0.000 A 
ATOM     36 CL   UNL     1      -0.269  12.313  21.547  0.00  0.00    +0.000 Cl
ENDBRANCH  28  29
ENDBRANCH   1  28
TORSDOF 4
ENDMDL
MODEL 9
REMARK VINA RESULT:      -7.0      3.108      6.964
REMARK  Name = 
REMARK  5 active torsions:
REMARK  status: ('A' for Active; 'I' for Inactive)
REMARK    1  A    between atoms: C_1  and  C_2
REMARK    2  A    between atoms: C_2  and  N_3
REMARK    3  A    between atoms: C_2  and  C_25
REMARK    4  A    between atoms: N_7  and  C_8
REMARK    5  A    between atoms: C_14  and  C_15
REMARK                            x       y       z     vdW  Elec       q    Type
REMARK                         _______ _______ _______ _____ _____    ______ ____
ROOT
ATOM      1  N   UNL     1      -0.524  12.496  19.218  0.00  0.00    +0.000 N 
ATOM      2  C   UNL     1      -0.471  13.232  20.366  0.00  0.00    +0.000 A 
ATOM      3  N   UNL     1       0.534  14.177  20.441  0.00  0.00    +0.000 NA
ATOM      4  C   UNL     1       0.715  14.831  21.557  0.00  0.00    +0.000 A 
ATOM      5  N   UNL     1       1.728  15.734  21.825  0.00  0.00    +0.000 N 
ATOM      6  N   UNL     1      -0.206  14.623  22.592  0.00  0.00    +0.000 N 
ATOM      7  N   UNL     1      -0.206  15.311  23.760  0.00  0.00    +0.000 NA
ATOM      8  C   UNL     1      -1.317  14.858  24.360  0.00  0.00    +0.000 A 
ATOM      9  C   UNL     1      -2.013  13.901  23.580  0.00  0.00    +0.000 A 
ATOM     10  C   UNL     1      -1.247  13.760  22.443  0.00  0.00    +0.000 A 
ATOM     11  N   UNL     1      -1.342  13.014  21.316  0.00  0.00    +0.000 NA
ATOM     12  H   UNL     1      -0.597  13.091  18.403  0.00  0.00    +0.000 HD
ATOM     13  H   UNL     1       1.615  16.208  22.723  0.00  0.00    +0.000 HD
ENDROOT
BRANCH   9  14
ATOM     14  C   UNL     1      -3.231  13.221  23.893  0.00  0.00    +0.000 C 
ATOM     15  C   UNL     1      -4.460  13.753  23.931  0.00  0.00    +0.000 C 
ATOM     16  N   UNL     1      -4.822  15.050  23.703  0.00  0.00    +0.000 N 
ATOM     17  C   UNL     1      -6.190  15.194  23.808  0.00  0.00    +0.000 C 
ATOM     18  O   UNL     1      -6.821  16.217  23.620  0.00  0.00    +0.000 OA
ATOM     19  N   UNL     1      -6.705  13.968  24.146  0.00  0.00    +0.000 N 
ATOM     20  C   UNL     1      -5.725  13.018  24.227  0.00  0.00    +0.000 C 
ATOM     21  O   UNL     1      -5.845  11.832  24.466  0.00  0.00    +0.000 OA
ATOM     22  H   UNL     1      -4.193  15.779  23.386  0.00  0.00    +0.000 HD
ATOM     23  H   UNL     1      -7.687  13.790  24.256  0.00  0.00    +0.000 HD
ENDBRANCH   9  14
BRANCH   5  24
ATOM     24  C   UNL     1       2.394  16.438  20.740  0.00  0.00    +0.000 C 
ATOM     25  C   UNL     1       3.050  17.770  20.975  0.00  0.00    +0.000 C 
ATOM     26  C   UNL     1       3.895  16.552  20.739  0.00  0.00    +0.000 C 
ENDBRANCH   5  24
BRANCH   1  28
ATOM     27  C   UNL     1      -0.211  10.126  18.669  0.00  0.00    +0.000 C 
ATOM     28  C   UNL     1      -1.210  11.210  19.109  0.00  0.00    +0.000 C 
BRANCH  28  29
ATOM     29  C   UNL     1      -2.317  11.266  18.058  0.00  0.00    +0.000 A 
ATOM     30  C   UNL     1      -2.108  10.730  16.770  0.00  0.00    +0.000 A 
ATOM     31  C   UNL     1      -3.145  10.667  15.840  0.00  0.00    +0.000 A 
ATOM     32 CL   UNL     1      -2.854   9.994  14.285  0.00  0.00    +0.000 Cl
ATOM     33  C   UNL     1      -4.417  11.122  16.171  0.00  0.00    +0.000 A 
ATOM     34  C   UNL     1      -4.650  11.654  17.438  0.00  0.00    +0.000 A 
ATOM     35  C   UNL     1      -3.612  11.728  18.376  0.00  0.00    +0.000 A 
ATOM     36 CL   UNL     1      -4.012  12.354  19.937  0.00  0.00    +0.000 Cl
ENDBRANCH  28  29
ENDBRANCH   1  28
TORSDOF 4
ENDMDL
