MODEL 1
REMARK VINA RESULT:      -7.2      0.000      0.000
REMARK  Name = 
REMARK  10 active torsions:
REMARK  status: ('A' for Active; 'I' for Inactive)
REMARK    1  A    between atoms: C_1  and  C_2
REMARK    2  A    between atoms: C_2  and  C_3
REMARK    3  A    between atoms: C_3  and  N_4
REMARK    4  A    between atoms: C_5  and  C_7
REMARK    5  A    between atoms: N_14  and  C_15
REMARK    6  A    between atoms: N_23  and  C1*_24
REMARK    7  A    between atoms: C4*_26  and  C5*_27
REMARK    8  A    between atoms: C5*_27  and  O5*_28
REMARK    9  A    between atoms: C3*_29  and  O3*_30
REMARK   10  A    between atoms: C2*_31  and  O2*_32
REMARK                            x       y       z     vdW  Elec       q    Type
REMARK                         _______ _______ _______ _____ _____    ______ ____
ROOT
ATOM      1  C   UNL     1       3.275   6.337  19.040  0.00  0.00    +0.000 A 
ATOM      2  C   UNL     1       3.364   6.990  17.804  0.00  0.00    +0.000 A 
ATOM      3  N   UNL     1       2.553   8.051  17.713  0.00  0.00    +0.000 NA
ATOM      4  N   UNL     1       1.952   8.153  18.950  0.00  0.00    +0.000 N 
ATOM      5  C   UNL     1       1.049   9.251  19.287  0.00  0.00    +0.000 A 
ATOM      6  N   UNL     1       0.530   9.843  18.191  0.00  0.00    +0.000 NA
ATOM      7  C   UNL     1      -0.352  10.842  18.356  0.00  0.00    +0.000 A 
ATOM      8  N   UNL     1      -1.607  10.473  17.865  0.00  0.00    +0.000 N 
ATOM      9  C   UNL     1      -0.141  11.593  19.536  0.00  0.00    +0.000 A 
ATOM     10  N   UNL     1       0.484  12.825  19.694  0.00  0.00    +0.000 NA
ATOM     11  C   UNL     1       0.902  12.844  20.943  0.00  0.00    +0.000 A 
ATOM     12  N   UNL     1       0.255  11.836  21.672  0.00  0.00    +0.000 N 
ATOM     13  C   UNL     1       0.153  10.839  20.676  0.00  0.00    +0.000 A 
ATOM     14  N   UNL     1       0.759   9.601  20.608  0.00  0.00    +0.000 NA
ATOM     15  C   UNL     1       2.335   7.096  19.745  0.00  0.00    +0.000 A 
ATOM     16  H   UNL     1      -2.063   9.864  18.537  0.00  0.00    +0.000 HD
ENDROOT
BRANCH   8  17
ATOM     17  C   UNL     1      -2.508  11.522  17.487  0.00  0.00    +0.000 C 
ATOM     18  C   UNL     1      -2.710  11.496  15.982  0.00  0.00    +0.000 C 
ATOM     19  C   UNL     1      -3.855  10.526  15.812  0.00  0.00    +0.000 C 
ATOM     20  C   UNL     1      -4.681  10.801  17.047  0.00  0.00    +0.000 C 
ATOM     21  O   UNL     1      -3.769  11.193  18.084  0.00  0.00    +0.000 OA
ENDBRANCH   8  17
BRANCH  12  22
ATOM     22  C1* UNL     1      -0.790  12.397  22.570  0.00  0.00    +0.000 C 
ATOM     23  O4* UNL     1      -2.100  11.983  22.028  0.00  0.00    +0.000 OA
ATOM     24  C4* UNL     1      -2.919  13.158  21.822  0.00  0.00    +0.000 C 
ATOM     25  C3* UNL     1      -1.930  14.314  21.758  0.00  0.00    +0.000 C 
ATOM     26  C2* UNL     1      -0.906  13.910  22.806  0.00  0.00    +0.000 C 
BRANCH  25  27
ATOM     27  O3* UNL     1      -2.542  15.569  21.992  0.00  0.00    +0.000 OA
ATOM     28  H3* UNL     1      -3.298  15.666  21.380  0.00  0.00    +0.000 HD
ENDBRANCH  25  27
BRANCH  26  29
ATOM     29  O2* UNL     1      -1.440  14.222  24.121  0.00  0.00    +0.000 OA
ATOM     30  H2* UNL     1      -2.358  14.526  24.068  0.00  0.00    +0.000 HD
ENDBRANCH  26  29
BRANCH  24  31
ATOM     31  C5* UNL     1      -3.777  13.048  20.559  0.00  0.00    +0.000 C 
BRANCH  31  32
ATOM     32  O5* UNL     1      -4.235  14.332  20.138  0.00  0.00    +0.000 OA
ATOM     33  H5* UNL     1      -3.486  14.774  19.697  0.00  0.00    +0.000 HD
ENDBRANCH  31  32
ENDBRANCH  24  31
ENDBRANCH  12  22
BRANCH   1  35
ATOM     34  N   UNL     1       3.087   4.053  19.980  0.00  0.00    +0.000 N 
ATOM     35  C   UNL     1       3.880   5.144  19.603  0.00  0.00    +0.000 C 
ATOM     36  O   UNL     1       5.094   5.088  19.727  0.00  0.00    +0.000 OA
ATOM     37  H   UNL     1       2.104   4.017  19.762  0.00  0.00    +0.000 HD
BRANCH  34  38
ATOM     38  C   UNL     1       3.803   2.859  20.422  0.00  0.00    +0.000 C 
BRANCH  38  40
ATOM     39  C   UNL     1       3.256   1.786  18.182  0.00  0.00    +0.000 C 
ATOM     40  C   UNL     1       4.218   1.853  19.355  0.00  0.00    +0.000 C 
ENDBRANCH  38  40
ENDBRANCH  34  38
ENDBRANCH   1  35
TORSDOF 9
ENDMDL
MODEL 2
REMARK VINA RESULT:      -6.8      1.143      1.381
REMARK  Name = 
REMARK  10 active torsions:
REMARK  status: ('A' for Active; 'I' for Inactive)
REMARK    1  A    between atoms: C_1  and  C_2
REMARK    2  A    between atoms: C_2  and  C_3
REMARK    3  A    between atoms: C_3  and  N_4
REMARK    4  A    between atoms: C_5  and  C_7
REMARK    5  A    between atoms: N_14  and  C_15
REMARK    6  A    between atoms: N_23  and  C1*_24
REMARK    7  A    between atoms: C4*_26  and  C5*_27
REMARK    8  A    between atoms: C5*_27  and  O5*_28
REMARK    9  A    between atoms: C3*_29  and  O3*_30
REMARK   10  A    between atoms: C2*_31  and  O2*_32
REMARK                            x       y       z     vdW  Elec       q    Type
REMARK                         _______ _______ _______ _____ _____    ______ ____
ROOT
ATOM      1  C   UNL     1       2.752   6.584  18.976  0.00  0.00    +0.000 A 
ATOM      2  C   UNL     1       2.454   6.964  17.661  0.00  0.00    +0.000 A 
ATOM      3  N   UNL     1       1.689   8.060  17.593  0.00  0.00    +0.000 NA
ATOM      4  N   UNL     1       1.526   8.468  18.901  0.00  0.00    +0.000 N 
ATOM      5  C   UNL     1       0.815   9.696  19.249  0.00  0.00    +0.000 A 
ATOM      6  N   UNL     1      -0.013  10.105  18.267  0.00  0.00    +0.000 NA
ATOM      7  C   UNL     1      -0.764  11.199  18.471  0.00  0.00    +0.000 A 
ATOM      8  N   UNL     1      -2.122  10.866  18.490  0.00  0.00    +0.000 N 
ATOM      9  C   UNL     1      -0.158  12.147  19.329  0.00  0.00    +0.000 A 
ATOM     10  N   UNL     1       0.519  13.317  19.008  0.00  0.00    +0.000 NA
ATOM     11  C   UNL     1       1.322  13.544  20.028  0.00  0.00    +0.000 A 
ATOM     12  N   UNL     1       0.918  12.772  21.127  0.00  0.00    +0.000 N 
ATOM     13  C   UNL     1       0.468  11.611  20.460  0.00  0.00    +0.000 A 
ATOM     14  N   UNL     1       0.981  10.331  20.483  0.00  0.00    +0.000 NA
ATOM     15  C   UNL     1       2.115   7.559  19.751  0.00  0.00    +0.000 A 
ATOM     16  H   UNL     1      -2.351  10.453  19.388  0.00  0.00    +0.000 HD
ENDROOT
BRANCH   8  17
ATOM     17  C   UNL     1      -3.064  11.902  18.189  0.00  0.00    +0.000 C 
ATOM     18  C   UNL     1      -4.093  11.377  17.201  0.00  0.00    +0.000 C 
ATOM     19  C   UNL     1      -5.139  10.762  18.100  0.00  0.00    +0.000 C 
ATOM     20  C   UNL     1      -5.106  11.686  19.294  0.00  0.00    +0.000 C 
ATOM     21  O   UNL     1      -3.760  12.172  19.413  0.00  0.00    +0.000 OA
ENDBRANCH   8  17
BRANCH  12  22
ATOM     22  C1* UNL     1       0.238  13.603  22.157  0.00  0.00    +0.000 C 
ATOM     23  O4* UNL     1      -0.536  12.686  23.018  0.00  0.00    +0.000 OA
ATOM     24  C4* UNL     1      -1.916  13.120  23.049  0.00  0.00    +0.000 C 
ATOM     25  C3* UNL     1      -2.077  13.990  21.810  0.00  0.00    +0.000 C 
ATOM     26  C2* UNL     1      -0.743  14.716  21.759  0.00  0.00    +0.000 C 
BRANCH  25  27
ATOM     27  O3* UNL     1      -3.204  14.844  21.887  0.00  0.00    +0.000 OA
ATOM     28  H3* UNL     1      -3.669  14.826  21.028  0.00  0.00    +0.000 HD
ENDBRANCH  25  27
BRANCH  26  29
ATOM     29  O2* UNL     1      -0.767  15.800  22.727  0.00  0.00    +0.000 OA
ATOM     30  H2* UNL     1      -1.662  15.959  23.059  0.00  0.00    +0.000 HD
ENDBRANCH  26  29
BRANCH  24  31
ATOM     31  C5* UNL     1      -2.890  11.939  23.069  0.00  0.00    +0.000 C 
BRANCH  31  32
ATOM     32  O5* UNL     1      -4.201  12.351  22.687  0.00  0.00    +0.000 OA
ATOM     33  H5* UNL     1      -4.109  13.190  22.199  0.00  0.00    +0.000 HD
ENDBRANCH  31  32
ENDBRANCH  24  31
ENDBRANCH  12  22
BRANCH   1  35
ATOM     34  N   UNL     1       2.823   4.261  19.832  0.00  0.00    +0.000 N 
ATOM     35  C   UNL     1       3.473   5.474  19.573  0.00  0.00    +0.000 C 
ATOM     36  O   UNL     1       4.660   5.598  19.829  0.00  0.00    +0.000 OA
ATOM     37  H   UNL     1       1.885   4.086  19.504  0.00  0.00    +0.000 HD
BRANCH  34  38
ATOM     38  C   UNL     1       3.664   3.171  20.320  0.00  0.00    +0.000 C 
BRANCH  38  40
ATOM     39  C   UNL     1       3.275   2.169  18.016  0.00  0.00    +0.000 C 
ATOM     40  C   UNL     1       3.869   1.974  19.400  0.00  0.00    +0.000 C 
ENDBRANCH  38  40
ENDBRANCH  34  38
ENDBRANCH   1  35
TORSDOF 9
ENDMDL
MODEL 3
REMARK VINA RESULT:      -6.8      1.869      2.327
REMARK  Name = 
REMARK  10 active torsions:
REMARK  status: ('A' for Active; 'I' for Inactive)
REMARK    1  A    between atoms: C_1  and  C_2
REMARK    2  A    between atoms: C_2  and  C_3
REMARK    3  A    between atoms: C_3  and  N_4
REMARK    4  A    between atoms: C_5  and  C_7
REMARK    5  A    between atoms: N_14  and  C_15
REMARK    6  A    between atoms: N_23  and  C1*_24
REMARK    7  A    between atoms: C4*_26  and  C5*_27
REMARK    8  A    between atoms: C5*_27  and  O5*_28
REMARK    9  A    between atoms: C3*_29  and  O3*_30
REMARK   10  A    between atoms: C2*_31  and  O2*_32
REMARK                            x       y       z     vdW  Elec       q    Type
REMARK                         _______ _______ _______ _____ _____    ______ ____
ROOT
ATOM      1  C   UNL     1       2.498   7.502  18.711  0.00  0.00    +0.000 A 
ATOM      2  C   UNL     1       2.074   7.952  17.454  0.00  0.00    +0.000 A 
ATOM      3  N   UNL     1       1.214   8.975  17.528  0.00  0.00    +0.000 NA
ATOM      4  N   UNL     1       1.112   9.265  18.872  0.00  0.00    +0.000 N 
ATOM      5  C   UNL     1       0.324  10.392  19.367  0.00  0.00    +0.000 A 
ATOM      6  N   UNL     1      -0.605  10.797  18.478  0.00  0.00    +0.000 NA
ATOM      7  C   UNL     1      -1.431  11.799  18.820  0.00  0.00    +0.000 A 
ATOM      8  N   UNL     1      -2.750  11.342  18.900  0.00  0.00    +0.000 N 
ATOM      9  C   UNL     1      -0.849  12.730  19.712  0.00  0.00    +0.000 A 
ATOM     10  N   UNL     1      -0.300  13.979  19.445  0.00  0.00    +0.000 NA
ATOM     11  C   UNL     1       0.552  14.200  20.426  0.00  0.00    +0.000 A 
ATOM     12  N   UNL     1       0.297  13.313  21.481  0.00  0.00    +0.000 N 
ATOM     13  C   UNL     1      -0.098  12.170  20.751  0.00  0.00    +0.000 A 
ATOM     14  N   UNL     1       0.524  10.944  20.635  0.00  0.00    +0.000 NA
ATOM     15  C   UNL     1       1.837   8.352  19.604  0.00  0.00    +0.000 A 
ATOM     16  H   UNL     1      -2.877  10.842  19.774  0.00  0.00    +0.000 HD
ENDROOT
BRANCH   8  17
ATOM     17  C   UNL     1      -3.798  12.308  18.748  0.00  0.00    +0.000 C 
ATOM     18  C   UNL     1      -4.776  11.827  17.689  0.00  0.00    +0.000 C 
ATOM     19  C   UNL     1      -5.744  10.983  18.484  0.00  0.00    +0.000 C 
ATOM     20  C   UNL     1      -5.795  11.723  19.800  0.00  0.00    +0.000 C 
ATOM     21  O   UNL     1      -4.505  12.323  19.994  0.00  0.00    +0.000 OA
ENDBRANCH   8  17
BRANCH  12  22
ATOM     22  C1* UNL     1      -0.375  13.997  22.618  0.00  0.00    +0.000 C 
ATOM     23  O4* UNL     1      -1.100  12.963  23.385  0.00  0.00    +0.000 OA
ATOM     24  C4* UNL     1      -2.490  13.348  23.501  0.00  0.00    +0.000 C 
ATOM     25  C3* UNL     1      -2.709  14.352  22.378  0.00  0.00    +0.000 C 
ATOM     26  C2* UNL     1      -1.397  15.118  22.379  0.00  0.00    +0.000 C 
BRANCH  25  27
ATOM     27  O3* UNL     1      -3.856  15.156  22.582  0.00  0.00    +0.000 OA
ATOM     28  H3* UNL     1      -4.371  14.784  23.325  0.00  0.00    +0.000 HD
ENDBRANCH  25  27
BRANCH  26  29
ATOM     29  O2* UNL     1      -1.423  16.080  23.468  0.00  0.00    +0.000 OA
ATOM     30  H2* UNL     1      -2.314  16.429  23.612  0.00  0.00    +0.000 HD
ENDBRANCH  26  29
BRANCH  24  31
ATOM     31  C5* UNL     1      -3.431  12.144  23.406  0.00  0.00    +0.000 C 
BRANCH  31  32
ATOM     32  O5* UNL     1      -4.776  12.563  23.186  0.00  0.00    +0.000 OA
ATOM     33  H5* UNL     1      -5.264  11.794  22.837  0.00  0.00    +0.000 HD
ENDBRANCH  31  32
ENDBRANCH  24  31
ENDBRANCH  12  22
BRANCH   1  35
ATOM     34  N   UNL     1       4.520   6.093  18.466  0.00  0.00    +0.000 N 
ATOM     35  C   UNL     1       3.353   6.421  19.166  0.00  0.00    +0.000 C 
ATOM     36  O   UNL     1       3.058   5.809  20.181  0.00  0.00    +0.000 OA
ATOM     37  H   UNL     1       4.859   6.668  17.709  0.00  0.00    +0.000 HD
BRANCH  34  38
ATOM     38  C   UNL     1       5.372   5.073  19.073  0.00  0.00    +0.000 C 
BRANCH  38  40
ATOM     39  C   UNL     1       7.778   5.893  19.044  0.00  0.00    +0.000 C 
ATOM     40  C   UNL     1       6.773   4.894  18.500  0.00  0.00    +0.000 C 
ENDBRANCH  38  40
ENDBRANCH  34  38
ENDBRANCH   1  35
TORSDOF 9
ENDMDL
MODEL 4
REMARK VINA RESULT:      -6.7      1.755      2.104
REMARK  Name = 
REMARK  10 active torsions:
REMARK  status: ('A' for Active; 'I' for Inactive)
REMARK    1  A    between atoms: C_1  and  C_2
REMARK    2  A    between atoms: C_2  and  C_3
REMARK    3  A    between atoms: C_3  and  N_4
REMARK    4  A    between atoms: C_5  and  C_7
REMARK    5  A    between atoms: N_14  and  C_15
REMARK    6  A    between atoms: N_23  and  C1*_24
REMARK    7  A    between atoms: C4*_26  and  C5*_27
REMARK    8  A    between atoms: C5*_27  and  O5*_28
REMARK    9  A    between atoms: C3*_29  and  O3*_30
REMARK   10  A    between atoms: C2*_31  and  O2*_32
REMARK                            x       y       z     vdW  Elec       q    Type
REMARK                         _______ _______ _______ _____ _____    ______ ____
ROOT
ATOM      1  C   UNL     1       2.629   7.532  18.668  0.00  0.00    +0.000 A 
ATOM      2  C   UNL     1       2.394   8.173  17.445  0.00  0.00    +0.000 A 
ATOM      3  N   UNL     1       1.489   9.155  17.535  0.00  0.00    +0.000 NA
ATOM      4  N   UNL     1       1.158   9.220  18.872  0.00  0.00    +0.000 N 
ATOM      5  C   UNL     1       0.251  10.236  19.400  0.00  0.00    +0.000 A 
ATOM      6  N   UNL     1      -0.540  10.764  18.443  0.00  0.00    +0.000 NA
ATOM      7  C   UNL     1      -1.454  11.681  18.797  0.00  0.00    +0.000 A 
ATOM      8  N   UNL     1      -2.747  11.194  18.583  0.00  0.00    +0.000 N 
ATOM      9  C   UNL     1      -1.067  12.465  19.910  0.00  0.00    +0.000 A 
ATOM     10  N   UNL     1      -0.538  13.750  19.938  0.00  0.00    +0.000 NA
ATOM     11  C   UNL     1       0.133  13.824  21.070  0.00  0.00    +0.000 A 
ATOM     12  N   UNL     1      -0.250  12.771  21.914  0.00  0.00    +0.000 N 
ATOM     13  C   UNL     1      -0.470  11.756  20.958  0.00  0.00    +0.000 A 
ATOM     14  N   UNL     1       0.218  10.577  20.754  0.00  0.00    +0.000 NA
ATOM     15  C   UNL     1       1.795   8.213  19.561  0.00  0.00    +0.000 A 
ATOM     16  H   UNL     1      -2.992  10.556  19.333  0.00  0.00    +0.000 HD
ENDROOT
BRANCH   8  17
ATOM     17  C   UNL     1      -3.799  12.152  18.412  0.00  0.00    +0.000 C 
ATOM     18  C   UNL     1      -4.750  11.670  17.329  0.00  0.00    +0.000 C 
ATOM     19  C   UNL     1      -5.728  10.814  18.097  0.00  0.00    +0.000 C 
ATOM     20  C   UNL     1      -5.814  11.546  19.416  0.00  0.00    +0.000 C 
ATOM     21  O   UNL     1      -4.534  12.155  19.642  0.00  0.00    +0.000 OA
ENDBRANCH   8  17
BRANCH  12  22
ATOM     22  C1* UNL     1      -1.127  13.248  23.017  0.00  0.00    +0.000 C 
ATOM     23  O4* UNL     1      -2.524  13.059  22.578  0.00  0.00    +0.000 OA
ATOM     24  C4* UNL     1      -3.227  14.319  22.680  0.00  0.00    +0.000 C 
ATOM     25  C3* UNL     1      -2.129  15.375  22.695  0.00  0.00    +0.000 C 
ATOM     26  C2* UNL     1      -1.051  14.696  23.523  0.00  0.00    +0.000 C 
BRANCH  25  27
ATOM     27  O3* UNL     1      -2.573  16.615  23.215  0.00  0.00    +0.000 OA
ATOM     28  H3* UNL     1      -2.175  17.335  22.688  0.00  0.00    +0.000 HD
ENDBRANCH  25  27
BRANCH  26  29
ATOM     29  O2* UNL     1      -1.406  14.807  24.928  0.00  0.00    +0.000 OA
ATOM     30  H2* UNL     1      -0.727  15.283  25.429  0.00  0.00    +0.000 HD
ENDBRANCH  26  29
BRANCH  24  31
ATOM     31  C5* UNL     1      -4.220  14.520  21.533  0.00  0.00    +0.000 C 
BRANCH  31  32
ATOM     32  O5* UNL     1      -3.573  15.071  20.387  0.00  0.00    +0.000 OA
ATOM     33  H5* UNL     1      -2.659  15.287  20.648  0.00  0.00    +0.000 HD
ENDBRANCH  31  32
ENDBRANCH  24  31
ENDBRANCH  12  22
BRANCH   1  35
ATOM     34  N   UNL     1       4.604   6.067  18.371  0.00  0.00    +0.000 N 
ATOM     35  C   UNL     1       3.447   6.406  19.082  0.00  0.00    +0.000 C 
ATOM     36  O   UNL     1       3.130   5.767  20.073  0.00  0.00    +0.000 OA
ATOM     37  H   UNL     1       4.963   6.658  17.637  0.00  0.00    +0.000 HD
BRANCH  34  38
ATOM     38  C   UNL     1       5.420   4.996  18.940  0.00  0.00    +0.000 C 
BRANCH  38  40
ATOM     39  C   UNL     1       7.589   6.224  18.437  0.00  0.00    +0.000 C 
ATOM     40  C   UNL     1       6.820   5.359  19.420  0.00  0.00    +0.000 C 
ENDBRANCH  38  40
ENDBRANCH  34  38
ENDBRANCH   1  35
TORSDOF 9
ENDMDL
MODEL 5
REMARK VINA RESULT:      -6.6      1.378      1.591
REMARK  Name = 
REMARK  10 active torsions:
REMARK  status: ('A' for Active; 'I' for Inactive)
REMARK    1  A    between atoms: C_1  and  C_2
REMARK    2  A    between atoms: C_2  and  C_3
REMARK    3  A    between atoms: C_3  and  N_4
REMARK    4  A    between atoms: C_5  and  C_7
REMARK    5  A    between atoms: N_14  and  C_15
REMARK    6  A    between atoms: N_23  and  C1*_24
REMARK    7  A    between atoms: C4*_26  and  C5*_27
REMARK    8  A    between atoms: C5*_27  and  O5*_28
REMARK    9  A    between atoms: C3*_29  and  O3*_30
REMARK   10  A    between atoms: C2*_31  and  O2*_32
REMARK                            x       y       z     vdW  Elec       q    Type
REMARK                         _______ _______ _______ _____ _____    ______ ____
ROOT
ATOM      1  C   UNL     1       2.579   7.234  18.811  0.00  0.00    +0.000 A 
ATOM      2  C   UNL     1       2.395   7.850  17.566  0.00  0.00    +0.000 A 
ATOM      3  N   UNL     1       1.535   8.875  17.611  0.00  0.00    +0.000 NA
ATOM      4  N   UNL     1       1.185   8.994  18.940  0.00  0.00    +0.000 N 
ATOM      5  C   UNL     1       0.317  10.066  19.422  0.00  0.00    +0.000 A 
ATOM      6  N   UNL     1      -0.432  10.602  18.437  0.00  0.00    +0.000 NA
ATOM      7  C   UNL     1      -1.307  11.570  18.748  0.00  0.00    +0.000 A 
ATOM      8  N   UNL     1      -2.618  11.138  18.524  0.00  0.00    +0.000 N 
ATOM      9  C   UNL     1      -0.902  12.368  19.845  0.00  0.00    +0.000 A 
ATOM     10  N   UNL     1      -0.314  13.627  19.846  0.00  0.00    +0.000 NA
ATOM     11  C   UNL     1       0.340  13.703  20.987  0.00  0.00    +0.000 A 
ATOM     12  N   UNL     1      -0.106  12.694  21.854  0.00  0.00    +0.000 N 
ATOM     13  C   UNL     1      -0.357  11.663  20.923  0.00  0.00    +0.000 A 
ATOM     14  N   UNL     1       0.278  10.448  20.766  0.00  0.00    +0.000 NA
ATOM     15  C   UNL     1       1.763   7.979  19.669  0.00  0.00    +0.000 A 
ATOM     16  H   UNL     1      -2.905  10.534  19.288  0.00  0.00    +0.000 HD
ENDROOT
BRANCH   8  17
ATOM     17  C   UNL     1      -3.620  12.138  18.307  0.00  0.00    +0.000 C 
ATOM     18  C   UNL     1      -4.610  11.644  17.265  0.00  0.00    +0.000 C 
ATOM     19  C   UNL     1      -5.621  10.888  18.093  0.00  0.00    +0.000 C 
ATOM     20  C   UNL     1      -5.651  11.700  19.366  0.00  0.00    +0.000 C 
ATOM     21  O   UNL     1      -4.338  12.253  19.543  0.00  0.00    +0.000 OA
ENDBRANCH   8  17
BRANCH  12  22
ATOM     22  C1* UNL     1      -0.978  13.243  22.927  0.00  0.00    +0.000 C 
ATOM     23  O4* UNL     1      -2.367  13.201  22.426  0.00  0.00    +0.000 OA
ATOM     24  C4* UNL     1      -2.943  14.525  22.520  0.00  0.00    +0.000 C 
ATOM     25  C3* UNL     1      -1.748  15.464  22.598  0.00  0.00    +0.000 C 
ATOM     26  C2* UNL     1      -0.780  14.670  23.459  0.00  0.00    +0.000 C 
BRANCH  25  27
ATOM     27  O3* UNL     1      -2.087  16.736  23.120  0.00  0.00    +0.000 OA
ATOM     28  H3* UNL     1      -1.624  17.421  22.600  0.00  0.00    +0.000 HD
ENDBRANCH  25  27
BRANCH  26  29
ATOM     29  O2* UNL     1      -1.182  14.799  24.850  0.00  0.00    +0.000 OA
ATOM     30  H2* UNL     1      -1.955  15.375  24.943  0.00  0.00    +0.000 HD
ENDBRANCH  26  29
BRANCH  24  31
ATOM     31  C5* UNL     1      -3.861  14.838  21.335  0.00  0.00    +0.000 C 
BRANCH  31  32
ATOM     32  O5* UNL     1      -3.103  15.077  20.150  0.00  0.00    +0.000 OA
ATOM     33  H5* UNL     1      -3.716  15.435  19.483  0.00  0.00    +0.000 HD
ENDBRANCH  31  32
ENDBRANCH  24  31
ENDBRANCH  12  22
BRANCH   1  35
ATOM     34  N   UNL     1       2.685   4.996  19.867  0.00  0.00    +0.000 N 
ATOM     35  C   UNL     1       3.336   6.084  19.272  0.00  0.00    +0.000 C 
ATOM     36  O   UNL     1       4.546   6.062  19.118  0.00  0.00    +0.000 OA
ATOM     37  H   UNL     1       1.679   4.927  19.880  0.00  0.00    +0.000 HD
BRANCH  34  38
ATOM     38  C   UNL     1       3.521   3.841  20.185  0.00  0.00    +0.000 C 
BRANCH  38  40
ATOM     39  C   UNL     1       1.744   2.777  21.660  0.00  0.00    +0.000 C 
ATOM     40  C   UNL     1       2.816   2.558  20.607  0.00  0.00    +0.000 C 
ENDBRANCH  38  40
ENDBRANCH  34  38
ENDBRANCH   1  35
TORSDOF 9
ENDMDL
MODEL 6
REMARK VINA RESULT:      -6.6      2.685     10.118
REMARK  Name = 
REMARK  10 active torsions:
REMARK  status: ('A' for Active; 'I' for Inactive)
REMARK    1  A    between atoms: C_1  and  C_2
REMARK    2  A    between atoms: C_2  and  C_3
REMARK    3  A    between atoms: C_3  and  N_4
REMARK    4  A    between atoms: C_5  and  C_7
REMARK    5  A    between atoms: N_14  and  C_15
REMARK    6  A    between atoms: N_23  and  C1*_24
REMARK    7  A    between atoms: C4*_26  and  C5*_27
REMARK    8  A    between atoms: C5*_27  and  O5*_28
REMARK    9  A    between atoms: C3*_29  and  O3*_30
REMARK   10  A    between atoms: C2*_31  and  O2*_32
REMARK                            x       y       z     vdW  Elec       q    Type
REMARK                         _______ _______ _______ _____ _____    ______ ____
ROOT
ATOM      1  C   UNL     1       0.154  10.813  20.692  0.00  0.00    +0.000 A 
ATOM      2  C   UNL     1       0.173  10.156  21.929  0.00  0.00    +0.000 A 
ATOM      3  N   UNL     1       0.629   8.900  21.846  0.00  0.00    +0.000 NA
ATOM      4  N   UNL     1       0.993   8.733  20.527  0.00  0.00    +0.000 N 
ATOM      5  C   UNL     1       1.627   7.509  20.044  0.00  0.00    +0.000 A 
ATOM      6  N   UNL     1       1.399   6.458  20.858  0.00  0.00    +0.000 NA
ATOM      7  C   UNL     1       1.887   5.257  20.511  0.00  0.00    +0.000 A 
ATOM      8  N   UNL     1       0.847   4.360  20.255  0.00  0.00    +0.000 N 
ATOM      9  C   UNL     1       3.087   5.329  19.764  0.00  0.00    +0.000 A 
ATOM     10  N   UNL     1       4.399   5.153  20.189  0.00  0.00    +0.000 NA
ATOM     11  C   UNL     1       5.136   5.822  19.325  0.00  0.00    +0.000 A 
ATOM     12  N   UNL     1       4.377   6.108  18.181  0.00  0.00    +0.000 N 
ATOM     13  C   UNL     1       3.110   6.312  18.770  0.00  0.00    +0.000 A 
ATOM     14  N   UNL     1       2.356   7.465  18.853  0.00  0.00    +0.000 NA
ATOM     15  C   UNL     1       0.663   9.859  19.805  0.00  0.00    +0.000 A 
ATOM     16  H   UNL     1       0.462   4.549  19.335  0.00  0.00    +0.000 HD
ENDROOT
BRANCH   8  17
ATOM     17  C   UNL     1       1.132   2.960  20.372  0.00  0.00    +0.000 C 
ATOM     18  C   UNL     1       0.590   2.231  19.154  0.00  0.00    +0.000 C 
ATOM     19  C   UNL     1       1.730   2.325  18.169  0.00  0.00    +0.000 C 
ATOM     20  C   UNL     1       2.934   2.242  19.078  0.00  0.00    +0.000 C 
ATOM     21  O   UNL     1       2.560   2.843  20.327  0.00  0.00    +0.000 OA
ENDBRANCH   8  17
BRANCH  12  22
ATOM     22  C1* UNL     1       4.768   5.241  17.037  0.00  0.00    +0.000 C 
ATOM     23  O4* UNL     1       5.750   4.261  17.546  0.00  0.00    +0.000 OA
ATOM     24  C4* UNL     1       6.949   4.331  16.739  0.00  0.00    +0.000 C 
ATOM     25  C3* UNL     1       6.887   5.697  16.070  0.00  0.00    +0.000 C 
ATOM     26  C2* UNL     1       5.403   5.834  15.771  0.00  0.00    +0.000 C 
BRANCH  25  27
ATOM     27  O3* UNL     1       7.723   5.784  14.931  0.00  0.00    +0.000 OA
ATOM     28  H3* UNL     1       7.338   5.239  14.218  0.00  0.00    +0.000 HD
ENDBRANCH  25  27
BRANCH  26  29
ATOM     29  O2* UNL     1       5.095   5.054  14.584  0.00  0.00    +0.000 OA
ATOM     30  H2* UNL     1       5.765   5.177  13.895  0.00  0.00    +0.000 HD
ENDBRANCH  26  29
BRANCH  24  31
ATOM     31  C5* UNL     1       8.217   4.144  17.576  0.00  0.00    +0.000 C 
BRANCH  31  32
ATOM     32  O5* UNL     1       8.137   4.876  18.797  0.00  0.00    +0.000 OA
ATOM     33  H5* UNL     1       8.916   4.633  19.331  0.00  0.00    +0.000 HD
ENDBRANCH  31  32
ENDBRANCH  24  31
ENDBRANCH  12  22
BRANCH   1  35
ATOM     34  N   UNL     1       0.213  12.677  19.062  0.00  0.00    +0.000 N 
ATOM     35  C   UNL     1      -0.289  12.121  20.245  0.00  0.00    +0.000 C 
ATOM     36  O   UNL     1      -1.124  12.728  20.898  0.00  0.00    +0.000 OA
ATOM     37  H   UNL     1       0.794  12.143  18.434  0.00  0.00    +0.000 HD
BRANCH  34  38
ATOM     38  C   UNL     1      -0.386  13.941  18.639  0.00  0.00    +0.000 C 
BRANCH  38  40
ATOM     39  C   UNL     1       1.769  15.266  18.898  0.00  0.00    +0.000 C 
ATOM     40  C   UNL     1       0.268  15.228  19.127  0.00  0.00    +0.000 C 
ENDBRANCH  38  40
ENDBRANCH  34  38
ENDBRANCH   1  35
TORSDOF 9
ENDMDL
MODEL 7
REMARK VINA RESULT:      -6.6      2.949     10.125
REMARK  Name = 
REMARK  10 active torsions:
REMARK  status: ('A' for Active; 'I' for Inactive)
REMARK    1  A    between atoms: C_1  and  C_2
REMARK    2  A    between atoms: C_2  and  C_3
REMARK    3  A    between atoms: C_3  and  N_4
REMARK    4  A    between atoms: C_5  and  C_7
REMARK    5  A    between atoms: N_14  and  C_15
REMARK    6  A    between atoms: N_23  and  C1*_24
REMARK    7  A    between atoms: C4*_26  and  C5*_27
REMARK    8  A    between atoms: C5*_27  and  O5*_28
REMARK    9  A    between atoms: C3*_29  and  O3*_30
REMARK   10  A    between atoms: C2*_31  and  O2*_32
REMARK                            x       y       z     vdW  Elec       q    Type
REMARK                         _______ _______ _______ _____ _____    ______ ____
ROOT
ATOM      1  C   UNL     1       0.005  10.613  21.277  0.00  0.00    +0.000 A 
ATOM      2  C   UNL     1       0.443  10.996  20.002  0.00  0.00    +0.000 A 
ATOM      3  N   UNL     1       1.143  10.040  19.380  0.00  0.00    +0.000 NA
ATOM      4  N   UNL     1       1.114   8.957  20.234  0.00  0.00    +0.000 N 
ATOM      5  C   UNL     1       1.700   7.668  19.875  0.00  0.00    +0.000 A 
ATOM      6  N   UNL     1       2.619   7.778  18.895  0.00  0.00    +0.000 NA
ATOM      7  C   UNL     1       3.270   6.674  18.496  0.00  0.00    +0.000 A 
ATOM      8  N   UNL     1       4.632   6.772  18.795  0.00  0.00    +0.000 N 
ATOM      9  C   UNL     1       2.504   5.490  18.622  0.00  0.00    +0.000 A 
ATOM     10  N   UNL     1       1.803   4.790  17.648  0.00  0.00    +0.000 NA
ATOM     11  C   UNL     1       0.866   4.132  18.301  0.00  0.00    +0.000 A 
ATOM     12  N   UNL     1       1.174   4.107  19.669  0.00  0.00    +0.000 N 
ATOM     13  C   UNL     1       1.774   5.378  19.809  0.00  0.00    +0.000 A 
ATOM     14  N   UNL     1       1.341   6.480  20.517  0.00  0.00    +0.000 NA
ATOM     15  C   UNL     1       0.479   9.303  21.406  0.00  0.00    +0.000 A 
ATOM     16  H   UNL     1       4.771   6.584  19.782  0.00  0.00    +0.000 HD
ENDROOT
BRANCH   8  17
ATOM     17  C   UNL     1       5.540   5.973  18.026  0.00  0.00    +0.000 C 
ATOM     18  C   UNL     1       6.004   6.762  16.813  0.00  0.00    +0.000 C 
ATOM     19  C   UNL     1       7.200   7.518  17.340  0.00  0.00    +0.000 C 
ATOM     20  C   UNL     1       7.786   6.531  18.321  0.00  0.00    +0.000 C 
ATOM     21  O   UNL     1       6.691   5.773  18.858  0.00  0.00    +0.000 OA
ENDBRANCH   8  17
BRANCH  12  22
ATOM     22  C1* UNL     1       1.666   2.768  20.092  0.00  0.00    +0.000 C 
ATOM     23  O4* UNL     1       2.937   2.977  20.814  0.00  0.00    +0.000 OA
ATOM     24  C4* UNL     1       3.968   2.168  20.200  0.00  0.00    +0.000 C 
ATOM     25  C3* UNL     1       3.443   1.865  18.803  0.00  0.00    +0.000 C 
ATOM     26  C2* UNL     1       1.958   1.667  19.062  0.00  0.00    +0.000 C 
BRANCH  25  27
ATOM     27  O3* UNL     1       4.086   0.753  18.209  0.00  0.00    +0.000 OA
ATOM     28  H3* UNL     1       4.204   0.060  18.887  0.00  0.00    +0.000 HD
ENDBRANCH  25  27
BRANCH  26  29
ATOM     29  O2* UNL     1       1.756   0.336  19.607  0.00  0.00    +0.000 OA
ATOM     30  H2* UNL     1       1.657   0.358  20.570  0.00  0.00    +0.000 HD
ENDBRANCH  26  29
BRANCH  24  31
ATOM     31  C5* UNL     1       5.322   2.882  20.176  0.00  0.00    +0.000 C 
BRANCH  31  32
ATOM     32  O5* UNL     1       5.672   3.272  18.849  0.00  0.00    +0.000 OA
ATOM     33  H5* UNL     1       6.558   2.908  18.666  0.00  0.00    +0.000 HD
ENDBRANCH  31  32
ENDBRANCH  24  31
ENDBRANCH  12  22
BRANCH   1  35
ATOM     34  N   UNL     1      -1.414  12.469  22.098  0.00  0.00    +0.000 N 
ATOM     35  C   UNL     1      -0.716  11.281  22.345  0.00  0.00    +0.000 C 
ATOM     36  O   UNL     1      -0.729  10.786  23.461  0.00  0.00    +0.000 OA
ATOM     37  H   UNL     1      -1.535  12.824  21.162  0.00  0.00    +0.000 HD
BRANCH  34  38
ATOM     38  C   UNL     1      -2.204  12.995  23.209  0.00  0.00    +0.000 C 
BRANCH  38  40
ATOM     39  C   UNL     1      -4.253  12.599  24.662  0.00  0.00    +0.000 C 
ATOM     40  C   UNL     1      -3.683  12.628  23.255  0.00  0.00    +0.000 C 
ENDBRANCH  38  40
ENDBRANCH  34  38
ENDBRANCH   1  35
TORSDOF 9
ENDMDL
MODEL 8
REMARK VINA RESULT:      -6.6      6.033      9.585
REMARK  Name = 
REMARK  10 active torsions:
REMARK  status: ('A' for Active; 'I' for Inactive)
REMARK    1  A    between atoms: C_1  and  C_2
REMARK    2  A    between atoms: C_2  and  C_3
REMARK    3  A    between atoms: C_3  and  N_4
REMARK    4  A    between atoms: C_5  and  C_7
REMARK    5  A    between atoms: N_14  and  C_15
REMARK    6  A    between atoms: N_23  and  C1*_24
REMARK    7  A    between atoms: C4*_26  and  C5*_27
REMARK    8  A    between atoms: C5*_27  and  O5*_28
REMARK    9  A    between atoms: C3*_29  and  O3*_30
REMARK   10  A    between atoms: C2*_31  and  O2*_32
REMARK                            x       y       z     vdW  Elec       q    Type
REMARK                         _______ _______ _______ _____ _____    ______ ____
ROOT
ATOM      1  C   UNL     1      -0.452  12.059  20.003  0.00  0.00    +0.000 A 
ATOM      2  C   UNL     1      -0.434  12.372  21.368  0.00  0.00    +0.000 A 
ATOM      3  N   UNL     1       0.712  12.944  21.758  0.00  0.00    +0.000 NA
ATOM      4  N   UNL     1       1.457  13.084  20.607  0.00  0.00    +0.000 N 
ATOM      5  C   UNL     1       2.755  13.754  20.597  0.00  0.00    +0.000 A 
ATOM      6  N   UNL     1       3.320  13.795  21.820  0.00  0.00    +0.000 NA
ATOM      7  C   UNL     1       4.537  14.346  21.949  0.00  0.00    +0.000 A 
ATOM      8  N   UNL     1       5.472  13.383  22.343  0.00  0.00    +0.000 N 
ATOM      9  C   UNL     1       4.792  15.377  21.015  0.00  0.00    +0.000 A 
ATOM     10  N   UNL     1       4.730  16.755  21.188  0.00  0.00    +0.000 NA
ATOM     11  C   UNL     1       4.517  17.246  19.984  0.00  0.00    +0.000 A 
ATOM     12  N   UNL     1       4.801  16.269  19.019  0.00  0.00    +0.000 N 
ATOM     13  C   UNL     1       4.373  15.112  19.707  0.00  0.00    +0.000 A 
ATOM     14  N   UNL     1       3.325  14.260  19.426  0.00  0.00    +0.000 NA
ATOM     15  C   UNL     1       0.793  12.506  19.548  0.00  0.00    +0.000 A 
ATOM     16  H   UNL     1       5.732  12.823  21.538  0.00  0.00    +0.000 HD
ENDROOT
BRANCH   8  17
ATOM     17  C   UNL     1       6.657  13.840  23.007  0.00  0.00    +0.000 C 
ATOM     18  C   UNL     1       6.791  13.132  24.344  0.00  0.00    +0.000 C 
ATOM     19  C   UNL     1       7.543  11.873  23.985  0.00  0.00    +0.000 C 
ATOM     20  C   UNL     1       8.453  12.358  22.881  0.00  0.00    +0.000 C 
ATOM     21  O   UNL     1       7.756  13.409  22.194  0.00  0.00    +0.000 OA
ENDBRANCH   8  17
BRANCH  12  22
ATOM     22  C1* UNL     1       6.088  16.545  18.326  0.00  0.00    +0.000 C 
ATOM     23  O4* UNL     1       6.586  15.258  17.800  0.00  0.00    +0.000 OA
ATOM     24  C4* UNL     1       7.931  15.037  18.289  0.00  0.00    +0.000 C 
ATOM     25  C3* UNL     1       8.051  15.937  19.512  0.00  0.00    +0.000 C 
ATOM     26  C2* UNL     1       7.275  17.168  19.075  0.00  0.00    +0.000 C 
BRANCH  25  27
ATOM     27  O3* UNL     1       9.398  16.190  19.870  0.00  0.00    +0.000 OA
ATOM     28  H3* UNL     1       9.808  15.352  20.158  0.00  0.00    +0.000 HD
ENDBRANCH  25  27
BRANCH  26  29
ATOM     29  O2* UNL     1       8.121  17.963  18.200  0.00  0.00    +0.000 OA
ATOM     30  H2* UNL     1       7.830  17.907  17.278  0.00  0.00    +0.000 HD
ENDBRANCH  26  29
BRANCH  24  31
ATOM     31  C5* UNL     1       8.190  13.564  18.615  0.00  0.00    +0.000 C 
BRANCH  31  32
ATOM     32  O5* UNL     1       9.211  13.430  19.601  0.00  0.00    +0.000 OA
ATOM     33  H5* UNL     1      10.032  13.789  19.217  0.00  0.00    +0.000 HD
ENDBRANCH  31  32
ENDBRANCH  24  31
ENDBRANCH  12  22
BRANCH   1  35
ATOM     34  N   UNL     1      -2.411  12.132  18.489  0.00  0.00    +0.000 N 
ATOM     35  C   UNL     1      -1.402  11.399  19.125  0.00  0.00    +0.000 C 
ATOM     36  O   UNL     1      -1.302  10.199  18.928  0.00  0.00    +0.000 OA
ATOM     37  H   UNL     1      -2.432  13.140  18.523  0.00  0.00    +0.000 HD
BRANCH  34  38
ATOM     38  C   UNL     1      -3.237  11.396  17.535  0.00  0.00    +0.000 C 
BRANCH  38  40
ATOM     39  C   UNL     1      -2.839   9.751  15.637  0.00  0.00    +0.000 C 
ATOM     40  C   UNL     1      -2.670  11.175  16.138  0.00  0.00    +0.000 C 
ENDBRANCH  38  40
ENDBRANCH  34  38
ENDBRANCH   1  35
TORSDOF 9
ENDMDL
MODEL 9
REMARK VINA RESULT:      -6.5      3.538      8.552
REMARK  Name = 
REMARK  10 active torsions:
REMARK  status: ('A' for Active; 'I' for Inactive)
REMARK    1  A    between atoms: C_1  and  C_2
REMARK    2  A    between atoms: C_2  and  C_3
REMARK    3  A    between atoms: C_3  and  N_4
REMARK    4  A    between atoms: C_5  and  C_7
REMARK    5  A    between atoms: N_14  and  C_15
REMARK    6  A    between atoms: N_23  and  C1*_24
REMARK    7  A    between atoms: C4*_26  and  C5*_27
REMARK    8  A    between atoms: C5*_27  and  O5*_28
REMARK    9  A    between atoms: C3*_29  and  O3*_30
REMARK   10  A    between atoms: C2*_31  and  O2*_32
REMARK                            x       y       z     vdW  Elec       q    Type
REMARK                         _______ _______ _______ _____ _____    ______ ____
ROOT
ATOM      1  C   UNL     1       2.820  15.558  19.094  0.00  0.00    +0.000 A 
ATOM      2  C   UNL     1       1.542  15.676  19.655  0.00  0.00    +0.000 A 
ATOM      3  N   UNL     1       0.808  14.565  19.523  0.00  0.00    +0.000 NA
ATOM      4  N   UNL     1       1.643  13.650  18.916  0.00  0.00    +0.000 N 
ATOM      5  C   UNL     1       1.237  12.268  18.674  0.00  0.00    +0.000 A 
ATOM      6  N   UNL     1      -0.104  12.121  18.671  0.00  0.00    +0.000 NA
ATOM      7  C   UNL     1      -0.618  10.907  18.416  0.00  0.00    +0.000 A 
ATOM      8  N   UNL     1      -1.340  10.922  17.219  0.00  0.00    +0.000 N 
ATOM      9  C   UNL     1       0.212   9.842  18.839  0.00  0.00    +0.000 A 
ATOM     10  N   UNL     1       0.122   9.059  19.984  0.00  0.00    +0.000 NA
ATOM     11  C   UNL     1       1.344   8.616  20.198  0.00  0.00    +0.000 A 
ATOM     12  N   UNL     1       2.119   8.791  19.043  0.00  0.00    +0.000 N 
ATOM     13  C   UNL     1       1.574  10.003  18.563  0.00  0.00    +0.000 A 
ATOM     14  N   UNL     1       2.163  11.246  18.449  0.00  0.00    +0.000 NA
ATOM     15  C   UNL     1       2.842  14.249  18.602  0.00  0.00    +0.000 A 
ATOM     16  H   UNL     1      -0.692  10.890  16.438  0.00  0.00    +0.000 HD
ENDROOT
BRANCH   8  17
ATOM     17  C   UNL     1      -2.349   9.920  17.040  0.00  0.00    +0.000 C 
ATOM     18  C   UNL     1      -3.681  10.451  17.542  0.00  0.00    +0.000 C 
ATOM     19  C   UNL     1      -4.242  11.155  16.330  0.00  0.00    +0.000 C 
ATOM     20  C   UNL     1      -3.739  10.283  15.203  0.00  0.00    +0.000 C 
ATOM     21  O   UNL     1      -2.479   9.739  15.624  0.00  0.00    +0.000 OA
ENDBRANCH   8  17
BRANCH  12  22
ATOM     22  C1* UNL     1       2.343   7.502  18.336  0.00  0.00    +0.000 C 
ATOM     23  O4* UNL     1       1.567   6.469  19.051  0.00  0.00    +0.000 OA
ATOM     24  C4* UNL     1       2.452   5.387  19.425  0.00  0.00    +0.000 C 
ATOM     25  C3* UNL     1       3.847   5.996  19.386  0.00  0.00    +0.000 C 
ATOM     26  C2* UNL     1       3.755   6.917  18.181  0.00  0.00    +0.000 C 
BRANCH  25  27
ATOM     27  O3* UNL     1       4.866   5.017  19.298  0.00  0.00    +0.000 OA
ATOM     28  H3* UNL     1       4.823   4.448  20.091  0.00  0.00    +0.000 HD
ENDBRANCH  25  27
BRANCH  26  29
ATOM     29  O2* UNL     1       3.890   6.117  16.974  0.00  0.00    +0.000 OA
ATOM     30  H2* UNL     1       3.129   5.531  16.850  0.00  0.00    +0.000 HD
ENDBRANCH  26  29
BRANCH  24  31
ATOM     31  C5* UNL     1       2.102   4.805  20.797  0.00  0.00    +0.000 C 
BRANCH  31  32
ATOM     32  O5* UNL     1       2.816   3.594  21.037  0.00  0.00    +0.000 OA
ATOM     33  H5* UNL     1       2.310   3.088  21.699  0.00  0.00    +0.000 HD
ENDBRANCH  31  32
ENDBRANCH  24  31
ENDBRANCH  12  22
BRANCH   1  35
ATOM     34  N   UNL     1       4.984  16.487  19.862  0.00  0.00    +0.000 N 
ATOM     35  C   UNL     1       3.943  16.463  18.926  0.00  0.00    +0.000 C 
ATOM     36  O   UNL     1       3.985  17.193  17.948  0.00  0.00    +0.000 OA
ATOM     37  H   UNL     1       5.044  15.802  20.601  0.00  0.00    +0.000 HD
BRANCH  34  38
ATOM     38  C   UNL     1       6.122  17.345  19.539  0.00  0.00    +0.000 C 
BRANCH  38  40
ATOM     39  C   UNL     1       8.378  17.684  18.415  0.00  0.00    +0.000 C 
ATOM     40  C   UNL     1       7.337  16.687  18.895  0.00  0.00    +0.000 C 
ENDBRANCH  38  40
ENDBRANCH  34  38
ENDBRANCH   1  35
TORSDOF 9
ENDMDL
