MODEL 1
REMARK VINA RESULT:      -8.2      0.000      0.000
REMARK  Name = 
REMARK  5 active torsions:
REMARK  status: ('A' for Active; 'I' for Inactive)
REMARK    1  A    between atoms: C_1  and  O_2
REMARK    2  A    between atoms: O_2  and  C_3
REMARK    3  A    between atoms: C_5  and  O_6
REMARK    4  A    between atoms: O_6  and  C_7
REMARK    5  A    between atoms: C_9  and  C_10
REMARK                            x       y       z     vdW  Elec       q    Type
REMARK                         _______ _______ _______ _____ _____    ______ ____
ROOT
ATOM      1  C   UNL     1       3.128   5.961  19.310  0.00  0.00    +0.000 C 
ATOM      2  S   UNL     1       1.961   4.467  19.286  0.00  0.00    +0.000 S 
ATOM      3  C   UNL     1       2.888   3.442  20.433  0.00  0.00    +0.000 C 
ATOM      4  C   UNL     1       4.082   2.940  19.687  0.00  0.00    +0.000 C 
ATOM      5  O   UNL     1       4.109   1.908  19.022  0.00  0.00    +0.000 OA
ATOM      6  N   UNL     1       5.159   3.804  19.767  0.00  0.00    +0.000 N 
ATOM      7  C   UNL     1       5.293   4.654  18.627  0.00  0.00    +0.000 A 
ATOM      8  C   UNL     1       6.381   4.267  17.814  0.00  0.00    +0.000 A 
ATOM      9  C   UNL     1       6.489   4.809  16.589  0.00  0.00    +0.000 A 
ATOM     10  C   UNL     1       5.602   5.763  16.157  0.00  0.00    +0.000 A 
ATOM     11  C   UNL     1       4.525   6.239  16.975  0.00  0.00    +0.000 A 
ATOM     12  C   UNL     1       4.310   5.683  18.273  0.00  0.00    +0.000 A 
ATOM     13  O   UNL     1       5.902   6.114  14.861  0.00  0.00    +0.000 OA
ATOM     14  C   UNL     1       7.013   5.212  14.543  0.00  0.00    +0.000 C 
ATOM     15  O   UNL     1       7.410   4.418  15.660  0.00  0.00    +0.000 OA
ATOM     16  H   UNL     1       5.972   3.196  19.794  0.00  0.00    +0.000 HD
ENDROOT
BRANCH   1  21
ATOM     17  C   UNL     1       0.929   8.610  21.208  0.00  0.00    +0.000 A 
ATOM     18  C   UNL     1       0.966   9.676  20.290  0.00  0.00    +0.000 A 
ATOM     19  C   UNL     1       1.494   9.510  19.019  0.00  0.00    +0.000 A 
ATOM     20  C   UNL     1       2.036   8.251  18.686  0.00  0.00    +0.000 A 
ATOM     21  C   UNL     1       2.079   7.115  19.621  0.00  0.00    +0.000 A 
ATOM     22  C   UNL     1       1.487   7.348  20.886  0.00  0.00    +0.000 A 
BRANCH  17  24
ATOM     23  C   UNL     1      -0.276  10.189  22.466  0.00  0.00    +0.000 C 
ATOM     24  O   UNL     1       0.495   9.012  22.444  0.00  0.00    +0.000 OA
ENDBRANCH  17  24
BRANCH  19  25
ATOM     25  O   UNL     1       1.299  10.620  18.252  0.00  0.00    +0.000 OA
ATOM     26  C   UNL     1       1.706  11.920  18.637  0.00  0.00    +0.000 C 
ENDBRANCH  19  25
ENDBRANCH   1  21
TORSDOF 3
ENDMDL
MODEL 2
REMARK VINA RESULT:      -7.9      0.874      2.222
REMARK  Name = 
REMARK  5 active torsions:
REMARK  status: ('A' for Active; 'I' for Inactive)
REMARK    1  A    between atoms: C_1  and  O_2
REMARK    2  A    between atoms: O_2  and  C_3
REMARK    3  A    between atoms: C_5  and  O_6
REMARK    4  A    between atoms: O_6  and  C_7
REMARK    5  A    between atoms: C_9  and  C_10
REMARK                            x       y       z     vdW  Elec       q    Type
REMARK                         _______ _______ _______ _____ _____    ______ ____
ROOT
ATOM      1  C   UNL     1       2.998   6.351  19.441  0.00  0.00    +0.000 C 
ATOM      2  S   UNL     1       1.588   5.084  19.435  0.00  0.00    +0.000 S 
ATOM      3  C   UNL     1       2.345   3.902  20.556  0.00  0.00    +0.000 C 
ATOM      4  C   UNL     1       3.417   3.207  19.782  0.00  0.00    +0.000 C 
ATOM      5  O   UNL     1       3.250   2.192  19.111  0.00  0.00    +0.000 OA
ATOM      6  N   UNL     1       4.630   3.869  19.842  0.00  0.00    +0.000 N 
ATOM      7  C   UNL     1       4.887   4.693  18.704  0.00  0.00    +0.000 A 
ATOM      8  C   UNL     1       5.874   4.129  17.866  0.00  0.00    +0.000 A 
ATOM      9  C   UNL     1       6.050   4.655  16.641  0.00  0.00    +0.000 A 
ATOM     10  C   UNL     1       5.333   5.753  16.234  0.00  0.00    +0.000 A 
ATOM     11  C   UNL     1       4.373   6.402  17.077  0.00  0.00    +0.000 A 
ATOM     12  C   UNL     1       4.092   5.881  18.377  0.00  0.00    +0.000 A 
ATOM     13  O   UNL     1       5.663   6.058  14.933  0.00  0.00    +0.000 OA
ATOM     14  C   UNL     1       6.593   4.979  14.587  0.00  0.00    +0.000 C 
ATOM     15  O   UNL     1       6.869   4.118  15.690  0.00  0.00    +0.000 OA
ATOM     16  H   UNL     1       5.325   3.128  19.849  0.00  0.00    +0.000 HD
ENDROOT
BRANCH   1  21
ATOM     17  C   UNL     1       0.722   9.539  19.096  0.00  0.00    +0.000 A 
ATOM     18  C   UNL     1      -0.017   9.454  20.290  0.00  0.00    +0.000 A 
ATOM     19  C   UNL     1       0.319   8.541  21.279  0.00  0.00    +0.000 A 
ATOM     20  C   UNL     1       1.398   7.667  21.034  0.00  0.00    +0.000 A 
ATOM     21  C   UNL     1       2.173   7.667  19.782  0.00  0.00    +0.000 A 
ATOM     22  C   UNL     1       1.797   8.651  18.836  0.00  0.00    +0.000 A 
BRANCH  17  24
ATOM     23  C   UNL     1      -1.253  10.354  18.116  0.00  0.00    +0.000 C 
ATOM     24  O   UNL     1       0.151  10.403  18.199  0.00  0.00    +0.000 OA
ENDBRANCH  17  24
BRANCH  19  25
ATOM     25  O   UNL     1      -0.432   8.728  22.402  0.00  0.00    +0.000 OA
ATOM     26  C   UNL     1      -0.482   9.948  23.116  0.00  0.00    +0.000 C 
ENDBRANCH  19  25
ENDBRANCH   1  21
TORSDOF 3
ENDMDL
MODEL 3
REMARK VINA RESULT:      -7.8      2.217      3.746
REMARK  Name = 
REMARK  5 active torsions:
REMARK  status: ('A' for Active; 'I' for Inactive)
REMARK    1  A    between atoms: C_1  and  O_2
REMARK    2  A    between atoms: O_2  and  C_3
REMARK    3  A    between atoms: C_5  and  O_6
REMARK    4  A    between atoms: O_6  and  C_7
REMARK    5  A    between atoms: C_9  and  C_10
REMARK                            x       y       z     vdW  Elec       q    Type
REMARK                         _______ _______ _______ _____ _____    ______ ____
ROOT
ATOM      1  C   UNL     1       4.658   5.396  17.805  0.00  0.00    +0.000 C 
ATOM      2  S   UNL     1       5.488   4.206  19.026  0.00  0.00    +0.000 S 
ATOM      3  C   UNL     1       6.989   5.161  19.282  0.00  0.00    +0.000 C 
ATOM      4  C   UNL     1       7.815   4.997  18.048  0.00  0.00    +0.000 C 
ATOM      5  O   UNL     1       8.631   4.099  17.867  0.00  0.00    +0.000 OA
ATOM      6  N   UNL     1       7.516   5.939  17.081  0.00  0.00    +0.000 N 
ATOM      7  C   UNL     1       6.624   5.459  16.074  0.00  0.00    +0.000 A 
ATOM      8  C   UNL     1       7.291   5.235  14.850  0.00  0.00    +0.000 A 
ATOM      9  C   UNL     1       6.647   4.557  13.885  0.00  0.00    +0.000 A 
ATOM     10  C   UNL     1       5.349   4.144  14.056  0.00  0.00    +0.000 A 
ATOM     11  C   UNL     1       4.608   4.413  15.253  0.00  0.00    +0.000 A 
ATOM     12  C   UNL     1       5.231   5.089  16.346  0.00  0.00    +0.000 A 
ATOM     13  O   UNL     1       4.944   3.435  12.949  0.00  0.00    +0.000 OA
ATOM     14  C   UNL     1       6.164   3.403  12.136  0.00  0.00    +0.000 C 
ATOM     15  O   UNL     1       7.229   4.156  12.716  0.00  0.00    +0.000 OA
ATOM     16  H   UNL     1       8.407   6.136  16.633  0.00  0.00    +0.000 HD
ENDROOT
BRANCH   1  21
ATOM     17  C   UNL     1       1.433   4.671  19.933  0.00  0.00    +0.000 A 
ATOM     18  C   UNL     1       1.221   5.934  20.513  0.00  0.00    +0.000 A 
ATOM     19  C   UNL     1       1.944   7.044  20.099  0.00  0.00    +0.000 A 
ATOM     20  C   UNL     1       2.931   6.859  19.110  0.00  0.00    +0.000 A 
ATOM     21  C   UNL     1       3.240   5.552  18.507  0.00  0.00    +0.000 A 
ATOM     22  C   UNL     1       2.436   4.475  18.950  0.00  0.00    +0.000 A 
BRANCH  17  24
ATOM     23  C   UNL     1       1.481   2.786  21.338  0.00  0.00    +0.000 C 
ATOM     24  O   UNL     1       0.721   3.688  20.569  0.00  0.00    +0.000 OA
ENDBRANCH  17  24
BRANCH  19  25
ATOM     25  O   UNL     1       1.480   8.184  20.686  0.00  0.00    +0.000 OA
ATOM     26  C   UNL     1       1.012   9.304  19.958  0.00  0.00    +0.000 C 
ENDBRANCH  19  25
ENDBRANCH   1  21
TORSDOF 3
ENDMDL
MODEL 4
REMARK VINA RESULT:      -7.1      2.230      2.908
REMARK  Name = 
REMARK  5 active torsions:
REMARK  status: ('A' for Active; 'I' for Inactive)
REMARK    1  A    between atoms: C_1  and  O_2
REMARK    2  A    between atoms: O_2  and  C_3
REMARK    3  A    between atoms: C_5  and  O_6
REMARK    4  A    between atoms: O_6  and  C_7
REMARK    5  A    between atoms: C_9  and  C_10
REMARK                            x       y       z     vdW  Elec       q    Type
REMARK                         _______ _______ _______ _____ _____    ______ ____
ROOT
ATOM      1  C   UNL     1       4.801   6.218  17.523  0.00  0.00    +0.000 C 
ATOM      2  S   UNL     1       5.246   5.026  18.929  0.00  0.00    +0.000 S 
ATOM      3  C   UNL     1       6.928   5.604  19.187  0.00  0.00    +0.000 C 
ATOM      4  C   UNL     1       7.737   5.083  18.044  0.00  0.00    +0.000 C 
ATOM      5  O   UNL     1       8.304   3.995  18.027  0.00  0.00    +0.000 OA
ATOM      6  N   UNL     1       7.731   5.938  16.957  0.00  0.00    +0.000 N 
ATOM      7  C   UNL     1       6.790   5.569  15.948  0.00  0.00    +0.000 A 
ATOM      8  C   UNL     1       7.431   5.031  14.810  0.00  0.00    +0.000 A 
ATOM      9  C   UNL     1       6.678   4.416  13.882  0.00  0.00    +0.000 A 
ATOM     10  C   UNL     1       5.311   4.364  14.001  0.00  0.00    +0.000 A 
ATOM     11  C   UNL     1       4.612   4.959  15.102  0.00  0.00    +0.000 A 
ATOM     12  C   UNL     1       5.339   5.594  16.155  0.00  0.00    +0.000 A 
ATOM     13  O   UNL     1       4.787   3.641  12.955  0.00  0.00    +0.000 OA
ATOM     14  C   UNL     1       5.992   3.204  12.244  0.00  0.00    +0.000 C 
ATOM     15  O   UNL     1       7.187   3.737  12.813  0.00  0.00    +0.000 OA
ATOM     16  H   UNL     1       8.661   5.848  16.558  0.00  0.00    +0.000 HD
ENDROOT
BRANCH   1  21
ATOM     17  C   UNL     1       1.944   7.335  19.982  0.00  0.00    +0.000 A 
ATOM     18  C   UNL     1       1.558   8.550  19.389  0.00  0.00    +0.000 A 
ATOM     19  C   UNL     1       2.035   8.923  18.141  0.00  0.00    +0.000 A 
ATOM     20  C   UNL     1       2.954   8.066  17.501  0.00  0.00    +0.000 A 
ATOM     21  C   UNL     1       3.441   6.810  18.095  0.00  0.00    +0.000 A 
ATOM     22  C   UNL     1       2.881   6.478  19.353  0.00  0.00    +0.000 A 
BRANCH  17  24
ATOM     23  C   UNL     1       1.001   8.406  21.851  0.00  0.00    +0.000 C 
ATOM     24  O   UNL     1       1.474   7.217  21.264  0.00  0.00    +0.000 OA
ENDBRANCH  17  24
BRANCH  19  25
ATOM     25  O   UNL     1       1.425  10.058  17.696  0.00  0.00    +0.000 OA
ATOM     26  C   UNL     1       0.672  10.920  18.528  0.00  0.00    +0.000 C 
ENDBRANCH  19  25
ENDBRANCH   1  21
TORSDOF 3
ENDMDL
MODEL 5
REMARK VINA RESULT:      -7.1      4.204      8.274
REMARK  Name = 
REMARK  5 active torsions:
REMARK  status: ('A' for Active; 'I' for Inactive)
REMARK    1  A    between atoms: C_1  and  O_2
REMARK    2  A    between atoms: O_2  and  C_3
REMARK    3  A    between atoms: C_5  and  O_6
REMARK    4  A    between atoms: O_6  and  C_7
REMARK    5  A    between atoms: C_9  and  C_10
REMARK                            x       y       z     vdW  Elec       q    Type
REMARK                         _______ _______ _______ _____ _____    ______ ____
ROOT
ATOM      1  C   UNL     1       0.408   9.941  19.320  0.00  0.00    +0.000 C 
ATOM      2  S   UNL     1       1.533  11.464  19.222  0.00  0.00    +0.000 S 
ATOM      3  C   UNL     1       0.741  12.411  20.527  0.00  0.00    +0.000 C 
ATOM      4  C   UNL     1      -0.548  12.916  19.965  0.00  0.00    +0.000 C 
ATOM      5  O   UNL     1      -0.681  13.977  19.361  0.00  0.00    +0.000 OA
ATOM      6  N   UNL     1      -1.589  12.022  20.138  0.00  0.00    +0.000 N 
ATOM      7  C   UNL     1      -1.852  11.223  18.984  0.00  0.00    +0.000 A 
ATOM      8  C   UNL     1      -3.042  11.619  18.336  0.00  0.00    +0.000 A 
ATOM      9  C   UNL     1      -3.296  11.132  17.110  0.00  0.00    +0.000 A 
ATOM     10  C   UNL     1      -2.453  10.222  16.521  0.00  0.00    +0.000 A 
ATOM     11  C   UNL     1      -1.271   9.737  17.171  0.00  0.00    +0.000 A 
ATOM     12  C   UNL     1      -0.903  10.237  18.457  0.00  0.00    +0.000 A 
ATOM     13  O   UNL     1      -2.910   9.925  15.258  0.00  0.00    +0.000 OA
ATOM     14  C   UNL     1      -4.070  10.812  15.130  0.00  0.00    +0.000 C 
ATOM     15  O   UNL     1      -4.336  11.543  16.326  0.00  0.00    +0.000 OA
ATOM     16  H   UNL     1      -2.404  12.608  20.299  0.00  0.00    +0.000 HD
ENDROOT
BRANCH   1  21
ATOM     17  C   UNL     1       2.224   6.562  20.181  0.00  0.00    +0.000 A 
ATOM     18  C   UNL     1       2.967   6.365  19.004  0.00  0.00    +0.000 A 
ATOM     19  C   UNL     1       3.061   7.358  18.040  0.00  0.00    +0.000 A 
ATOM     20  C   UNL     1       2.351   8.558  18.254  0.00  0.00    +0.000 A 
ATOM     21  C   UNL     1       1.511   8.802  19.438  0.00  0.00    +0.000 A 
ATOM     22  C   UNL     1       1.494   7.759  20.395  0.00  0.00    +0.000 A 
BRANCH  17  24
ATOM     23  C   UNL     1       1.231   4.453  20.482  0.00  0.00    +0.000 C 
ATOM     24  O   UNL     1       2.146   5.421  20.936  0.00  0.00    +0.000 OA
ENDBRANCH  17  24
BRANCH  19  25
ATOM     25  O   UNL     1       3.941   7.014  17.057  0.00  0.00    +0.000 OA
ATOM     26  C   UNL     1       4.626   5.776  17.018  0.00  0.00    +0.000 C 
ENDBRANCH  19  25
ENDBRANCH   1  21
TORSDOF 3
ENDMDL
MODEL 6
REMARK VINA RESULT:      -6.8      2.971      8.023
REMARK  Name = 
REMARK  5 active torsions:
REMARK  status: ('A' for Active; 'I' for Inactive)
REMARK    1  A    between atoms: C_1  and  O_2
REMARK    2  A    between atoms: O_2  and  C_3
REMARK    3  A    between atoms: C_5  and  O_6
REMARK    4  A    between atoms: O_6  and  C_7
REMARK    5  A    between atoms: C_9  and  C_10
REMARK                            x       y       z     vdW  Elec       q    Type
REMARK                         _______ _______ _______ _____ _____    ______ ____
ROOT
ATOM      1  C   UNL     1       1.092   9.374  19.617  0.00  0.00    +0.000 C 
ATOM      2  S   UNL     1       1.433   9.094  21.461  0.00  0.00    +0.000 S 
ATOM      3  C   UNL     1      -0.261   9.272  22.031  0.00  0.00    +0.000 C 
ATOM      4  C   UNL     1      -0.579  10.731  21.973  0.00  0.00    +0.000 C 
ATOM      5  O   UNL     1      -0.378  11.528  22.884  0.00  0.00    +0.000 OA
ATOM      6  N   UNL     1      -1.074  11.117  20.740  0.00  0.00    +0.000 N 
ATOM      7  C   UNL     1      -0.087  11.698  19.887  0.00  0.00    +0.000 A 
ATOM      8  C   UNL     1      -0.259  13.094  19.766  0.00  0.00    +0.000 A 
ATOM      9  C   UNL     1       0.725  13.814  19.201  0.00  0.00    +0.000 A 
ATOM     10  C   UNL     1       1.847  13.205  18.695  0.00  0.00    +0.000 A 
ATOM     11  C   UNL     1       2.032  11.784  18.731  0.00  0.00    +0.000 A 
ATOM     12  C   UNL     1       1.056  10.948  19.354  0.00  0.00    +0.000 A 
ATOM     13  O   UNL     1       2.714  14.162  18.223  0.00  0.00    +0.000 OA
ATOM     14  C   UNL     1       2.024  15.408  18.572  0.00  0.00    +0.000 C 
ATOM     15  O   UNL     1       0.741  15.179  19.152  0.00  0.00    +0.000 OA
ATOM     16  H   UNL     1      -1.758  11.837  20.954  0.00  0.00    +0.000 HD
ENDROOT
BRANCH   1  21
ATOM     17  C   UNL     1       3.604   7.063  17.666  0.00  0.00    +0.000 A 
ATOM     18  C   UNL     1       3.733   6.000  18.578  0.00  0.00    +0.000 A 
ATOM     19  C   UNL     1       2.906   5.902  19.687  0.00  0.00    +0.000 A 
ATOM     20  C   UNL     1       1.959   6.925  19.900  0.00  0.00    +0.000 A 
ATOM     21  C   UNL     1       1.815   8.093  19.014  0.00  0.00    +0.000 A 
ATOM     22  C   UNL     1       2.666   8.104  17.883  0.00  0.00    +0.000 A 
BRANCH  17  24
ATOM     23  C   UNL     1       5.062   5.778  16.344  0.00  0.00    +0.000 C 
ATOM     24  O   UNL     1       4.595   7.051  16.720  0.00  0.00    +0.000 OA
ENDBRANCH  17  24
BRANCH  19  25
ATOM     25  O   UNL     1       3.104   4.728  20.351  0.00  0.00    +0.000 OA
ATOM     26  C   UNL     1       2.151   4.151  21.224  0.00  0.00    +0.000 C 
ENDBRANCH  19  25
ENDBRANCH   1  21
TORSDOF 3
ENDMDL
MODEL 7
REMARK VINA RESULT:      -6.6      3.215      7.588
REMARK  Name = 
REMARK  5 active torsions:
REMARK  status: ('A' for Active; 'I' for Inactive)
REMARK    1  A    between atoms: C_1  and  O_2
REMARK    2  A    between atoms: O_2  and  C_3
REMARK    3  A    between atoms: C_5  and  O_6
REMARK    4  A    between atoms: O_6  and  C_7
REMARK    5  A    between atoms: C_9  and  C_10
REMARK                            x       y       z     vdW  Elec       q    Type
REMARK                         _______ _______ _______ _____ _____    ______ ____
ROOT
ATOM      1  C   UNL     1       0.955   9.076  20.523  0.00  0.00    +0.000 C 
ATOM      2  S   UNL     1       1.200   9.231  22.396  0.00  0.00    +0.000 S 
ATOM      3  C   UNL     1      -0.513   9.572  22.818  0.00  0.00    +0.000 C 
ATOM      4  C   UNL     1      -0.781  10.982  22.403  0.00  0.00    +0.000 C 
ATOM      5  O   UNL     1      -0.598  11.968  23.111  0.00  0.00    +0.000 OA
ATOM      6  N   UNL     1      -1.205  11.077  21.090  0.00  0.00    +0.000 N 
ATOM      7  C   UNL     1      -0.161  11.422  20.178  0.00  0.00    +0.000 A 
ATOM      8  C   UNL     1      -0.283  12.753  19.725  0.00  0.00    +0.000 A 
ATOM      9  C   UNL     1       0.749  13.301  19.060  0.00  0.00    +0.000 A 
ATOM     10  C   UNL     1       1.873  12.568  18.772  0.00  0.00    +0.000 A 
ATOM     11  C   UNL     1       2.012  11.192  19.148  0.00  0.00    +0.000 A 
ATOM     12  C   UNL     1       0.981  10.545  19.896  0.00  0.00    +0.000 A 
ATOM     13  O   UNL     1       2.792  13.370  18.135  0.00  0.00    +0.000 OA
ATOM     14  C   UNL     1       2.125  14.676  18.145  0.00  0.00    +0.000 C 
ATOM     15  O   UNL     1       0.810  14.615  18.694  0.00  0.00    +0.000 OA
ATOM     16  H   UNL     1      -1.875  11.841  21.092  0.00  0.00    +0.000 HD
ENDROOT
BRANCH   1  21
ATOM     17  C   UNL     1       1.656   5.212  20.355  0.00  0.00    +0.000 A 
ATOM     18  C   UNL     1       2.345   5.131  19.131  0.00  0.00    +0.000 A 
ATOM     19  C   UNL     1       2.760   6.274  18.464  0.00  0.00    +0.000 A 
ATOM     20  C   UNL     1       2.433   7.525  19.028  0.00  0.00    +0.000 A 
ATOM     21  C   UNL     1       1.665   7.676  20.275  0.00  0.00    +0.000 A 
ATOM     22  C   UNL     1       1.308   6.466  20.918  0.00  0.00    +0.000 A 
BRANCH  17  24
ATOM     23  C   UNL     1       2.093   3.289  21.635  0.00  0.00    +0.000 C 
ATOM     24  O   UNL     1       1.218   3.985  20.779  0.00  0.00    +0.000 OA
ENDBRANCH  17  24
BRANCH  19  25
ATOM     25  O   UNL     1       3.530   5.966  17.382  0.00  0.00    +0.000 OA
ATOM     26  C   UNL     1       4.615   6.759  16.941  0.00  0.00    +0.000 C 
ENDBRANCH  19  25
ENDBRANCH   1  21
TORSDOF 3
ENDMDL
MODEL 8
REMARK VINA RESULT:      -6.5      4.281      8.686
REMARK  Name = 
REMARK  5 active torsions:
REMARK  status: ('A' for Active; 'I' for Inactive)
REMARK    1  A    between atoms: C_1  and  O_2
REMARK    2  A    between atoms: O_2  and  C_3
REMARK    3  A    between atoms: C_5  and  O_6
REMARK    4  A    between atoms: O_6  and  C_7
REMARK    5  A    between atoms: C_9  and  C_10
REMARK                            x       y       z     vdW  Elec       q    Type
REMARK                         _______ _______ _______ _____ _____    ______ ____
ROOT
ATOM      1  C   UNL     1       0.461  10.372  19.695  0.00  0.00    +0.000 C 
ATOM      2  S   UNL     1       1.614  11.771  19.142  0.00  0.00    +0.000 S 
ATOM      3  C   UNL     1       1.276  12.891  20.506  0.00  0.00    +0.000 C 
ATOM      4  C   UNL     1      -0.081  13.465  20.259  0.00  0.00    +0.000 C 
ATOM      5  O   UNL     1      -0.304  14.480  19.606  0.00  0.00    +0.000 OA
ATOM      6  N   UNL     1      -1.091  12.688  20.796  0.00  0.00    +0.000 N 
ATOM      7  C   UNL     1      -1.714  11.824  19.843  0.00  0.00    +0.000 A 
ATOM      8  C   UNL     1      -3.007  12.274  19.500  0.00  0.00    +0.000 A 
ATOM      9  C   UNL     1      -3.620  11.714  18.443  0.00  0.00    +0.000 A 
ATOM     10  C   UNL     1      -3.033  10.685  17.748  0.00  0.00    +0.000 A 
ATOM     11  C   UNL     1      -1.753  10.148  18.105  0.00  0.00    +0.000 A 
ATOM     12  C   UNL     1      -1.014  10.715  19.187  0.00  0.00    +0.000 A 
ATOM     13  O   UNL     1      -3.838  10.329  16.691  0.00  0.00    +0.000 OA
ATOM     14  C   UNL     1      -4.928  11.305  16.786  0.00  0.00    +0.000 C 
ATOM     15  O   UNL     1      -4.806  12.153  17.927  0.00  0.00    +0.000 OA
ATOM     16  H   UNL     1      -1.790  13.357  21.107  0.00  0.00    +0.000 HD
ENDROOT
BRANCH   1  21
ATOM     17  C   UNL     1       2.057   6.804  20.121  0.00  0.00    +0.000 A 
ATOM     18  C   UNL     1       2.702   6.664  18.880  0.00  0.00    +0.000 A 
ATOM     19  C   UNL     1       2.811   7.733  18.002  0.00  0.00    +0.000 A 
ATOM     20  C   UNL     1       2.214   8.956  18.372  0.00  0.00    +0.000 A 
ATOM     21  C   UNL     1       1.476   9.149  19.631  0.00  0.00    +0.000 A 
ATOM     22  C   UNL     1       1.440   8.026  20.492  0.00  0.00    +0.000 A 
BRANCH  17  24
ATOM     23  C   UNL     1       2.224   4.462  20.009  0.00  0.00    +0.000 C 
ATOM     24  O   UNL     1       1.939   5.606  20.776  0.00  0.00    +0.000 OA
ENDBRANCH  17  24
BRANCH  19  25
ATOM     25  O   UNL     1       3.594   7.418  16.931  0.00  0.00    +0.000 OA
ATOM     26  C   UNL     1       4.590   6.413  16.958  0.00  0.00    +0.000 C 
ENDBRANCH  19  25
ENDBRANCH   1  21
TORSDOF 3
ENDMDL
MODEL 9
REMARK VINA RESULT:      -6.5      4.707      8.300
REMARK  Name = 
REMARK  5 active torsions:
REMARK  status: ('A' for Active; 'I' for Inactive)
REMARK    1  A    between atoms: C_1  and  O_2
REMARK    2  A    between atoms: O_2  and  C_3
REMARK    3  A    between atoms: C_5  and  O_6
REMARK    4  A    between atoms: O_6  and  C_7
REMARK    5  A    between atoms: C_9  and  C_10
REMARK                            x       y       z     vdW  Elec       q    Type
REMARK                         _______ _______ _______ _____ _____    ______ ____
ROOT
ATOM      1  C   UNL     1      -0.474  12.488  21.279  0.00  0.00    +0.000 C 
ATOM      2  S   UNL     1       0.887  13.808  21.302  0.00  0.00    +0.000 S 
ATOM      3  C   UNL     1       0.650  14.402  19.623  0.00  0.00    +0.000 C 
ATOM      4  C   UNL     1       1.219  13.358  18.718  0.00  0.00    +0.000 C 
ATOM      5  O   UNL     1       2.388  13.314  18.347  0.00  0.00    +0.000 OA
ATOM      6  N   UNL     1       0.294  12.386  18.383  0.00  0.00    +0.000 N 
ATOM      7  C   UNL     1       0.402  11.200  19.172  0.00  0.00    +0.000 A 
ATOM      8  C   UNL     1       0.957  10.132  18.435  0.00  0.00    +0.000 A 
ATOM      9  C   UNL     1       1.347   9.030  19.099  0.00  0.00    +0.000 A 
ATOM     10  C   UNL     1       1.156   8.916  20.454  0.00  0.00    +0.000 A 
ATOM     11  C   UNL     1       0.531   9.945  21.232  0.00  0.00    +0.000 A 
ATOM     12  C   UNL     1       0.128  11.167  20.613  0.00  0.00    +0.000 A 
ATOM     13  O   UNL     1       1.685   7.724  20.892  0.00  0.00    +0.000 OA
ATOM     14  C   UNL     1       2.278   7.178  19.668  0.00  0.00    +0.000 C 
ATOM     15  O   UNL     1       2.021   7.991  18.524  0.00  0.00    +0.000 OA
ATOM     16  H   UNL     1       0.521  12.138  17.424  0.00  0.00    +0.000 HD
ENDROOT
BRANCH   1  21
ATOM     17  C   UNL     1      -2.123  14.592  24.162  0.00  0.00    +0.000 A 
ATOM     18  C   UNL     1      -3.307  13.860  24.366  0.00  0.00    +0.000 A 
ATOM     19  C   UNL     1      -3.501  12.626  23.763  0.00  0.00    +0.000 A 
ATOM     20  C   UNL     1      -2.493  12.145  22.901  0.00  0.00    +0.000 A 
ATOM     21  C   UNL     1      -1.259  12.890  22.602  0.00  0.00    +0.000 A 
ATOM     22  C   UNL     1      -1.114  14.122  23.283  0.00  0.00    +0.000 A 
BRANCH  17  24
ATOM     23  C   UNL     1      -3.458  16.241  25.173  0.00  0.00    +0.000 C 
ATOM     24  O   UNL     1      -2.184  15.836  24.733  0.00  0.00    +0.000 OA
ENDBRANCH  17  24
BRANCH  19  25
ATOM     25  O   UNL     1      -4.643  12.030  24.209  0.00  0.00    +0.000 OA
ATOM     26  C   UNL     1      -5.906  12.668  24.221  0.00  0.00    +0.000 C 
ENDBRANCH  19  25
ENDBRANCH   1  21
TORSDOF 3
ENDMDL
