MODEL 1
REMARK VINA RESULT:      -8.4      0.000      0.000
REMARK  Name = 
REMARK  8 active torsions:
REMARK  status: ('A' for Active; 'I' for Inactive)
REMARK    1  A    between atoms: C_1  and  C_2
REMARK    2  A    between atoms: N_4  and  C_5
REMARK    3  A    between atoms: C_8  and  C_9
REMARK    4  A    between atoms: C_9  and  O_11
REMARK    5  A    between atoms: C_17  and  C_18
REMARK    6  A    between atoms: C_21  and  C_22
REMARK    7  A    between atoms: C_25  and  S_26
REMARK    8  A    between atoms: S_26  and  N_27
REMARK                            x       y       z     vdW  Elec       q    Type
REMARK                         _______ _______ _______ _____ _____    ______ ____
ROOT
ATOM      1  C   UNL     1      -0.070   9.237  22.563  0.00  0.00    +0.000 C 
ATOM      2  C   UNL     1       0.640   8.615  21.408  0.00  0.00    +0.000 C 
ATOM      3  N   UNL     1       1.034   7.367  21.403  0.00  0.00    +0.000 NA
ATOM      4  N   UNL     1       1.703   7.169  20.197  0.00  0.00    +0.000 N 
ATOM      5  C   UNL     1       1.752   8.307  19.377  0.00  0.00    +0.000 C 
ATOM      6  O   UNL     1       2.266   8.509  18.293  0.00  0.00    +0.000 OA
ATOM      7  C   UNL     1       1.008   9.313  20.168  0.00  0.00    +0.000 C 
ATOM      8  C   UNL     1       0.833  10.554  19.701  0.00  0.00    +0.000 C 
ENDROOT
BRANCH   4   9
ATOM      9  C   UNL     1       2.337   5.922  19.973  0.00  0.00    +0.000 A 
ATOM     10  C   UNL     1       2.039   4.796  20.752  0.00  0.00    +0.000 A 
ATOM     11  C   UNL     1       2.627   3.555  20.481  0.00  0.00    +0.000 A 
ATOM     12  C   UNL     1       3.546   3.419  19.436  0.00  0.00    +0.000 A 
ATOM     13  C   UNL     1       3.867   4.535  18.657  0.00  0.00    +0.000 A 
ATOM     14  C   UNL     1       3.265   5.773  18.928  0.00  0.00    +0.000 A 
BRANCH  12  15
ATOM     15  C   UNL     1       4.087   2.063  19.165  0.00  0.00    +0.000 C 
ATOM     16  O   UNL     1       3.658   1.349  18.275  0.00  0.00    +0.000 OA
BRANCH  15  17
ATOM     17  O   UNL     1       5.068   1.677  20.007  0.00  0.00    +0.000 OA
ATOM     18  H   UNL     1       5.206   0.716  20.075  0.00  0.00    +0.000 HD
ENDBRANCH  15  17
ENDBRANCH  12  15
ENDBRANCH   4   9
BRANCH   8  19
ATOM     19  C   UNL     1       0.227  11.585  20.452  0.00  0.00    +0.000 A 
ATOM     20  C   UNL     1       0.761  12.816  20.800  0.00  0.00    +0.000 A 
ATOM     21  C   UNL     1      -0.226  13.520  21.519  0.00  0.00    +0.000 A 
ATOM     22  C   UNL     1      -1.341  12.711  21.562  0.00  0.00    +0.000 A 
ATOM     23  O   UNL     1      -1.060  11.531  20.932  0.00  0.00    +0.000 OA
BRANCH  22  24
ATOM     24  C   UNL     1      -2.694  12.885  22.085  0.00  0.00    +0.000 A 
ATOM     25  C   UNL     1      -3.698  13.420  21.259  0.00  0.00    +0.000 A 
ATOM     26  C   UNL     1      -5.019  13.520  21.703  0.00  0.00    +0.000 A 
ATOM     27  C   UNL     1      -5.348  13.076  22.982  0.00  0.00    +0.000 A 
ATOM     28  C   UNL     1      -4.362  12.583  23.839  0.00  0.00    +0.000 A 
ATOM     29  C   UNL     1      -3.041  12.485  23.386  0.00  0.00    +0.000 A 
BRANCH  27  30
ATOM     30  S   UNL     1      -7.033  13.138  23.515  0.00  0.00    +0.000 S 
ATOM     31  O   UNL     1      -7.442  11.828  23.956  0.00  0.00    +0.000 OA
ATOM     32  O   UNL     1      -7.234  14.328  24.312  0.00  0.00    +0.000 OA
BRANCH  30  33
ATOM     33  N   UNL     1      -7.826  13.412  22.063  0.00  0.00    +0.000 NA
ATOM     34  H   UNL     1      -7.392  14.191  21.568  0.00  0.00    +0.000 HD
ATOM     35  H   UNL     1      -7.875  12.550  21.520  0.00  0.00    +0.000 HD
ENDBRANCH  30  33
ENDBRANCH  27  30
ENDBRANCH  22  24
ENDBRANCH   8  19
TORSDOF 7
ENDMDL
MODEL 2
REMARK VINA RESULT:      -8.3      1.317      1.833
REMARK  Name = 
REMARK  8 active torsions:
REMARK  status: ('A' for Active; 'I' for Inactive)
REMARK    1  A    between atoms: C_1  and  C_2
REMARK    2  A    between atoms: N_4  and  C_5
REMARK    3  A    between atoms: C_8  and  C_9
REMARK    4  A    between atoms: C_9  and  O_11
REMARK    5  A    between atoms: C_17  and  C_18
REMARK    6  A    between atoms: C_21  and  C_22
REMARK    7  A    between atoms: C_25  and  S_26
REMARK    8  A    between atoms: S_26  and  N_27
REMARK                            x       y       z     vdW  Elec       q    Type
REMARK                         _______ _______ _______ _____ _____    ______ ____
ROOT
ATOM      1  C   UNL     1       0.565   9.199  21.980  0.00  0.00    +0.000 C 
ATOM      2  C   UNL     1       1.123   8.935  20.622  0.00  0.00    +0.000 C 
ATOM      3  N   UNL     1       1.674   7.795  20.289  0.00  0.00    +0.000 NA
ATOM      4  N   UNL     1       2.125   7.943  18.978  0.00  0.00    +0.000 N 
ATOM      5  C   UNL     1       1.865   9.206  18.424  0.00  0.00    +0.000 C 
ATOM      6  O   UNL     1       2.135   9.692  17.341  0.00  0.00    +0.000 OA
ATOM      7  C   UNL     1       1.154   9.905  19.519  0.00  0.00    +0.000 C 
ATOM      8  C   UNL     1       0.730  11.163  19.362  0.00  0.00    +0.000 C 
ENDROOT
BRANCH   4   9
ATOM      9  C   UNL     1       2.867   6.886  18.396  0.00  0.00    +0.000 A 
ATOM     10  C   UNL     1       3.722   7.102  17.308  0.00  0.00    +0.000 A 
ATOM     11  C   UNL     1       4.496   6.062  16.782  0.00  0.00    +0.000 A 
ATOM     12  C   UNL     1       4.413   4.774  17.319  0.00  0.00    +0.000 A 
ATOM     13  C   UNL     1       3.553   4.536  18.396  0.00  0.00    +0.000 A 
ATOM     14  C   UNL     1       2.789   5.586  18.926  0.00  0.00    +0.000 A 
BRANCH  12  15
ATOM     15  C   UNL     1       5.304   3.730  16.752  0.00  0.00    +0.000 C 
ATOM     16  O   UNL     1       6.390   3.987  16.262  0.00  0.00    +0.000 OA
BRANCH  15  17
ATOM     17  O   UNL     1       4.796   2.480  16.796  0.00  0.00    +0.000 OA
ATOM     18  H   UNL     1       4.258   2.222  16.028  0.00  0.00    +0.000 HD
ENDBRANCH  15  17
ENDBRANCH  12  15
ENDBRANCH   4   9
BRANCH   8  19
ATOM     19  C   UNL     1       0.142  11.917  20.402  0.00  0.00    +0.000 A 
ATOM     20  C   UNL     1       0.729  12.904  21.178  0.00  0.00    +0.000 A 
ATOM     21  C   UNL     1      -0.256  13.394  22.059  0.00  0.00    +0.000 A 
ATOM     22  C   UNL     1      -1.420  12.714  21.774  0.00  0.00    +0.000 A 
ATOM     23  O   UNL     1      -1.174  11.806  20.782  0.00  0.00    +0.000 OA
BRANCH  22  24
ATOM     24  C   UNL     1      -2.790  12.806  22.271  0.00  0.00    +0.000 A 
ATOM     25  C   UNL     1      -3.807  13.297  21.432  0.00  0.00    +0.000 A 
ATOM     26  C   UNL     1      -5.139  13.319  21.850  0.00  0.00    +0.000 A 
ATOM     27  C   UNL     1      -5.468  12.839  23.117  0.00  0.00    +0.000 A 
ATOM     28  C   UNL     1      -4.473  12.388  23.986  0.00  0.00    +0.000 A 
ATOM     29  C   UNL     1      -3.141  12.369  23.559  0.00  0.00    +0.000 A 
BRANCH  27  30
ATOM     30  S   UNL     1      -7.164  12.802  23.616  0.00  0.00    +0.000 S 
ATOM     31  O   UNL     1      -7.609  11.432  23.691  0.00  0.00    +0.000 OA
ATOM     32  O   UNL     1      -7.362  13.745  24.694  0.00  0.00    +0.000 OA
BRANCH  30  33
ATOM     33  N   UNL     1      -7.916  13.467  22.272  0.00  0.00    +0.000 NA
ATOM     34  H   UNL     1      -7.383  14.267  21.934  0.00  0.00    +0.000 HD
ATOM     35  H   UNL     1      -8.080  12.747  21.568  0.00  0.00    +0.000 HD
ENDBRANCH  30  33
ENDBRANCH  27  30
ENDBRANCH  22  24
ENDBRANCH   8  19
TORSDOF 7
ENDMDL
MODEL 3
REMARK VINA RESULT:      -8.1      1.038      1.284
REMARK  Name = 
REMARK  8 active torsions:
REMARK  status: ('A' for Active; 'I' for Inactive)
REMARK    1  A    between atoms: C_1  and  C_2
REMARK    2  A    between atoms: N_4  and  C_5
REMARK    3  A    between atoms: C_8  and  C_9
REMARK    4  A    between atoms: C_9  and  O_11
REMARK    5  A    between atoms: C_17  and  C_18
REMARK    6  A    between atoms: C_21  and  C_22
REMARK    7  A    between atoms: C_25  and  S_26
REMARK    8  A    between atoms: S_26  and  N_27
REMARK                            x       y       z     vdW  Elec       q    Type
REMARK                         _______ _______ _______ _____ _____    ______ ____
ROOT
ATOM      1  C   UNL     1       0.420   9.305  21.914  0.00  0.00    +0.000 C 
ATOM      2  C   UNL     1       1.076   8.490  20.851  0.00  0.00    +0.000 C 
ATOM      3  N   UNL     1       1.496   7.266  21.051  0.00  0.00    +0.000 NA
ATOM      4  N   UNL     1       2.100   6.857  19.863  0.00  0.00    +0.000 N 
ATOM      5  C   UNL     1       2.078   7.826  18.848  0.00  0.00    +0.000 C 
ATOM      6  O   UNL     1       2.526   7.832  17.716  0.00  0.00    +0.000 OA
ATOM      7  C   UNL     1       1.359   8.953  19.485  0.00  0.00    +0.000 C 
ATOM      8  C   UNL     1       1.133  10.085  18.812  0.00  0.00    +0.000 C 
ENDROOT
BRANCH   4   9
ATOM      9  C   UNL     1       2.745   5.597  19.832  0.00  0.00    +0.000 A 
ATOM     10  C   UNL     1       2.432   4.589  20.753  0.00  0.00    +0.000 A 
ATOM     11  C   UNL     1       3.033   3.327  20.673  0.00  0.00    +0.000 A 
ATOM     12  C   UNL     1       3.981   3.054  19.683  0.00  0.00    +0.000 A 
ATOM     13  C   UNL     1       4.318   4.054  18.765  0.00  0.00    +0.000 A 
ATOM     14  C   UNL     1       3.703   5.312  18.843  0.00  0.00    +0.000 A 
BRANCH  12  15
ATOM     15  C   UNL     1       4.537   1.678  19.619  0.00  0.00    +0.000 C 
ATOM     16  O   UNL     1       5.269   1.224  20.481  0.00  0.00    +0.000 OA
BRANCH  15  17
ATOM     17  O   UNL     1       4.188   0.989  18.512  0.00  0.00    +0.000 OA
ATOM     18  H   UNL     1       3.231   0.898  18.362  0.00  0.00    +0.000 HD
ENDBRANCH  15  17
ENDBRANCH  12  15
ENDBRANCH   4   9
BRANCH   8  19
ATOM     19  C   UNL     1       0.549  11.230  19.397  0.00  0.00    +0.000 A 
ATOM     20  C   UNL     1       0.996  12.541  19.341  0.00  0.00    +0.000 A 
ATOM     21  C   UNL     1       0.069  13.338  20.043  0.00  0.00    +0.000 A 
ATOM     22  C   UNL     1      -0.930  12.495  20.479  0.00  0.00    +0.000 A 
ATOM     23  O   UNL     1      -0.630  11.215  20.104  0.00  0.00    +0.000 OA
BRANCH  22  24
ATOM     24  C   UNL     1      -2.192  12.706  21.186  0.00  0.00    +0.000 A 
ATOM     25  C   UNL     1      -3.310  13.196  20.489  0.00  0.00    +0.000 A 
ATOM     26  C   UNL     1      -4.550  13.329  21.116  0.00  0.00    +0.000 A 
ATOM     27  C   UNL     1      -4.684  12.963  22.455  0.00  0.00    +0.000 A 
ATOM     28  C   UNL     1      -3.579  12.516  23.183  0.00  0.00    +0.000 A 
ATOM     29  C   UNL     1      -2.340  12.385  22.546  0.00  0.00    +0.000 A 
BRANCH  27  30
ATOM     30  S   UNL     1      -6.271  13.065  23.227  0.00  0.00    +0.000 S 
ATOM     31  O   UNL     1      -7.273  13.326  22.225  0.00  0.00    +0.000 OA
ATOM     32  O   UNL     1      -6.397  11.999  24.196  0.00  0.00    +0.000 OA
BRANCH  30  33
ATOM     33  N   UNL     1      -6.114  14.481  24.113  0.00  0.00    +0.000 NA
ATOM     34  H   UNL     1      -6.477  14.346  25.056  0.00  0.00    +0.000 HD
ATOM     35  H   UNL     1      -5.149  14.811  24.081  0.00  0.00    +0.000 HD
ENDBRANCH  30  33
ENDBRANCH  27  30
ENDBRANCH  22  24
ENDBRANCH   8  19
TORSDOF 7
ENDMDL
MODEL 4
REMARK VINA RESULT:      -8.1      1.603      2.021
REMARK  Name = 
REMARK  8 active torsions:
REMARK  status: ('A' for Active; 'I' for Inactive)
REMARK    1  A    between atoms: C_1  and  C_2
REMARK    2  A    between atoms: N_4  and  C_5
REMARK    3  A    between atoms: C_8  and  C_9
REMARK    4  A    between atoms: C_9  and  O_11
REMARK    5  A    between atoms: C_17  and  C_18
REMARK    6  A    between atoms: C_21  and  C_22
REMARK    7  A    between atoms: C_25  and  S_26
REMARK    8  A    between atoms: S_26  and  N_27
REMARK                            x       y       z     vdW  Elec       q    Type
REMARK                         _______ _______ _______ _____ _____    ______ ____
ROOT
ATOM      1  C   UNL     1       0.416   9.288  21.432  0.00  0.00    +0.000 C 
ATOM      2  C   UNL     1       1.182   8.426  20.485  0.00  0.00    +0.000 C 
ATOM      3  N   UNL     1       1.556   7.206  20.777  0.00  0.00    +0.000 NA
ATOM      4  N   UNL     1       2.292   6.747  19.685  0.00  0.00    +0.000 N 
ATOM      5  C   UNL     1       2.406   7.678  18.642  0.00  0.00    +0.000 C 
ATOM      6  O   UNL     1       2.986   7.637  17.572  0.00  0.00    +0.000 OA
ATOM      7  C   UNL     1       1.633   8.835  19.147  0.00  0.00    +0.000 C 
ATOM      8  C   UNL     1       1.505   9.944  18.412  0.00  0.00    +0.000 C 
ENDROOT
BRANCH   4   9
ATOM      9  C   UNL     1       2.918   5.480  19.778  0.00  0.00    +0.000 A 
ATOM     10  C   UNL     1       2.290   4.395  20.403  0.00  0.00    +0.000 A 
ATOM     11  C   UNL     1       2.894   3.132  20.433  0.00  0.00    +0.000 A 
ATOM     12  C   UNL     1       4.152   2.934  19.858  0.00  0.00    +0.000 A 
ATOM     13  C   UNL     1       4.800   4.009  19.242  0.00  0.00    +0.000 A 
ATOM     14  C   UNL     1       4.184   5.269  19.205  0.00  0.00    +0.000 A 
BRANCH  12  15
ATOM     15  C   UNL     1       4.709   1.557  19.873  0.00  0.00    +0.000 C 
ATOM     16  O   UNL     1       5.391   1.133  20.790  0.00  0.00    +0.000 OA
BRANCH  15  17
ATOM     17  O   UNL     1       4.424   0.830  18.772  0.00  0.00    +0.000 OA
ATOM     18  H   UNL     1       4.784  -0.074  18.766  0.00  0.00    +0.000 HD
ENDBRANCH  15  17
ENDBRANCH  12  15
ENDBRANCH   4   9
BRANCH   8  19
ATOM     19  C   UNL     1       0.872  11.116  18.881  0.00  0.00    +0.000 A 
ATOM     20  C   UNL     1       1.426  12.375  19.054  0.00  0.00    +0.000 A 
ATOM     21  C   UNL     1       0.402  13.231  19.509  0.00  0.00    +0.000 A 
ATOM     22  C   UNL     1      -0.749  12.477  19.571  0.00  0.00    +0.000 A 
ATOM     23  O   UNL     1      -0.461  11.191  19.208  0.00  0.00    +0.000 OA
BRANCH  22  24
ATOM     24  C   UNL     1      -2.141  12.785  19.890  0.00  0.00    +0.000 A 
ATOM     25  C   UNL     1      -3.178  12.125  19.206  0.00  0.00    +0.000 A 
ATOM     26  C   UNL     1      -4.515  12.337  19.546  0.00  0.00    +0.000 A 
ATOM     27  C   UNL     1      -4.829  13.211  20.586  0.00  0.00    +0.000 A 
ATOM     28  C   UNL     1      -3.822  13.913  21.251  0.00  0.00    +0.000 A 
ATOM     29  C   UNL     1      -2.484  13.695  20.904  0.00  0.00    +0.000 A 
BRANCH  27  30
ATOM     30  S   UNL     1      -6.519  13.423  21.061  0.00  0.00    +0.000 S 
ATOM     31  O   UNL     1      -6.621  14.534  21.974  0.00  0.00    +0.000 OA
ATOM     32  O   UNL     1      -7.360  13.293  19.892  0.00  0.00    +0.000 OA
BRANCH  30  33
ATOM     33  N   UNL     1      -6.778  12.040  21.975  0.00  0.00    +0.000 NA
ATOM     34  H   UNL     1      -5.910  11.749  22.424  0.00  0.00    +0.000 HD
ATOM     35  H   UNL     1      -7.553  12.185  22.622  0.00  0.00    +0.000 HD
ENDBRANCH  30  33
ENDBRANCH  27  30
ENDBRANCH  22  24
ENDBRANCH   8  19
TORSDOF 7
ENDMDL
MODEL 5
REMARK VINA RESULT:      -8.1      1.006      1.694
REMARK  Name = 
REMARK  8 active torsions:
REMARK  status: ('A' for Active; 'I' for Inactive)
REMARK    1  A    between atoms: C_1  and  C_2
REMARK    2  A    between atoms: N_4  and  C_5
REMARK    3  A    between atoms: C_8  and  C_9
REMARK    4  A    between atoms: C_9  and  O_11
REMARK    5  A    between atoms: C_17  and  C_18
REMARK    6  A    between atoms: C_21  and  C_22
REMARK    7  A    between atoms: C_25  and  S_26
REMARK    8  A    between atoms: S_26  and  N_27
REMARK                            x       y       z     vdW  Elec       q    Type
REMARK                         _______ _______ _______ _____ _____    ______ ____
ROOT
ATOM      1  C   UNL     1       0.134   9.475  22.036  0.00  0.00    +0.000 C 
ATOM      2  C   UNL     1       0.839   8.732  20.951  0.00  0.00    +0.000 C 
ATOM      3  N   UNL     1       1.206   7.481  21.068  0.00  0.00    +0.000 NA
ATOM      4  N   UNL     1       1.879   7.155  19.892  0.00  0.00    +0.000 N 
ATOM      5  C   UNL     1       1.959   8.210  18.969  0.00  0.00    +0.000 C 
ATOM      6  O   UNL     1       2.487   8.298  17.875  0.00  0.00    +0.000 OA
ATOM      7  C   UNL     1       1.232   9.302  19.654  0.00  0.00    +0.000 C 
ATOM      8  C   UNL     1       1.088  10.496  19.071  0.00  0.00    +0.000 C 
ENDROOT
BRANCH   4   9
ATOM      9  C   UNL     1       2.487   5.879  19.792  0.00  0.00    +0.000 A 
ATOM     10  C   UNL     1       3.823   5.731  19.399  0.00  0.00    +0.000 A 
ATOM     11  C   UNL     1       4.429   4.470  19.365  0.00  0.00    +0.000 A 
ATOM     12  C   UNL     1       3.701   3.324  19.700  0.00  0.00    +0.000 A 
ATOM     13  C   UNL     1       2.362   3.451  20.080  0.00  0.00    +0.000 A 
ATOM     14  C   UNL     1       1.764   4.720  20.124  0.00  0.00    +0.000 A 
BRANCH  12  15
ATOM     15  C   UNL     1       4.420   2.024  19.699  0.00  0.00    +0.000 C 
ATOM     16  O   UNL     1       5.186   1.696  20.589  0.00  0.00    +0.000 OA
BRANCH  15  17
ATOM     17  O   UNL     1       4.179   1.256  18.616  0.00  0.00    +0.000 OA
ATOM     18  H   UNL     1       3.739   1.707  17.875  0.00  0.00    +0.000 HD
ENDBRANCH  15  17
ENDBRANCH  12  15
ENDBRANCH   4   9
BRANCH   8  19
ATOM     19  C   UNL     1       0.499  11.606  19.716  0.00  0.00    +0.000 A 
ATOM     20  C   UNL     1       1.025  12.879  19.875  0.00  0.00    +0.000 A 
ATOM     21  C   UNL     1       0.061  13.656  20.551  0.00  0.00    +0.000 A 
ATOM     22  C   UNL     1      -1.033  12.843  20.755  0.00  0.00    +0.000 A 
ATOM     23  O   UNL     1      -0.761  11.596  20.266  0.00  0.00    +0.000 OA
BRANCH  22  24
ATOM     24  C   UNL     1      -2.362  13.063  21.321  0.00  0.00    +0.000 A 
ATOM     25  C   UNL     1      -2.685  12.518  22.577  0.00  0.00    +0.000 A 
ATOM     26  C   UNL     1      -3.916  12.780  23.181  0.00  0.00    +0.000 A 
ATOM     27  C   UNL     1      -4.837  13.602  22.534  0.00  0.00    +0.000 A 
ATOM     28  C   UNL     1      -4.560  14.119  21.267  0.00  0.00    +0.000 A 
ATOM     29  C   UNL     1      -3.323  13.852  20.668  0.00  0.00    +0.000 A 
BRANCH  27  30
ATOM     30  S   UNL     1      -6.366  13.990  23.333  0.00  0.00    +0.000 S 
ATOM     31  O   UNL     1      -7.280  14.549  22.368  0.00  0.00    +0.000 OA
ATOM     32  O   UNL     1      -6.730  12.902  24.213  0.00  0.00    +0.000 OA
BRANCH  30  33
ATOM     33  N   UNL     1      -5.903  15.258  24.329  0.00  0.00    +0.000 NA
ATOM     34  H   UNL     1      -5.912  14.959  25.303  0.00  0.00    +0.000 HD
ATOM     35  H   UNL     1      -5.009  15.641  24.019  0.00  0.00    +0.000 HD
ENDBRANCH  30  33
ENDBRANCH  27  30
ENDBRANCH  22  24
ENDBRANCH   8  19
TORSDOF 7
ENDMDL
MODEL 6
REMARK VINA RESULT:      -8.1      3.474     10.903
REMARK  Name = 
REMARK  8 active torsions:
REMARK  status: ('A' for Active; 'I' for Inactive)
REMARK    1  A    between atoms: C_1  and  C_2
REMARK    2  A    between atoms: N_4  and  C_5
REMARK    3  A    between atoms: C_8  and  C_9
REMARK    4  A    between atoms: C_9  and  O_11
REMARK    5  A    between atoms: C_17  and  C_18
REMARK    6  A    between atoms: C_21  and  C_22
REMARK    7  A    between atoms: C_25  and  S_26
REMARK    8  A    between atoms: S_26  and  N_27
REMARK                            x       y       z     vdW  Elec       q    Type
REMARK                         _______ _______ _______ _____ _____    ______ ____
ROOT
ATOM      1  C   UNL     1       0.748  10.513  21.514  0.00  0.00    +0.000 C 
ATOM      2  C   UNL     1      -0.518  11.168  21.075  0.00  0.00    +0.000 C 
ATOM      3  N   UNL     1      -1.346  11.747  21.906  0.00  0.00    +0.000 NA
ATOM      4  N   UNL     1      -2.429  12.185  21.146  0.00  0.00    +0.000 N 
ATOM      5  C   UNL     1      -2.318  11.897  19.777  0.00  0.00    +0.000 C 
ATOM      6  O   UNL     1      -3.068  12.097  18.838  0.00  0.00    +0.000 OA
ATOM      7  C   UNL     1      -1.004  11.220  19.688  0.00  0.00    +0.000 C 
ATOM      8  C   UNL     1      -0.536  10.791  18.512  0.00  0.00    +0.000 C 
ENDROOT
BRANCH   4   9
ATOM      9  C   UNL     1      -3.538  12.757  21.816  0.00  0.00    +0.000 A 
ATOM     10  C   UNL     1      -4.843  12.618  21.326  0.00  0.00    +0.000 A 
ATOM     11  C   UNL     1      -5.936  13.135  22.030  0.00  0.00    +0.000 A 
ATOM     12  C   UNL     1      -5.745  13.825  23.231  0.00  0.00    +0.000 A 
ATOM     13  C   UNL     1      -4.447  13.987  23.727  0.00  0.00    +0.000 A 
ATOM     14  C   UNL     1      -3.357  13.455  23.022  0.00  0.00    +0.000 A 
BRANCH  12  15
ATOM     15  C   UNL     1      -6.951  14.297  23.957  0.00  0.00    +0.000 C 
ATOM     16  O   UNL     1      -7.386  15.430  23.844  0.00  0.00    +0.000 OA
BRANCH  15  17
ATOM     17  O   UNL     1      -7.503  13.376  24.775  0.00  0.00    +0.000 OA
ATOM     18  H   UNL     1      -8.473  13.412  24.848  0.00  0.00    +0.000 HD
ENDBRANCH  15  17
ENDBRANCH  12  15
ENDBRANCH   4   9
BRANCH   8  19
ATOM     19  C   UNL     1       0.657  10.047  18.379  0.00  0.00    +0.000 A 
ATOM     20  C   UNL     1       1.883  10.479  17.899  0.00  0.00    +0.000 A 
ATOM     21  C   UNL     1       2.781   9.395  17.989  0.00  0.00    +0.000 A 
ATOM     22  C   UNL     1       2.084   8.346  18.548  0.00  0.00    +0.000 A 
ATOM     23  O   UNL     1       0.792   8.735  18.768  0.00  0.00    +0.000 OA
BRANCH  22  24
ATOM     24  C   UNL     1       2.455   6.996  18.964  0.00  0.00    +0.000 A 
ATOM     25  C   UNL     1       1.897   6.446  20.132  0.00  0.00    +0.000 A 
ATOM     26  C   UNL     1       2.168   5.129  20.510  0.00  0.00    +0.000 A 
ATOM     27  C   UNL     1       2.999   4.344  19.712  0.00  0.00    +0.000 A 
ATOM     28  C   UNL     1       3.603   4.879  18.573  0.00  0.00    +0.000 A 
ATOM     29  C   UNL     1       3.325   6.200  18.201  0.00  0.00    +0.000 A 
BRANCH  27  30
ATOM     30  S   UNL     1       3.283   2.656  20.155  0.00  0.00    +0.000 S 
ATOM     31  O   UNL     1       3.198   2.518  21.587  0.00  0.00    +0.000 OA
ATOM     32  O   UNL     1       2.558   1.798  19.244  0.00  0.00    +0.000 OA
BRANCH  30  33
ATOM     33  N   UNL     1       4.905   2.483  19.763  0.00  0.00    +0.000 NA
ATOM     34  H   UNL     1       5.193   1.512  19.884  0.00  0.00    +0.000 HD
ATOM     35  H   UNL     1       5.085   2.857  18.832  0.00  0.00    +0.000 HD
ENDBRANCH  30  33
ENDBRANCH  27  30
ENDBRANCH  22  24
ENDBRANCH   8  19
TORSDOF 7
ENDMDL
MODEL 7
REMARK VINA RESULT:      -8.0      1.379      1.669
REMARK  Name = 
REMARK  8 active torsions:
REMARK  status: ('A' for Active; 'I' for Inactive)
REMARK    1  A    between atoms: C_1  and  C_2
REMARK    2  A    between atoms: N_4  and  C_5
REMARK    3  A    between atoms: C_8  and  C_9
REMARK    4  A    between atoms: C_9  and  O_11
REMARK    5  A    between atoms: C_17  and  C_18
REMARK    6  A    between atoms: C_21  and  C_22
REMARK    7  A    between atoms: C_25  and  S_26
REMARK    8  A    between atoms: S_26  and  N_27
REMARK                            x       y       z     vdW  Elec       q    Type
REMARK                         _______ _______ _______ _____ _____    ______ ____
ROOT
ATOM      1  C   UNL     1       0.463   9.982  21.787  0.00  0.00    +0.000 C 
ATOM      2  C   UNL     1       1.031   9.078  20.745  0.00  0.00    +0.000 C 
ATOM      3  N   UNL     1       1.448   7.865  21.004  0.00  0.00    +0.000 NA
ATOM      4  N   UNL     1       1.961   7.359  19.811  0.00  0.00    +0.000 N 
ATOM      5  C   UNL     1       1.879   8.252  18.731  0.00  0.00    +0.000 C 
ATOM      6  O   UNL     1       2.245   8.166  17.573  0.00  0.00    +0.000 OA
ATOM      7  C   UNL     1       1.222   9.435  19.331  0.00  0.00    +0.000 C 
ATOM      8  C   UNL     1       0.962  10.519  18.593  0.00  0.00    +0.000 C 
ENDROOT
BRANCH   4   9
ATOM      9  C   UNL     1       2.586   6.089  19.829  0.00  0.00    +0.000 A 
ATOM     10  C   UNL     1       1.963   4.971  20.399  0.00  0.00    +0.000 A 
ATOM     11  C   UNL     1       2.565   3.709  20.356  0.00  0.00    +0.000 A 
ATOM     12  C   UNL     1       3.819   3.541  19.761  0.00  0.00    +0.000 A 
ATOM     13  C   UNL     1       4.464   4.649  19.200  0.00  0.00    +0.000 A 
ATOM     14  C   UNL     1       3.848   5.909  19.237  0.00  0.00    +0.000 A 
BRANCH  12  15
ATOM     15  C   UNL     1       4.375   2.166  19.697  0.00  0.00    +0.000 C 
ATOM     16  O   UNL     1       5.106   1.711  20.560  0.00  0.00    +0.000 OA
BRANCH  15  17
ATOM     17  O   UNL     1       4.030   1.478  18.588  0.00  0.00    +0.000 OA
ATOM     18  H   UNL     1       3.074   1.414  18.418  0.00  0.00    +0.000 HD
ENDBRANCH  15  17
ENDBRANCH  12  15
ENDBRANCH   4   9
BRANCH   8  19
ATOM     19  C   UNL     1       0.436  11.714  19.131  0.00  0.00    +0.000 A 
ATOM     20  C   UNL     1       1.030  12.965  19.174  0.00  0.00    +0.000 A 
ATOM     21  C   UNL     1       0.112  13.852  19.772  0.00  0.00    +0.000 A 
ATOM     22  C   UNL     1      -1.024  13.123  20.047  0.00  0.00    +0.000 A 
ATOM     23  O   UNL     1      -0.821  11.823  19.676  0.00  0.00    +0.000 OA
BRANCH  22  24
ATOM     24  C   UNL     1      -2.338  13.466  20.587  0.00  0.00    +0.000 A 
ATOM     25  C   UNL     1      -3.459  12.689  20.246  0.00  0.00    +0.000 A 
ATOM     26  C   UNL     1      -4.711  12.941  20.811  0.00  0.00    +0.000 A 
ATOM     27  C   UNL     1      -4.850  13.976  21.735  0.00  0.00    +0.000 A 
ATOM     28  C   UNL     1      -3.763  14.791  22.057  0.00  0.00    +0.000 A 
ATOM     29  C   UNL     1      -2.512  14.531  21.487  0.00  0.00    +0.000 A 
BRANCH  27  30
ATOM     30  S   UNL     1      -6.420  14.247  22.503  0.00  0.00    +0.000 S 
ATOM     31  O   UNL     1      -7.016  15.442  21.959  0.00  0.00    +0.000 OA
ATOM     32  O   UNL     1      -7.129  12.991  22.588  0.00  0.00    +0.000 OA
BRANCH  30  33
ATOM     33  N   UNL     1      -5.957  14.627  24.070  0.00  0.00    +0.000 NA
ATOM     34  H   UNL     1      -5.458  13.841  24.487  0.00  0.00    +0.000 HD
ATOM     35  H   UNL     1      -5.436  15.504  24.081  0.00  0.00    +0.000 HD
ENDBRANCH  30  33
ENDBRANCH  27  30
ENDBRANCH  22  24
ENDBRANCH   8  19
TORSDOF 7
ENDMDL
MODEL 8
REMARK VINA RESULT:      -8.0      1.235      1.894
REMARK  Name = 
REMARK  8 active torsions:
REMARK  status: ('A' for Active; 'I' for Inactive)
REMARK    1  A    between atoms: C_1  and  C_2
REMARK    2  A    between atoms: N_4  and  C_5
REMARK    3  A    between atoms: C_8  and  C_9
REMARK    4  A    between atoms: C_9  and  O_11
REMARK    5  A    between atoms: C_17  and  C_18
REMARK    6  A    between atoms: C_21  and  C_22
REMARK    7  A    between atoms: C_25  and  S_26
REMARK    8  A    between atoms: S_26  and  N_27
REMARK                            x       y       z     vdW  Elec       q    Type
REMARK                         _______ _______ _______ _____ _____    ______ ____
ROOT
ATOM      1  C   UNL     1       0.392   9.264  21.671  0.00  0.00    +0.000 C 
ATOM      2  C   UNL     1       1.106   8.450  20.645  0.00  0.00    +0.000 C 
ATOM      3  N   UNL     1       1.461   7.206  20.844  0.00  0.00    +0.000 NA
ATOM      4  N   UNL     1       2.148   6.803  19.701  0.00  0.00    +0.000 N 
ATOM      5  C   UNL     1       2.250   7.798  18.716  0.00  0.00    +0.000 C 
ATOM      6  O   UNL     1       2.793   7.814  17.626  0.00  0.00    +0.000 OA
ATOM      7  C   UNL     1       1.521   8.935  19.321  0.00  0.00    +0.000 C 
ATOM      8  C   UNL     1       1.396  10.092  18.663  0.00  0.00    +0.000 C 
ENDROOT
BRANCH   4   9
ATOM      9  C   UNL     1       2.747   5.519  19.689  0.00  0.00    +0.000 A 
ATOM     10  C   UNL     1       4.062   5.326  19.248  0.00  0.00    +0.000 A 
ATOM     11  C   UNL     1       4.662   4.063  19.300  0.00  0.00    +0.000 A 
ATOM     12  C   UNL     1       3.948   2.957  19.773  0.00  0.00    +0.000 A 
ATOM     13  C   UNL     1       2.629   3.129  20.204  0.00  0.00    +0.000 A 
ATOM     14  C   UNL     1       2.038   4.400  20.160  0.00  0.00    +0.000 A 
BRANCH  12  15
ATOM     15  C   UNL     1       4.663   1.658  19.857  0.00  0.00    +0.000 C 
ATOM     16  O   UNL     1       5.399   1.371  20.785  0.00  0.00    +0.000 OA
BRANCH  15  17
ATOM     17  O   UNL     1       4.453   0.839  18.804  0.00  0.00    +0.000 OA
ATOM     18  H   UNL     1       3.881   1.199  18.104  0.00  0.00    +0.000 HD
ENDBRANCH  15  17
ENDBRANCH  12  15
ENDBRANCH   4   9
BRANCH   8  19
ATOM     19  C   UNL     1       0.807  11.244  19.229  0.00  0.00    +0.000 A 
ATOM     20  C   UNL     1       1.291  12.543  19.221  0.00  0.00    +0.000 A 
ATOM     21  C   UNL     1       0.344  13.355  19.877  0.00  0.00    +0.000 A 
ATOM     22  C   UNL     1      -0.702  12.534  20.238  0.00  0.00    +0.000 A 
ATOM     23  O   UNL     1      -0.414  11.252  19.862  0.00  0.00    +0.000 OA
BRANCH  22  24
ATOM     24  C   UNL     1      -1.999  12.769  20.868  0.00  0.00    +0.000 A 
ATOM     25  C   UNL     1      -2.062  13.109  22.231  0.00  0.00    +0.000 A 
ATOM     26  C   UNL     1      -3.279  13.421  22.841  0.00  0.00    +0.000 A 
ATOM     27  C   UNL     1      -4.450  13.403  22.084  0.00  0.00    +0.000 A 
ATOM     28  C   UNL     1      -4.421  13.026  20.741  0.00  0.00    +0.000 A 
ATOM     29  C   UNL     1      -3.198  12.715  20.137  0.00  0.00    +0.000 A 
BRANCH  27  30
ATOM     30  S   UNL     1      -5.979  13.868  22.842  0.00  0.00    +0.000 S 
ATOM     31  O   UNL     1      -5.726  14.864  23.853  0.00  0.00    +0.000 OA
ATOM     32  O   UNL     1      -6.984  14.036  21.816  0.00  0.00    +0.000 OA
BRANCH  30  33
ATOM     33  N   UNL     1      -6.380  12.460  23.660  0.00  0.00    +0.000 NA
ATOM     34  H   UNL     1      -5.603  11.800  23.624  0.00  0.00    +0.000 HD
ATOM     35  H   UNL     1      -6.696  12.679  24.605  0.00  0.00    +0.000 HD
ENDBRANCH  30  33
ENDBRANCH  27  30
ENDBRANCH  22  24
ENDBRANCH   8  19
TORSDOF 7
ENDMDL
MODEL 9
REMARK VINA RESULT:      -8.0      1.485      1.843
REMARK  Name = 
REMARK  8 active torsions:
REMARK  status: ('A' for Active; 'I' for Inactive)
REMARK    1  A    between atoms: C_1  and  C_2
REMARK    2  A    between atoms: N_4  and  C_5
REMARK    3  A    between atoms: C_8  and  C_9
REMARK    4  A    between atoms: C_9  and  O_11
REMARK    5  A    between atoms: C_17  and  C_18
REMARK    6  A    between atoms: C_21  and  C_22
REMARK    7  A    between atoms: C_25  and  S_26
REMARK    8  A    between atoms: S_26  and  N_27
REMARK                            x       y       z     vdW  Elec       q    Type
REMARK                         _______ _______ _______ _____ _____    ______ ____
ROOT
ATOM      1  C   UNL     1       0.561   9.653  22.163  0.00  0.00    +0.000 C 
ATOM      2  C   UNL     1       1.049   9.283  20.803  0.00  0.00    +0.000 C 
ATOM      3  N   UNL     1       1.553   8.108  20.523  0.00  0.00    +0.000 NA
ATOM      4  N   UNL     1       1.948   8.156  19.187  0.00  0.00    +0.000 N 
ATOM      5  C   UNL     1       1.697   9.388  18.561  0.00  0.00    +0.000 C 
ATOM      6  O   UNL     1       1.931   9.794  17.438  0.00  0.00    +0.000 OA
ATOM      7  C   UNL     1       1.056  10.178  19.637  0.00  0.00    +0.000 C 
ATOM      8  C   UNL     1       0.659  11.435  19.415  0.00  0.00    +0.000 C 
ENDROOT
BRANCH   4   9
ATOM      9  C   UNL     1       2.635   7.042  18.645  0.00  0.00    +0.000 A 
ATOM     10  C   UNL     1       2.208   5.730  18.883  0.00  0.00    +0.000 A 
ATOM     11  C   UNL     1       2.858   4.641  18.291  0.00  0.00    +0.000 A 
ATOM     12  C   UNL     1       3.968   4.841  17.465  0.00  0.00    +0.000 A 
ATOM     13  C   UNL     1       4.418   6.144  17.228  0.00  0.00    +0.000 A 
ATOM     14  C   UNL     1       3.753   7.231  17.815  0.00  0.00    +0.000 A 
BRANCH  12  15
ATOM     15  C   UNL     1       4.575   3.648  16.822  0.00  0.00    +0.000 C 
ATOM     16  O   UNL     1       5.183   3.707  15.768  0.00  0.00    +0.000 OA
BRANCH  15  17
ATOM     17  O   UNL     1       4.367   2.492  17.487  0.00  0.00    +0.000 OA
ATOM     18  H   UNL     1       5.163   2.081  17.868  0.00  0.00    +0.000 HD
ENDBRANCH  15  17
ENDBRANCH  12  15
ENDBRANCH   4   9
BRANCH   8  19
ATOM     19  C   UNL     1       0.140  12.272  20.427  0.00  0.00    +0.000 A 
ATOM     20  C   UNL     1       0.825  13.177  21.222  0.00  0.00    +0.000 A 
ATOM     21  C   UNL     1      -0.117  13.807  22.060  0.00  0.00    +0.000 A 
ATOM     22  C   UNL     1      -1.351  13.289  21.731  0.00  0.00    +0.000 A 
ATOM     23  O   UNL     1      -1.194  12.346  20.754  0.00  0.00    +0.000 OA
BRANCH  22  24
ATOM     24  C   UNL     1      -2.715  13.573  22.172  0.00  0.00    +0.000 A 
ATOM     25  C   UNL     1      -3.341  14.769  21.780  0.00  0.00    +0.000 A 
ATOM     26  C   UNL     1      -4.671  15.031  22.115  0.00  0.00    +0.000 A 
ATOM     27  C   UNL     1      -5.393  14.086  22.845  0.00  0.00    +0.000 A 
ATOM     28  C   UNL     1      -4.782  12.911  23.285  0.00  0.00    +0.000 A 
ATOM     29  C   UNL     1      -3.448  12.657  22.944  0.00  0.00    +0.000 A 
BRANCH  27  30
ATOM     30  S   UNL     1      -7.097  14.388  23.207  0.00  0.00    +0.000 S 
ATOM     31  O   UNL     1      -7.270  15.773  23.566  0.00  0.00    +0.000 OA
ATOM     32  O   UNL     1      -7.917  13.731  22.213  0.00  0.00    +0.000 OA
BRANCH  30  33
ATOM     33  N   UNL     1      -7.291  13.510  24.623  0.00  0.00    +0.000 NA
ATOM     34  H   UNL     1      -7.830  14.050  25.300  0.00  0.00    +0.000 HD
ATOM     35  H   UNL     1      -7.684  12.591  24.418  0.00  0.00    +0.000 HD
ENDBRANCH  30  33
ENDBRANCH  27  30
ENDBRANCH  22  24
ENDBRANCH   8  19
TORSDOF 7
ENDMDL
