MODEL 1
REMARK VINA RESULT:      -8.9      0.000      0.000
REMARK  Name = 
REMARK  9 active torsions:
REMARK  status: ('A' for Active; 'I' for Inactive)
REMARK    1  A    between atoms: C_1  and  C_2
REMARK    2  A    between atoms: C_2  and  O_3
REMARK    3  A    between atoms: C_2  and  C_4
REMARK    4  A    between atoms: C_2  and  C_26
REMARK    5  A    between atoms: C_7  and  N_8
REMARK    6  A    between atoms: N_8  and  C_9
REMARK    7  A    between atoms: N_8  and  S_14
REMARK    8  A    between atoms: C_9  and  C_10
REMARK    9  A    between atoms: S_14  and  C_17
REMARK                            x       y       z     vdW  Elec       q    Type
REMARK                         _______ _______ _______ _____ _____    ______ ____
ROOT
ATOM      1  N   UNL     1       3.050   4.954  18.860  0.00  0.00    +0.000 N 
ENDROOT
BRANCH   1   5
ATOM      2  C   UNL     1       1.683   8.961  18.936  0.00  0.00    +0.000 A 
ATOM      3  C   UNL     1       2.336   8.428  17.810  0.00  0.00    +0.000 A 
ATOM      4  C   UNL     1       2.830   7.127  17.805  0.00  0.00    +0.000 A 
ATOM      5  C   UNL     1       2.697   6.328  18.942  0.00  0.00    +0.000 A 
ATOM      6  C   UNL     1       2.110   6.849  20.094  0.00  0.00    +0.000 A 
ATOM      7  C   UNL     1       1.614   8.162  20.093  0.00  0.00    +0.000 A 
BRANCH   2   9
ATOM      8  C   UNL     1       1.098  11.016  20.220  0.00  0.00    +0.000 C 
ATOM      9  C   UNL     1       1.020  10.346  18.829  0.00  0.00    +0.000 C 
BRANCH   9  10
ATOM     10  C   UNL     1      -0.480  10.298  18.357  0.00  0.00    +0.000 C 
ATOM     11  F   UNL     1      -1.293   9.816  19.333  0.00  0.00    +0.000 F 
ATOM     12  F   UNL     1      -0.956  11.525  18.032  0.00  0.00    +0.000 F 
ATOM     13  F   UNL     1      -0.671   9.507  17.276  0.00  0.00    +0.000 F 
ENDBRANCH   9  10
BRANCH   9  14
ATOM     14  O   UNL     1       1.805  11.190  17.952  0.00  0.00    +0.000 OA
ATOM     15  H   UNL     1       2.712  11.224  18.302  0.00  0.00    +0.000 HD
ENDBRANCH   9  14
ENDBRANCH   2   9
ENDBRANCH   1   5
BRANCH   1  16
ATOM     16  S   UNL     1       4.651   4.442  19.026  0.00  0.00    +0.000 S 
ATOM     17  O   UNL     1       5.325   5.324  19.952  0.00  0.00    +0.000 OA
ATOM     18  O   UNL     1       4.586   3.023  19.324  0.00  0.00    +0.000 OA
BRANCH  16  19
ATOM     19  C   UNL     1       5.416   4.595  17.419  0.00  0.00    +0.000 A 
ATOM     20  C   UNL     1       4.644   4.253  16.291  0.00  0.00    +0.000 A 
ATOM     21  C   UNL     1       5.198   4.261  15.009  0.00  0.00    +0.000 A 
ATOM     22  C   UNL     1       6.542   4.570  14.841  0.00  0.00    +0.000 A 
ATOM     23  C   UNL     1       7.321   4.885  15.955  0.00  0.00    +0.000 A 
ATOM     24  C   UNL     1       6.769   4.901  17.247  0.00  0.00    +0.000 A 
ATOM     25 CL   UNL     1       7.854   5.336  18.515  0.00  0.00    +0.000 Cl
ENDBRANCH  16  19
ENDBRANCH   1  16
BRANCH   1  26
ATOM     26  C   UNL     1       2.019   3.991  18.362  0.00  0.00    +0.000 C 
BRANCH  26  27
ATOM     27  C   UNL     1       1.156   3.323  19.432  0.00  0.00    +0.000 C 
ATOM     28  F   UNL     1       0.442   4.207  20.161  0.00  0.00    +0.000 F 
ATOM     29  F   UNL     1       0.293   2.430  18.904  0.00  0.00    +0.000 F 
ATOM     30  F   UNL     1       1.938   2.648  20.312  0.00  0.00    +0.000 F 
ENDBRANCH  26  27
ENDBRANCH   1  26
TORSDOF 8
ENDMDL
MODEL 2
REMARK VINA RESULT:      -8.5      1.037      1.378
REMARK  Name = 
REMARK  9 active torsions:
REMARK  status: ('A' for Active; 'I' for Inactive)
REMARK    1  A    between atoms: C_1  and  C_2
REMARK    2  A    between atoms: C_2  and  O_3
REMARK    3  A    between atoms: C_2  and  C_4
REMARK    4  A    between atoms: C_2  and  C_26
REMARK    5  A    between atoms: C_7  and  N_8
REMARK    6  A    between atoms: N_8  and  C_9
REMARK    7  A    between atoms: N_8  and  S_14
REMARK    8  A    between atoms: C_9  and  C_10
REMARK    9  A    between atoms: S_14  and  C_17
REMARK                            x       y       z     vdW  Elec       q    Type
REMARK                         _______ _______ _______ _____ _____    ______ ____
ROOT
ATOM      1  N   UNL     1       3.373   4.954  19.041  0.00  0.00    +0.000 N 
ENDROOT
BRANCH   1   5
ATOM      2  C   UNL     1       1.720   8.852  18.929  0.00  0.00    +0.000 A 
ATOM      3  C   UNL     1       2.476   8.343  17.858  0.00  0.00    +0.000 A 
ATOM      4  C   UNL     1       3.061   7.081  17.918  0.00  0.00    +0.000 A 
ATOM      5  C   UNL     1       2.918   6.301  19.066  0.00  0.00    +0.000 A 
ATOM      6  C   UNL     1       2.226   6.802  20.167  0.00  0.00    +0.000 A 
ATOM      7  C   UNL     1       1.639   8.076  20.102  0.00  0.00    +0.000 A 
BRANCH   2   9
ATOM      8  C   UNL     1       1.986  11.238  18.259  0.00  0.00    +0.000 C 
ATOM      9  C   UNL     1       0.967  10.182  18.747  0.00  0.00    +0.000 C 
BRANCH   9  10
ATOM     10  C   UNL     1       0.267  10.700  20.057  0.00  0.00    +0.000 C 
ATOM     11  F   UNL     1      -0.330  11.905  19.858  0.00  0.00    +0.000 F 
ATOM     12  F   UNL     1      -0.704   9.858  20.487  0.00  0.00    +0.000 F 
ATOM     13  F   UNL     1       1.127  10.865  21.089  0.00  0.00    +0.000 F 
ENDBRANCH   9  10
BRANCH   9  14
ATOM     14  O   UNL     1       0.007  10.049  17.671  0.00  0.00    +0.000 OA
ATOM     15  H   UNL     1      -0.795   9.637  18.035  0.00  0.00    +0.000 HD
ENDBRANCH   9  14
ENDBRANCH   2   9
ENDBRANCH   1   5
BRANCH   1  16
ATOM     16  S   UNL     1       5.020   4.578  19.039  0.00  0.00    +0.000 S 
ATOM     17  O   UNL     1       5.717   5.553  19.848  0.00  0.00    +0.000 OA
ATOM     18  O   UNL     1       5.108   3.175  19.395  0.00  0.00    +0.000 OA
BRANCH  16  19
ATOM     19  C   UNL     1       5.584   4.717  17.350  0.00  0.00    +0.000 A 
ATOM     20  C   UNL     1       4.900   3.972  16.368  0.00  0.00    +0.000 A 
ATOM     21  C   UNL     1       5.335   3.958  15.042  0.00  0.00    +0.000 A 
ATOM     22  C   UNL     1       6.483   4.654  14.686  0.00  0.00    +0.000 A 
ATOM     23  C   UNL     1       7.182   5.374  15.655  0.00  0.00    +0.000 A 
ATOM     24  C   UNL     1       6.741   5.413  16.989  0.00  0.00    +0.000 A 
ATOM     25 CL   UNL     1       7.696   6.368  18.061  0.00  0.00    +0.000 Cl
ENDBRANCH  16  19
ENDBRANCH   1  16
BRANCH   1  26
ATOM     26  C   UNL     1       2.374   3.878  18.751  0.00  0.00    +0.000 C 
BRANCH  26  27
ATOM     27  C   UNL     1       1.621   3.323  19.960  0.00  0.00    +0.000 C 
ATOM     28  F   UNL     1       0.426   3.919  20.156  0.00  0.00    +0.000 F 
ATOM     29  F   UNL     1       1.408   1.994  19.857  0.00  0.00    +0.000 F 
ATOM     30  F   UNL     1       2.338   3.525  21.094  0.00  0.00    +0.000 F 
ENDBRANCH  26  27
ENDBRANCH   1  26
TORSDOF 8
ENDMDL
MODEL 3
REMARK VINA RESULT:      -8.3      1.542      2.140
REMARK  Name = 
REMARK  9 active torsions:
REMARK  status: ('A' for Active; 'I' for Inactive)
REMARK    1  A    between atoms: C_1  and  C_2
REMARK    2  A    between atoms: C_2  and  O_3
REMARK    3  A    between atoms: C_2  and  C_4
REMARK    4  A    between atoms: C_2  and  C_26
REMARK    5  A    between atoms: C_7  and  N_8
REMARK    6  A    between atoms: N_8  and  C_9
REMARK    7  A    between atoms: N_8  and  S_14
REMARK    8  A    between atoms: C_9  and  C_10
REMARK    9  A    between atoms: S_14  and  C_17
REMARK                            x       y       z     vdW  Elec       q    Type
REMARK                         _______ _______ _______ _____ _____    ______ ____
ROOT
ATOM      1  N   UNL     1       3.072   5.213  19.578  0.00  0.00    +0.000 N 
ENDROOT
BRANCH   1   5
ATOM      2  C   UNL     1       1.509   9.121  19.109  0.00  0.00    +0.000 A 
ATOM      3  C   UNL     1       2.188   8.471  18.064  0.00  0.00    +0.000 A 
ATOM      4  C   UNL     1       2.746   7.207  18.235  0.00  0.00    +0.000 A 
ATOM      5  C   UNL     1       2.652   6.567  19.472  0.00  0.00    +0.000 A 
ATOM      6  C   UNL     1       2.038   7.212  20.545  0.00  0.00    +0.000 A 
ATOM      7  C   UNL     1       1.478   8.487  20.366  0.00  0.00    +0.000 A 
BRANCH   2   9
ATOM      8  C   UNL     1       0.810  11.296  20.106  0.00  0.00    +0.000 C 
ATOM      9  C   UNL     1       0.778  10.444  18.816  0.00  0.00    +0.000 C 
BRANCH   9  10
ATOM     10  C   UNL     1      -0.713  10.257  18.352  0.00  0.00    +0.000 C 
ATOM     11  F   UNL     1      -0.792   9.506  17.222  0.00  0.00    +0.000 F 
ATOM     12  F   UNL     1      -1.466   9.625  19.286  0.00  0.00    +0.000 F 
ATOM     13  F   UNL     1      -1.335  11.427  18.078  0.00  0.00    +0.000 F 
ENDBRANCH   9  10
BRANCH   9  14
ATOM     14  O   UNL     1       1.528  11.202  17.836  0.00  0.00    +0.000 OA
ATOM     15  H   UNL     1       2.473  11.024  17.979  0.00  0.00    +0.000 HD
ENDBRANCH   9  14
ENDBRANCH   2   9
ENDBRANCH   1   5
BRANCH   1  16
ATOM     16  S   UNL     1       3.954   4.465  18.346  0.00  0.00    +0.000 S 
ATOM     17  O   UNL     1       4.153   3.076  18.698  0.00  0.00    +0.000 OA
ATOM     18  O   UNL     1       3.264   4.787  17.111  0.00  0.00    +0.000 OA
BRANCH  16  19
ATOM     19  C   UNL     1       5.542   5.278  18.275  0.00  0.00    +0.000 A 
ATOM     20  C   UNL     1       6.360   5.219  19.421  0.00  0.00    +0.000 A 
ATOM     21  C   UNL     1       7.576   5.904  19.474  0.00  0.00    +0.000 A 
ATOM     22  C   UNL     1       7.972   6.690  18.399  0.00  0.00    +0.000 A 
ATOM     23  C   UNL     1       7.157   6.775  17.270  0.00  0.00    +0.000 A 
ATOM     24  C   UNL     1       5.941   6.074  17.197  0.00  0.00    +0.000 A 
ATOM     25 CL   UNL     1       5.062   6.259  15.725  0.00  0.00    +0.000 Cl
ENDBRANCH  16  19
ENDBRANCH   1  16
BRANCH   1  26
ATOM     26  C   UNL     1       2.497   4.381  20.680  0.00  0.00    +0.000 C 
BRANCH  26  27
ATOM     27  C   UNL     1       1.144   3.731  20.391  0.00  0.00    +0.000 C 
ATOM     28  F   UNL     1       0.119   4.608  20.435  0.00  0.00    +0.000 F 
ATOM     29  F   UNL     1       1.120   3.127  19.184  0.00  0.00    +0.000 F 
ATOM     30  F   UNL     1       0.871   2.779  21.318  0.00  0.00    +0.000 F 
ENDBRANCH  26  27
ENDBRANCH   1  26
TORSDOF 8
ENDMDL
MODEL 4
REMARK VINA RESULT:      -8.3      0.669      1.385
REMARK  Name = 
REMARK  9 active torsions:
REMARK  status: ('A' for Active; 'I' for Inactive)
REMARK    1  A    between atoms: C_1  and  C_2
REMARK    2  A    between atoms: C_2  and  O_3
REMARK    3  A    between atoms: C_2  and  C_4
REMARK    4  A    between atoms: C_2  and  C_26
REMARK    5  A    between atoms: C_7  and  N_8
REMARK    6  A    between atoms: N_8  and  C_9
REMARK    7  A    between atoms: N_8  and  S_14
REMARK    8  A    between atoms: C_9  and  C_10
REMARK    9  A    between atoms: S_14  and  C_17
REMARK                            x       y       z     vdW  Elec       q    Type
REMARK                         _______ _______ _______ _____ _____    ______ ____
ROOT
ATOM      1  N   UNL     1       3.320   4.845  19.128  0.00  0.00    +0.000 N 
ENDROOT
BRANCH   1   5
ATOM      2  C   UNL     1       1.623   8.715  18.855  0.00  0.00    +0.000 A 
ATOM      3  C   UNL     1       1.608   7.989  20.059  0.00  0.00    +0.000 A 
ATOM      4  C   UNL     1       2.120   6.697  20.134  0.00  0.00    +0.000 A 
ATOM      5  C   UNL     1       2.648   6.090  18.993  0.00  0.00    +0.000 A 
ATOM      6  C   UNL     1       2.622   6.761  17.772  0.00  0.00    +0.000 A 
ATOM      7  C   UNL     1       2.103   8.064  17.702  0.00  0.00    +0.000 A 
BRANCH   2   9
ATOM      8  C   UNL     1       1.420  10.740  20.294  0.00  0.00    +0.000 C 
ATOM      9  C   UNL     1       1.189  10.192  18.867  0.00  0.00    +0.000 C 
BRANCH   9  10
ATOM     10  C   UNL     1      -0.315  10.415  18.461  0.00  0.00    +0.000 C 
ATOM     11  F   UNL     1      -0.649   9.682  17.367  0.00  0.00    +0.000 F 
ATOM     12  F   UNL     1      -1.172  10.049  19.445  0.00  0.00    +0.000 F 
ATOM     13  F   UNL     1      -0.597  11.704  18.158  0.00  0.00    +0.000 F 
ENDBRANCH   9  10
BRANCH   9  14
ATOM     14  O   UNL     1       2.069  10.961  18.013  0.00  0.00    +0.000 OA
ATOM     15  H   UNL     1       2.978  10.651  18.163  0.00  0.00    +0.000 HD
ENDBRANCH   9  14
ENDBRANCH   2   9
ENDBRANCH   1   5
BRANCH   1  16
ATOM     16  S   UNL     1       5.006   4.743  19.080  0.00  0.00    +0.000 S 
ATOM     17  O   UNL     1       5.559   5.881  19.781  0.00  0.00    +0.000 OA
ATOM     18  O   UNL     1       5.336   3.406  19.536  0.00  0.00    +0.000 OA
BRANCH  16  19
ATOM     19  C   UNL     1       5.484   4.832  17.361  0.00  0.00    +0.000 A 
ATOM     20  C   UNL     1       4.749   4.063  16.436  0.00  0.00    +0.000 A 
ATOM     21  C   UNL     1       5.118   4.011  15.091  0.00  0.00    +0.000 A 
ATOM     22  C   UNL     1       6.248   4.693  14.658  0.00  0.00    +0.000 A 
ATOM     23  C   UNL     1       6.996   5.437  15.570  0.00  0.00    +0.000 A 
ATOM     24  C   UNL     1       6.623   5.514  16.923  0.00  0.00    +0.000 A 
ATOM     25 CL   UNL     1       7.633   6.495  17.919  0.00  0.00    +0.000 Cl
ENDBRANCH  16  19
ENDBRANCH   1  16
BRANCH   1  26
ATOM     26  C   UNL     1       2.506   3.592  19.052  0.00  0.00    +0.000 C 
BRANCH  26  27
ATOM     27  C   UNL     1       1.749   3.209  20.323  0.00  0.00    +0.000 C 
ATOM     28  F   UNL     1       2.404   3.555  21.451  0.00  0.00    +0.000 F 
ATOM     29  F   UNL     1       0.522   3.769  20.370  0.00  0.00    +0.000 F 
ATOM     30  F   UNL     1       1.575   1.864  20.380  0.00  0.00    +0.000 F 
ENDBRANCH  26  27
ENDBRANCH   1  26
TORSDOF 8
ENDMDL
MODEL 5
REMARK VINA RESULT:      -8.2      1.537      2.426
REMARK  Name = 
REMARK  9 active torsions:
REMARK  status: ('A' for Active; 'I' for Inactive)
REMARK    1  A    between atoms: C_1  and  C_2
REMARK    2  A    between atoms: C_2  and  O_3
REMARK    3  A    between atoms: C_2  and  C_4
REMARK    4  A    between atoms: C_2  and  C_26
REMARK    5  A    between atoms: C_7  and  N_8
REMARK    6  A    between atoms: N_8  and  C_9
REMARK    7  A    between atoms: N_8  and  S_14
REMARK    8  A    between atoms: C_9  and  C_10
REMARK    9  A    between atoms: S_14  and  C_17
REMARK                            x       y       z     vdW  Elec       q    Type
REMARK                         _______ _______ _______ _____ _____    ______ ____
ROOT
ATOM      1  N   UNL     1       3.180   5.026  19.569  0.00  0.00    +0.000 N 
ENDROOT
BRANCH   1   5
ATOM      2  C   UNL     1       1.494   8.867  18.989  0.00  0.00    +0.000 A 
ATOM      3  C   UNL     1       1.451   8.226  20.240  0.00  0.00    +0.000 A 
ATOM      4  C   UNL     1       1.960   6.943  20.417  0.00  0.00    +0.000 A 
ATOM      5  C   UNL     1       2.512   6.258  19.333  0.00  0.00    +0.000 A 
ATOM      6  C   UNL     1       2.514   6.842  18.068  0.00  0.00    +0.000 A 
ATOM      7  C   UNL     1       1.998   8.136  17.895  0.00  0.00    +0.000 A 
BRANCH   2   9
ATOM      8  C   UNL     1       1.278  10.992  20.274  0.00  0.00    +0.000 C 
ATOM      9  C   UNL     1       1.061  10.341  18.889  0.00  0.00    +0.000 C 
BRANCH   9  10
ATOM     10  C   UNL     1      -0.438  10.534  18.452  0.00  0.00    +0.000 C 
ATOM     11  F   UNL     1      -0.742   9.775  17.367  0.00  0.00    +0.000 F 
ATOM     12  F   UNL     1      -1.307  10.174  19.428  0.00  0.00    +0.000 F 
ATOM     13  F   UNL     1      -0.733  11.812  18.119  0.00  0.00    +0.000 F 
ENDBRANCH   9  10
BRANCH   9  14
ATOM     14  O   UNL     1       1.951  11.044  17.990  0.00  0.00    +0.000 OA
ATOM     15  H   UNL     1       1.443  11.752  17.558  0.00  0.00    +0.000 HD
ENDBRANCH   9  14
ENDBRANCH   2   9
ENDBRANCH   1   5
BRANCH   1  16
ATOM     16  S   UNL     1       4.131   4.295  18.380  0.00  0.00    +0.000 S 
ATOM     17  O   UNL     1       4.426   2.940  18.791  0.00  0.00    +0.000 OA
ATOM     18  O   UNL     1       3.437   4.515  17.125  0.00  0.00    +0.000 OA
BRANCH  16  19
ATOM     19  C   UNL     1       5.657   5.219  18.292  0.00  0.00    +0.000 A 
ATOM     20  C   UNL     1       6.496   5.206  19.424  0.00  0.00    +0.000 A 
ATOM     21  C   UNL     1       7.661   5.975  19.466  0.00  0.00    +0.000 A 
ATOM     22  C   UNL     1       7.983   6.798  18.394  0.00  0.00    +0.000 A 
ATOM     23  C   UNL     1       7.145   6.837  17.279  0.00  0.00    +0.000 A 
ATOM     24  C   UNL     1       5.981   6.052  17.217  0.00  0.00    +0.000 A 
ATOM     25 CL   UNL     1       5.067   6.189  15.761  0.00  0.00    +0.000 Cl
ENDBRANCH  16  19
ENDBRANCH   1  16
BRANCH   1  26
ATOM     26  C   UNL     1       2.818   4.252  20.798  0.00  0.00    +0.000 C 
BRANCH  26  27
ATOM     27  C   UNL     1       1.569   3.379  20.694  0.00  0.00    +0.000 C 
ATOM     28  F   UNL     1       1.711   2.358  19.822  0.00  0.00    +0.000 F 
ATOM     29  F   UNL     1       1.214   2.857  21.887  0.00  0.00    +0.000 F 
ATOM     30  F   UNL     1       0.517   4.113  20.251  0.00  0.00    +0.000 F 
ENDBRANCH  26  27
ENDBRANCH   1  26
TORSDOF 8
ENDMDL
MODEL 6
REMARK VINA RESULT:      -8.2      1.172      1.549
REMARK  Name = 
REMARK  9 active torsions:
REMARK  status: ('A' for Active; 'I' for Inactive)
REMARK    1  A    between atoms: C_1  and  C_2
REMARK    2  A    between atoms: C_2  and  O_3
REMARK    3  A    between atoms: C_2  and  C_4
REMARK    4  A    between atoms: C_2  and  C_26
REMARK    5  A    between atoms: C_7  and  N_8
REMARK    6  A    between atoms: N_8  and  C_9
REMARK    7  A    between atoms: N_8  and  S_14
REMARK    8  A    between atoms: C_9  and  C_10
REMARK    9  A    between atoms: S_14  and  C_17
REMARK                            x       y       z     vdW  Elec       q    Type
REMARK                         _______ _______ _______ _____ _____    ______ ____
ROOT
ATOM      1  N   UNL     1       2.923   4.642  19.307  0.00  0.00    +0.000 N 
ENDROOT
BRANCH   1   5
ATOM      2  C   UNL     1       1.774   8.692  18.855  0.00  0.00    +0.000 A 
ATOM      3  C   UNL     1       2.343   7.967  17.794  0.00  0.00    +0.000 A 
ATOM      4  C   UNL     1       2.767   6.651  17.958  0.00  0.00    +0.000 A 
ATOM      5  C   UNL     1       2.648   6.032  19.204  0.00  0.00    +0.000 A 
ATOM      6  C   UNL     1       2.145   6.745  20.290  0.00  0.00    +0.000 A 
ATOM      7  C   UNL     1       1.719   8.072  20.118  0.00  0.00    +0.000 A 
BRANCH   2   9
ATOM      8  C   UNL     1       1.431  10.965  19.822  0.00  0.00    +0.000 C 
ATOM      9  C   UNL     1       1.181  10.085  18.575  0.00  0.00    +0.000 C 
BRANCH   9  10
ATOM     10  C   UNL     1      -0.359  10.065  18.251  0.00  0.00    +0.000 C 
ATOM     11  F   UNL     1      -1.083   9.605  19.305  0.00  0.00    +0.000 F 
ATOM     12  F   UNL     1      -0.838  11.301  17.966  0.00  0.00    +0.000 F 
ATOM     13  F   UNL     1      -0.670   9.273  17.199  0.00  0.00    +0.000 F 
ENDBRANCH   9  10
BRANCH   9  14
ATOM     14  O   UNL     1       1.921  10.718  17.504  0.00  0.00    +0.000 OA
ATOM     15  H   UNL     1       2.839  10.835  17.802  0.00  0.00    +0.000 HD
ENDBRANCH   9  14
ENDBRANCH   2   9
ENDBRANCH   1   5
BRANCH   1  16
ATOM     16  S   UNL     1       3.280   3.709  17.945  0.00  0.00    +0.000 S 
ATOM     17  O   UNL     1       3.665   2.384  18.380  0.00  0.00    +0.000 OA
ATOM     18  O   UNL     1       2.145   3.856  17.054  0.00  0.00    +0.000 OA
BRANCH  16  19
ATOM     19  C   UNL     1       4.673   4.481  17.136  0.00  0.00    +0.000 A 
ATOM     20  C   UNL     1       4.665   4.532  15.727  0.00  0.00    +0.000 A 
ATOM     21  C   UNL     1       5.757   5.039  15.019  0.00  0.00    +0.000 A 
ATOM     22  C   UNL     1       6.888   5.463  15.706  0.00  0.00    +0.000 A 
ATOM     23  C   UNL     1       6.915   5.392  17.099  0.00  0.00    +0.000 A 
ATOM     24  C   UNL     1       5.814   4.904  17.823  0.00  0.00    +0.000 A 
ATOM     25 CL   UNL     1       5.991   4.906  19.539  0.00  0.00    +0.000 Cl
ENDBRANCH  16  19
ENDBRANCH   1  16
BRANCH   1  26
ATOM     26  C   UNL     1       2.636   3.961  20.609  0.00  0.00    +0.000 C 
BRANCH  26  27
ATOM     27  C   UNL     1       1.287   3.249  20.706  0.00  0.00    +0.000 C 
ATOM     28  F   UNL     1       1.210   2.157  19.917  0.00  0.00    +0.000 F 
ATOM     29  F   UNL     1       1.006   2.866  21.970  0.00  0.00    +0.000 F 
ATOM     30  F   UNL     1       0.288   4.077  20.309  0.00  0.00    +0.000 F 
ENDBRANCH  26  27
ENDBRANCH   1  26
TORSDOF 8
ENDMDL
MODEL 7
REMARK VINA RESULT:      -8.2      1.286      1.561
REMARK  Name = 
REMARK  9 active torsions:
REMARK  status: ('A' for Active; 'I' for Inactive)
REMARK    1  A    between atoms: C_1  and  C_2
REMARK    2  A    between atoms: C_2  and  O_3
REMARK    3  A    between atoms: C_2  and  C_4
REMARK    4  A    between atoms: C_2  and  C_26
REMARK    5  A    between atoms: C_7  and  N_8
REMARK    6  A    between atoms: N_8  and  C_9
REMARK    7  A    between atoms: N_8  and  S_14
REMARK    8  A    between atoms: C_9  and  C_10
REMARK    9  A    between atoms: S_14  and  C_17
REMARK                            x       y       z     vdW  Elec       q    Type
REMARK                         _______ _______ _______ _____ _____    ______ ____
ROOT
ATOM      1  N   UNL     1       3.284   5.004  19.028  0.00  0.00    +0.000 N 
ENDROOT
BRANCH   1   5
ATOM      2  C   UNL     1       1.444   8.817  19.120  0.00  0.00    +0.000 A 
ATOM      3  C   UNL     1       2.027   8.311  17.945  0.00  0.00    +0.000 A 
ATOM      4  C   UNL     1       2.676   7.079  17.929  0.00  0.00    +0.000 A 
ATOM      5  C   UNL     1       2.774   6.329  19.102  0.00  0.00    +0.000 A 
ATOM      6  C   UNL     1       2.260   6.832  20.296  0.00  0.00    +0.000 A 
ATOM      7  C   UNL     1       1.607   8.075  20.306  0.00  0.00    +0.000 A 
BRANCH   2   9
ATOM      8  C   UNL     1      -0.389   9.952  17.868  0.00  0.00    +0.000 C 
ATOM      9  C   UNL     1       0.606  10.106  19.042  0.00  0.00    +0.000 C 
BRANCH   9  10
ATOM     10  C   UNL     1       1.462  11.409  18.832  0.00  0.00    +0.000 C 
ATOM     11  F   UNL     1       0.727  12.400  18.261  0.00  0.00    +0.000 F 
ATOM     12  F   UNL     1       1.935  11.907  20.001  0.00  0.00    +0.000 F 
ATOM     13  F   UNL     1       2.533  11.216  18.028  0.00  0.00    +0.000 F 
ENDBRANCH   9  10
BRANCH   9  14
ATOM     14  O   UNL     1      -0.216  10.219  20.229  0.00  0.00    +0.000 OA
ATOM     15  H   UNL     1      -0.196   9.363  20.690  0.00  0.00    +0.000 HD
ENDBRANCH   9  14
ENDBRANCH   2   9
ENDBRANCH   1   5
BRANCH   1  16
ATOM     16  S   UNL     1       4.945   4.697  19.022  0.00  0.00    +0.000 S 
ATOM     17  O   UNL     1       5.606   5.711  19.814  0.00  0.00    +0.000 OA
ATOM     18  O   UNL     1       5.093   3.303  19.397  0.00  0.00    +0.000 OA
BRANCH  16  19
ATOM     19  C   UNL     1       5.495   4.835  17.328  0.00  0.00    +0.000 A 
ATOM     20  C   UNL     1       4.795   4.099  16.351  0.00  0.00    +0.000 A 
ATOM     21  C   UNL     1       5.219   4.084  15.021  0.00  0.00    +0.000 A 
ATOM     22  C   UNL     1       6.369   4.771  14.655  0.00  0.00    +0.000 A 
ATOM     23  C   UNL     1       7.083   5.482  15.620  0.00  0.00    +0.000 A 
ATOM     24  C   UNL     1       6.655   5.521  16.958  0.00  0.00    +0.000 A 
ATOM     25 CL   UNL     1       7.629   6.465  18.024  0.00  0.00    +0.000 Cl
ENDBRANCH  16  19
ENDBRANCH   1  16
BRANCH   1  26
ATOM     26  C   UNL     1       2.332   3.900  18.690  0.00  0.00    +0.000 C 
BRANCH  26  27
ATOM     27  C   UNL     1       1.602   3.263  19.872  0.00  0.00    +0.000 C 
ATOM     28  F   UNL     1       0.410   3.842  20.128  0.00  0.00    +0.000 F 
ATOM     29  F   UNL     1       1.388   1.944  19.684  0.00  0.00    +0.000 F 
ATOM     30  F   UNL     1       2.338   3.391  21.004  0.00  0.00    +0.000 F 
ENDBRANCH  26  27
ENDBRANCH   1  26
TORSDOF 8
ENDMDL
MODEL 8
REMARK VINA RESULT:      -8.2      0.597      1.315
REMARK  Name = 
REMARK  9 active torsions:
REMARK  status: ('A' for Active; 'I' for Inactive)
REMARK    1  A    between atoms: C_1  and  C_2
REMARK    2  A    between atoms: C_2  and  O_3
REMARK    3  A    between atoms: C_2  and  C_4
REMARK    4  A    between atoms: C_2  and  C_26
REMARK    5  A    between atoms: C_7  and  N_8
REMARK    6  A    between atoms: N_8  and  C_9
REMARK    7  A    between atoms: N_8  and  S_14
REMARK    8  A    between atoms: C_9  and  C_10
REMARK    9  A    between atoms: S_14  and  C_17
REMARK                            x       y       z     vdW  Elec       q    Type
REMARK                         _______ _______ _______ _____ _____    ______ ____
ROOT
ATOM      1  N   UNL     1       3.241   4.797  18.995  0.00  0.00    +0.000 N 
ENDROOT
BRANCH   1   5
ATOM      2  C   UNL     1       1.584   8.693  18.964  0.00  0.00    +0.000 A 
ATOM      3  C   UNL     1       1.539   7.885  20.113  0.00  0.00    +0.000 A 
ATOM      4  C   UNL     1       2.038   6.585  20.107  0.00  0.00    +0.000 A 
ATOM      5  C   UNL     1       2.582   6.055  18.935  0.00  0.00    +0.000 A 
ATOM      6  C   UNL     1       2.585   6.810  17.764  0.00  0.00    +0.000 A 
ATOM      7  C   UNL     1       2.079   8.120  17.777  0.00  0.00    +0.000 A 
BRANCH   2   9
ATOM      8  C   UNL     1       1.258  10.580  20.560  0.00  0.00    +0.000 C 
ATOM      9  C   UNL     1       1.162  10.170  19.072  0.00  0.00    +0.000 C 
BRANCH   9  10
ATOM     10  C   UNL     1      -0.293  10.456  18.546  0.00  0.00    +0.000 C 
ATOM     11  F   UNL     1      -1.230  10.137  19.477  0.00  0.00    +0.000 F 
ATOM     12  F   UNL     1      -0.481  11.763  18.244  0.00  0.00    +0.000 F 
ATOM     13  F   UNL     1      -0.603   9.749  17.434  0.00  0.00    +0.000 F 
ENDBRANCH   9  10
BRANCH   9  14
ATOM     14  O   UNL     1       2.128  10.999  18.383  0.00  0.00    +0.000 OA
ATOM     15  H   UNL     1       1.920  11.928  18.579  0.00  0.00    +0.000 HD
ENDBRANCH   9  14
ENDBRANCH   2   9
ENDBRANCH   1   5
BRANCH   1  16
ATOM     16  S   UNL     1       4.925   4.684  19.055  0.00  0.00    +0.000 S 
ATOM     17  O   UNL     1       5.437   5.806  19.812  0.00  0.00    +0.000 OA
ATOM     18  O   UNL     1       5.218   3.337  19.507  0.00  0.00    +0.000 OA
BRANCH  16  19
ATOM     19  C   UNL     1       5.516   4.803  17.374  0.00  0.00    +0.000 A 
ATOM     20  C   UNL     1       4.802   4.107  16.378  0.00  0.00    +0.000 A 
ATOM     21  C   UNL     1       5.252   4.077  15.057  0.00  0.00    +0.000 A 
ATOM     22  C   UNL     1       6.442   4.708  14.719  0.00  0.00    +0.000 A 
ATOM     23  C   UNL     1       7.170   5.379  15.703  0.00  0.00    +0.000 A 
ATOM     24  C   UNL     1       6.716   5.433  17.032  0.00  0.00    +0.000 A 
ATOM     25 CL   UNL     1       7.713   6.323  18.123  0.00  0.00    +0.000 Cl
ENDBRANCH  16  19
ENDBRANCH   1  16
BRANCH   1  26
ATOM     26  C   UNL     1       2.432   3.564  18.738  0.00  0.00    +0.000 C 
BRANCH  26  27
ATOM     27  C   UNL     1       1.704   2.979  19.948  0.00  0.00    +0.000 C 
ATOM     28  F   UNL     1       1.594   1.635  19.897  0.00  0.00    +0.000 F 
ATOM     29  F   UNL     1       2.312   3.300  21.109  0.00  0.00    +0.000 F 
ATOM     30  F   UNL     1       0.438   3.462  20.014  0.00  0.00    +0.000 F 
ENDBRANCH  26  27
ENDBRANCH   1  26
TORSDOF 8
ENDMDL
MODEL 9
REMARK VINA RESULT:      -8.1      0.930      1.271
REMARK  Name = 
REMARK  9 active torsions:
REMARK  status: ('A' for Active; 'I' for Inactive)
REMARK    1  A    between atoms: C_1  and  C_2
REMARK    2  A    between atoms: C_2  and  O_3
REMARK    3  A    between atoms: C_2  and  C_4
REMARK    4  A    between atoms: C_2  and  C_26
REMARK    5  A    between atoms: C_7  and  N_8
REMARK    6  A    between atoms: N_8  and  C_9
REMARK    7  A    between atoms: N_8  and  S_14
REMARK    8  A    between atoms: C_9  and  C_10
REMARK    9  A    between atoms: S_14  and  C_17
REMARK                            x       y       z     vdW  Elec       q    Type
REMARK                         _______ _______ _______ _____ _____    ______ ____
ROOT
ATOM      1  N   UNL     1       3.372   4.912  19.360  0.00  0.00    +0.000 N 
ENDROOT
BRANCH   1   5
ATOM      2  C   UNL     1       1.864   8.838  18.865  0.00  0.00    +0.000 A 
ATOM      3  C   UNL     1       2.669   8.231  17.885  0.00  0.00    +0.000 A 
ATOM      4  C   UNL     1       3.206   6.960  18.072  0.00  0.00    +0.000 A 
ATOM      5  C   UNL     1       2.963   6.270  19.260  0.00  0.00    +0.000 A 
ATOM      6  C   UNL     1       2.219   6.870  20.275  0.00  0.00    +0.000 A 
ATOM      7  C   UNL     1       1.681   8.152  20.081  0.00  0.00    +0.000 A 
BRANCH   2   9
ATOM      8  C   UNL     1       1.304  11.089  19.778  0.00  0.00    +0.000 C 
ATOM      9  C   UNL     1       1.170  10.173  18.539  0.00  0.00    +0.000 C 
BRANCH   9  10
ATOM     10  C   UNL     1      -0.350  10.024  18.163  0.00  0.00    +0.000 C 
ATOM     11  F   UNL     1      -0.530   9.117  17.167  0.00  0.00    +0.000 F 
ATOM     12  F   UNL     1      -1.098   9.597  19.211  0.00  0.00    +0.000 F 
ATOM     13  F   UNL     1      -0.906  11.180  17.732  0.00  0.00    +0.000 F 
ENDBRANCH   9  10
BRANCH   9  14
ATOM     14  O   UNL     1       1.895  10.848  17.483  0.00  0.00    +0.000 OA
ATOM     15  H   UNL     1       2.347  11.615  17.873  0.00  0.00    +0.000 HD
ENDBRANCH   9  14
ENDBRANCH   2   9
ENDBRANCH   1   5
BRANCH   1  16
ATOM     16  S   UNL     1       4.982   4.456  19.130  0.00  0.00    +0.000 S 
ATOM     17  O   UNL     1       5.823   5.293  19.956  0.00  0.00    +0.000 OA
ATOM     18  O   UNL     1       5.018   3.018  19.317  0.00  0.00    +0.000 OA
BRANCH  16  19
ATOM     19  C   UNL     1       5.369   4.761  17.413  0.00  0.00    +0.000 A 
ATOM     20  C   UNL     1       4.683   4.002  16.442  0.00  0.00    +0.000 A 
ATOM     21  C   UNL     1       4.993   4.119  15.086  0.00  0.00    +0.000 A 
ATOM     22  C   UNL     1       6.020   4.964  14.684  0.00  0.00    +0.000 A 
ATOM     23  C   UNL     1       6.722   5.699  15.639  0.00  0.00    +0.000 A 
ATOM     24  C   UNL     1       6.404   5.606  17.005  0.00  0.00    +0.000 A 
ATOM     25 CL   UNL     1       7.343   6.599  18.057  0.00  0.00    +0.000 Cl
ENDBRANCH  16  19
ENDBRANCH   1  16
BRANCH   1  26
ATOM     26  C   UNL     1       2.310   3.858  19.414  0.00  0.00    +0.000 C 
BRANCH  26  27
ATOM     27  C   UNL     1       1.665   3.492  18.078  0.00  0.00    +0.000 C 
ATOM     28  F   UNL     1       1.428   4.566  17.295  0.00  0.00    +0.000 F 
ATOM     29  F   UNL     1       2.419   2.624  17.371  0.00  0.00    +0.000 F 
ATOM     30  F   UNL     1       0.462   2.899  18.283  0.00  0.00    +0.000 F 
ENDBRANCH  26  27
ENDBRANCH   1  26
TORSDOF 8
ENDMDL
