MODEL 1
REMARK VINA RESULT:      -7.3      0.000      0.000
REMARK  Name = 
REMARK  6 active torsions:
REMARK  status: ('A' for Active; 'I' for Inactive)
REMARK    1  A    between atoms: C_1  and  C_2
REMARK    2  A    between atoms: C_3  and  C_4
REMARK    3  A    between atoms: C_7  and  C_8
REMARK    4  A    between atoms: C_11  and  C_13
REMARK    5  A    between atoms: C_13  and  N_14
REMARK    6  A    between atoms: C_13  and  C_15
REMARK                            x       y       z     vdW  Elec       q    Type
REMARK                         _______ _______ _______ _____ _____    ______ ____
ROOT
ATOM      1  C   UNL     1       6.450   4.137  17.249  0.00  0.00    +0.000 C 
ATOM      2  C   UNL     1       7.684   5.018  17.475  0.00  0.00    +0.000 C 
ATOM      3  C   UNL     1       7.158   6.428  17.783  0.00  0.00    +0.000 C 
ATOM      4  C   UNL     1       5.633   6.343  17.696  0.00  0.00    +0.000 C 
ATOM      5  N   UNL     1       5.370   4.910  17.847  0.00  0.00    +0.000 N 
ATOM      6  C   UNL     1       4.269   4.466  18.547  0.00  0.00    +0.000 C 
ATOM      7  O   UNL     1       3.506   5.271  19.086  0.00  0.00    +0.000 OA
ENDROOT
BRANCH   1  10
ATOM      8  C   UNL     1       5.831   3.670  13.179  0.00  0.00    +0.000 C 
ATOM      9  C   UNL     1       6.035   3.789  14.627  0.00  0.00    +0.000 C 
ATOM     10  C   UNL     1       6.208   3.921  15.807  0.00  0.00    +0.000 C 
ENDBRANCH   1  10
BRANCH   4  11
ATOM     11  C   UNL     1       5.139   6.886  16.409  0.00  0.00    +0.000 C 
ATOM     12  N   UNL     1       4.773   7.277  15.377  0.00  0.00    +0.000 NA
ENDBRANCH   4  11
BRANCH   6  13
ATOM     13  C   UNL     1       4.098   2.936  18.759  0.00  0.00    +0.000 C 
BRANCH  13  14
ATOM     14  C   UNL     1       2.754   2.579  19.430  0.00  0.00    +0.000 C 
ATOM     15  C   UNL     1       2.726   2.814  20.942  0.00  0.00    +0.000 C 
ATOM     16  C   UNL     1       1.239   2.855  21.260  0.00  0.00    +0.000 C 
ATOM     17  C   UNL     1       0.625   3.619  20.098  0.00  0.00    +0.000 C 
ATOM     18  C   UNL     1       1.574   3.426  18.916  0.00  0.00    +0.000 C 
ENDBRANCH  13  14
BRANCH  13  19
ATOM     19  N   UNL     1       5.191   2.463  19.644  0.00  0.00    +0.000 NA
ATOM     20  H   UNL     1       6.007   3.060  19.490  0.00  0.00    +0.000 HD
ATOM     21  H   UNL     1       5.480   1.522  19.389  0.00  0.00    +0.000 HD
ENDBRANCH  13  19
ENDBRANCH   6  13
TORSDOF 5
ENDMDL
MODEL 2
REMARK VINA RESULT:      -7.2      2.120      5.498
REMARK  Name = 
REMARK  6 active torsions:
REMARK  status: ('A' for Active; 'I' for Inactive)
REMARK    1  A    between atoms: C_1  and  C_2
REMARK    2  A    between atoms: C_3  and  C_4
REMARK    3  A    between atoms: C_7  and  C_8
REMARK    4  A    between atoms: C_11  and  C_13
REMARK    5  A    between atoms: C_13  and  N_14
REMARK    6  A    between atoms: C_13  and  C_15
REMARK                            x       y       z     vdW  Elec       q    Type
REMARK                         _______ _______ _______ _____ _____    ______ ____
ROOT
ATOM      1  C   UNL     1       3.550   3.525  17.365  0.00  0.00    +0.000 C 
ATOM      2  C   UNL     1       2.076   3.158  17.156  0.00  0.00    +0.000 C 
ATOM      3  C   UNL     1       1.256   4.349  17.675  0.00  0.00    +0.000 C 
ATOM      4  C   UNL     1       2.268   5.366  18.205  0.00  0.00    +0.000 C 
ATOM      5  N   UNL     1       3.515   4.970  17.544  0.00  0.00    +0.000 N 
ATOM      6  C   UNL     1       4.419   5.920  17.120  0.00  0.00    +0.000 C 
ATOM      7  O   UNL     1       4.175   7.121  17.260  0.00  0.00    +0.000 OA
ENDROOT
BRANCH   1  10
ATOM      8  C   UNL     1       4.960   1.693  20.803  0.00  0.00    +0.000 C 
ATOM      9  C   UNL     1       4.500   2.325  19.561  0.00  0.00    +0.000 C 
ATOM     10  C   UNL     1       4.098   2.858  18.564  0.00  0.00    +0.000 C 
ENDBRANCH   1  10
BRANCH   4  11
ATOM     11  C   UNL     1       2.359   5.311  19.683  0.00  0.00    +0.000 C 
ATOM     12  N   UNL     1       2.420   5.222  20.841  0.00  0.00    +0.000 NA
ENDBRANCH   4  11
BRANCH   6  13
ATOM     13  C   UNL     1       5.674   5.444  16.336  0.00  0.00    +0.000 C 
BRANCH  13  14
ATOM     14  C   UNL     1       6.985   5.704  17.110  0.00  0.00    +0.000 C 
ATOM     15  C   UNL     1       7.216   7.172  17.477  0.00  0.00    +0.000 C 
ATOM     16  C   UNL     1       8.254   7.094  18.587  0.00  0.00    +0.000 C 
ATOM     17  C   UNL     1       7.832   5.890  19.414  0.00  0.00    +0.000 C 
ATOM     18  C   UNL     1       7.042   4.984  18.470  0.00  0.00    +0.000 C 
ENDBRANCH  13  14
BRANCH  13  19
ATOM     19  N   UNL     1       5.739   6.196  15.059  0.00  0.00    +0.000 NA
ATOM     20  H   UNL     1       5.604   5.533  14.292  0.00  0.00    +0.000 HD
ATOM     21  H   UNL     1       6.664   6.596  14.924  0.00  0.00    +0.000 HD
ENDBRANCH  13  19
ENDBRANCH   6  13
TORSDOF 5
ENDMDL
MODEL 3
REMARK VINA RESULT:      -7.1      2.039      3.256
REMARK  Name = 
REMARK  6 active torsions:
REMARK  status: ('A' for Active; 'I' for Inactive)
REMARK    1  A    between atoms: C_1  and  C_2
REMARK    2  A    between atoms: C_3  and  C_4
REMARK    3  A    between atoms: C_7  and  C_8
REMARK    4  A    between atoms: C_11  and  C_13
REMARK    5  A    between atoms: C_13  and  N_14
REMARK    6  A    between atoms: C_13  and  C_15
REMARK                            x       y       z     vdW  Elec       q    Type
REMARK                         _______ _______ _______ _____ _____    ______ ____
ROOT
ATOM      1  C   UNL     1       5.166   5.099  19.344  0.00  0.00    +0.000 C 
ATOM      2  C   UNL     1       6.669   5.351  19.179  0.00  0.00    +0.000 C 
ATOM      3  C   UNL     1       6.844   6.040  17.816  0.00  0.00    +0.000 C 
ATOM      4  C   UNL     1       5.445   6.142  17.206  0.00  0.00    +0.000 C 
ATOM      5  N   UNL     1       4.564   5.996  18.368  0.00  0.00    +0.000 N 
ATOM      6  C   UNL     1       3.393   6.718  18.458  0.00  0.00    +0.000 C 
ATOM      7  O   UNL     1       3.086   7.523  17.576  0.00  0.00    +0.000 OA
ENDROOT
BRANCH   1  10
ATOM      8  C   UNL     1       4.075   1.181  18.550  0.00  0.00    +0.000 C 
ATOM      9  C   UNL     1       4.506   2.559  18.812  0.00  0.00    +0.000 C 
ATOM     10  C   UNL     1       4.828   3.691  19.045  0.00  0.00    +0.000 C 
ENDBRANCH   1  10
BRANCH   4  11
ATOM     11  C   UNL     1       5.229   5.090  16.185  0.00  0.00    +0.000 C 
ATOM     12  N   UNL     1       5.100   4.276  15.365  0.00  0.00    +0.000 NA
ENDBRANCH   4  11
BRANCH   6  13
ATOM     13  C   UNL     1       2.551   6.596  19.759  0.00  0.00    +0.000 C 
BRANCH  13  14
ATOM     14  C   UNL     1       1.501   5.467  19.678  0.00  0.00    +0.000 C 
ATOM     15  C   UNL     1       1.609   4.599  18.421  0.00  0.00    +0.000 C 
ATOM     16  C   UNL     1       0.836   3.344  18.798  0.00  0.00    +0.000 C 
ATOM     17  C   UNL     1       1.214   3.089  20.249  0.00  0.00    +0.000 C 
ATOM     18  C   UNL     1       1.615   4.446  20.826  0.00  0.00    +0.000 C 
ENDBRANCH  13  14
BRANCH  13  19
ATOM     19  N   UNL     1       1.831   7.876  19.969  0.00  0.00    +0.000 NA
ATOM     20  H   UNL     1       2.343   8.417  20.670  0.00  0.00    +0.000 HD
ATOM     21  H   UNL     1       0.909   7.709  20.363  0.00  0.00    +0.000 HD
ENDBRANCH  13  19
ENDBRANCH   6  13
TORSDOF 5
ENDMDL
MODEL 4
REMARK VINA RESULT:      -7.1      1.881      5.714
REMARK  Name = 
REMARK  6 active torsions:
REMARK  status: ('A' for Active; 'I' for Inactive)
REMARK    1  A    between atoms: C_1  and  C_2
REMARK    2  A    between atoms: C_3  and  C_4
REMARK    3  A    between atoms: C_7  and  C_8
REMARK    4  A    between atoms: C_11  and  C_13
REMARK    5  A    between atoms: C_13  and  N_14
REMARK    6  A    between atoms: C_13  and  C_15
REMARK                            x       y       z     vdW  Elec       q    Type
REMARK                         _______ _______ _______ _____ _____    ______ ____
ROOT
ATOM      1  C   UNL     1       3.916   2.817  18.730  0.00  0.00    +0.000 C 
ATOM      2  C   UNL     1       2.722   2.081  18.112  0.00  0.00    +0.000 C 
ATOM      3  C   UNL     1       1.461   2.741  18.691  0.00  0.00    +0.000 C 
ATOM      4  C   UNL     1       1.949   3.821  19.657  0.00  0.00    +0.000 C 
ATOM      5  N   UNL     1       3.330   4.054  19.225  0.00  0.00    +0.000 N 
ATOM      6  C   UNL     1       3.869   5.323  19.248  0.00  0.00    +0.000 C 
ATOM      7  O   UNL     1       3.186   6.286  19.602  0.00  0.00    +0.000 OA
ENDROOT
BRANCH   1  10
ATOM      8  C   UNL     1       5.711   0.637  21.762  0.00  0.00    +0.000 C 
ATOM      9  C   UNL     1       5.033   1.408  20.714  0.00  0.00    +0.000 C 
ATOM     10  C   UNL     1       4.507   2.034  19.836  0.00  0.00    +0.000 C 
ENDBRANCH   1  10
BRANCH   4  11
ATOM     11  C   UNL     1       1.858   3.363  21.064  0.00  0.00    +0.000 C 
ATOM     12  N   UNL     1       1.824   2.978  22.160  0.00  0.00    +0.000 NA
ENDBRANCH   4  11
BRANCH   6  13
ATOM     13  C   UNL     1       5.303   5.523  18.683  0.00  0.00    +0.000 C 
BRANCH  13  14
ATOM     14  C   UNL     1       5.532   4.750  17.366  0.00  0.00    +0.000 C 
ATOM     15  C   UNL     1       4.908   5.412  16.134  0.00  0.00    +0.000 C 
ATOM     16  C   UNL     1       5.649   4.760  14.977  0.00  0.00    +0.000 C 
ATOM     17  C   UNL     1       7.087   4.655  15.460  0.00  0.00    +0.000 C 
ATOM     18  C   UNL     1       7.019   4.622  16.986  0.00  0.00    +0.000 C 
ENDBRANCH  13  14
BRANCH  13  19
ATOM     19  N   UNL     1       6.274   5.016  19.685  0.00  0.00    +0.000 NA
ATOM     20  H   UNL     1       7.207   5.335  19.413  0.00  0.00    +0.000 HD
ATOM     21  H   UNL     1       6.309   4.001  19.670  0.00  0.00    +0.000 HD
ENDBRANCH  13  19
ENDBRANCH   6  13
TORSDOF 5
ENDMDL
MODEL 5
REMARK VINA RESULT:      -6.9      1.603      3.520
REMARK  Name = 
REMARK  6 active torsions:
REMARK  status: ('A' for Active; 'I' for Inactive)
REMARK    1  A    between atoms: C_1  and  C_2
REMARK    2  A    between atoms: C_3  and  C_4
REMARK    3  A    between atoms: C_7  and  C_8
REMARK    4  A    between atoms: C_11  and  C_13
REMARK    5  A    between atoms: C_13  and  N_14
REMARK    6  A    between atoms: C_13  and  C_15
REMARK                            x       y       z     vdW  Elec       q    Type
REMARK                         _______ _______ _______ _____ _____    ______ ____
ROOT
ATOM      1  C   UNL     1       5.025   6.506  16.737  0.00  0.00    +0.000 C 
ATOM      2  C   UNL     1       5.198   6.215  15.242  0.00  0.00    +0.000 C 
ATOM      3  C   UNL     1       5.660   4.754  15.136  0.00  0.00    +0.000 C 
ATOM      4  C   UNL     1       5.778   4.238  16.571  0.00  0.00    +0.000 C 
ATOM      5  N   UNL     1       4.951   5.179  17.332  0.00  0.00    +0.000 N 
ATOM      6  C   UNL     1       4.185   4.744  18.392  0.00  0.00    +0.000 C 
ATOM      7  O   UNL     1       4.160   3.549  18.696  0.00  0.00    +0.000 OA
ENDROOT
BRANCH   1  10
ATOM      8  C   UNL     1       8.280   8.682  18.092  0.00  0.00    +0.000 C 
ATOM      9  C   UNL     1       7.121   7.894  17.658  0.00  0.00    +0.000 C 
ATOM     10  C   UNL     1       6.182   7.258  17.269  0.00  0.00    +0.000 C 
ENDBRANCH   1  10
BRANCH   4  11
ATOM     11  C   UNL     1       7.190   4.222  17.020  0.00  0.00    +0.000 C 
ATOM     12  N   UNL     1       8.294   4.254  17.383  0.00  0.00    +0.000 NA
ENDBRANCH   4  11
BRANCH   6  13
ATOM     13  C   UNL     1       3.252   5.769  19.096  0.00  0.00    +0.000 C 
BRANCH  13  14
ATOM     14  C   UNL     1       2.069   5.090  19.819  0.00  0.00    +0.000 C 
ATOM     15  C   UNL     1       1.427   3.944  19.032  0.00  0.00    +0.000 C 
ATOM     16  C   UNL     1       0.663   3.175  20.099  0.00  0.00    +0.000 C 
ATOM     17  C   UNL     1       1.584   3.191  21.309  0.00  0.00    +0.000 C 
ATOM     18  C   UNL     1       2.469   4.427  21.151  0.00  0.00    +0.000 C 
ENDBRANCH  13  14
BRANCH  13  19
ATOM     19  N   UNL     1       2.697   6.679  18.064  0.00  0.00    +0.000 NA
ATOM     20  H   UNL     1       3.444   6.903  17.402  0.00  0.00    +0.000 HD
ATOM     21  H   UNL     1       2.415   7.563  18.478  0.00  0.00    +0.000 HD
ENDBRANCH  13  19
ENDBRANCH   6  13
TORSDOF 5
ENDMDL
MODEL 6
REMARK VINA RESULT:      -6.8      1.884      5.721
REMARK  Name = 
REMARK  6 active torsions:
REMARK  status: ('A' for Active; 'I' for Inactive)
REMARK    1  A    between atoms: C_1  and  C_2
REMARK    2  A    between atoms: C_3  and  C_4
REMARK    3  A    between atoms: C_7  and  C_8
REMARK    4  A    between atoms: C_11  and  C_13
REMARK    5  A    between atoms: C_13  and  N_14
REMARK    6  A    between atoms: C_13  and  C_15
REMARK                            x       y       z     vdW  Elec       q    Type
REMARK                         _______ _______ _______ _____ _____    ______ ____
ROOT
ATOM      1  C   UNL     1       2.852   2.800  18.327  0.00  0.00    +0.000 C 
ATOM      2  C   UNL     1       1.522   2.041  18.280  0.00  0.00    +0.000 C 
ATOM      3  C   UNL     1       0.546   2.822  19.174  0.00  0.00    +0.000 C 
ATOM      4  C   UNL     1       1.340   3.998  19.746  0.00  0.00    +0.000 C 
ATOM      5  N   UNL     1       2.473   4.115  18.824  0.00  0.00    +0.000 N 
ATOM      6  C   UNL     1       2.976   5.351  18.481  0.00  0.00    +0.000 C 
ATOM      7  O   UNL     1       2.457   6.380  18.919  0.00  0.00    +0.000 OA
ENDROOT
BRANCH   1  10
ATOM      8  C   UNL     1       5.466   1.044  21.020  0.00  0.00    +0.000 C 
ATOM      9  C   UNL     1       4.557   1.635  20.032  0.00  0.00    +0.000 C 
ATOM     10  C   UNL     1       3.806   2.144  19.247  0.00  0.00    +0.000 C 
ENDBRANCH   1  10
BRANCH   4  11
ATOM     11  C   UNL     1       1.760   3.731  21.142  0.00  0.00    +0.000 C 
ATOM     12  N   UNL     1       2.111   3.483  22.222  0.00  0.00    +0.000 NA
ENDBRANCH   4  11
BRANCH   6  13
ATOM     13  C   UNL     1       4.112   5.416  17.422  0.00  0.00    +0.000 C 
BRANCH  13  14
ATOM     14  C   UNL     1       5.433   4.805  17.936  0.00  0.00    +0.000 C 
ATOM     15  C   UNL     1       6.565   4.800  16.906  0.00  0.00    +0.000 C 
ATOM     16  C   UNL     1       7.811   4.616  17.759  0.00  0.00    +0.000 C 
ATOM     17  C   UNL     1       7.556   5.472  18.990  0.00  0.00    +0.000 C 
ATOM     18  C   UNL     1       6.038   5.576  19.125  0.00  0.00    +0.000 C 
ENDBRANCH  13  14
BRANCH  13  19
ATOM     19  N   UNL     1       4.364   6.841  17.095  0.00  0.00    +0.000 NA
ATOM     20  H   UNL     1       5.053   7.203  17.759  0.00  0.00    +0.000 HD
ATOM     21  H   UNL     1       3.524   7.396  17.233  0.00  0.00    +0.000 HD
ENDBRANCH  13  19
ENDBRANCH   6  13
TORSDOF 5
ENDMDL
MODEL 7
REMARK VINA RESULT:      -6.7      2.002      5.926
REMARK  Name = 
REMARK  6 active torsions:
REMARK  status: ('A' for Active; 'I' for Inactive)
REMARK    1  A    between atoms: C_1  and  C_2
REMARK    2  A    between atoms: C_3  and  C_4
REMARK    3  A    between atoms: C_7  and  C_8
REMARK    4  A    between atoms: C_11  and  C_13
REMARK    5  A    between atoms: C_13  and  N_14
REMARK    6  A    between atoms: C_13  and  C_15
REMARK                            x       y       z     vdW  Elec       q    Type
REMARK                         _______ _______ _______ _____ _____    ______ ____
ROOT
ATOM      1  C   UNL     1       3.575   2.513  18.514  0.00  0.00    +0.000 C 
ATOM      2  C   UNL     1       2.275   1.756  18.225  0.00  0.00    +0.000 C 
ATOM      3  C   UNL     1       1.150   2.554  18.903  0.00  0.00    +0.000 C 
ATOM      4  C   UNL     1       1.825   3.738  19.598  0.00  0.00    +0.000 C 
ATOM      5  N   UNL     1       3.115   3.837  18.908  0.00  0.00    +0.000 N 
ATOM      6  C   UNL     1       3.680   5.067  18.648  0.00  0.00    +0.000 C 
ATOM      7  O   UNL     1       3.092   6.104  18.963  0.00  0.00    +0.000 OA
ENDROOT
BRANCH   1  10
ATOM      8  C   UNL     1       5.594   0.770  21.685  0.00  0.00    +0.000 C 
ATOM      9  C   UNL     1       4.910   1.364  20.531  0.00  0.00    +0.000 C 
ATOM     10  C   UNL     1       4.332   1.871  19.610  0.00  0.00    +0.000 C 
ENDBRANCH   1  10
BRANCH   4  11
ATOM     11  C   UNL     1       1.969   3.493  21.052  0.00  0.00    +0.000 C 
ATOM     12  N   UNL     1       2.128   3.299  22.187  0.00  0.00    +0.000 NA
ENDBRANCH   4  11
BRANCH   6  13
ATOM     13  C   UNL     1       4.998   5.112  17.825  0.00  0.00    +0.000 C 
BRANCH  13  14
ATOM     14  C   UNL     1       5.965   6.211  18.320  0.00  0.00    +0.000 C 
ATOM     15  C   UNL     1       7.348   5.693  18.721  0.00  0.00    +0.000 C 
ATOM     16  C   UNL     1       8.208   6.948  18.699  0.00  0.00    +0.000 C 
ATOM     17  C   UNL     1       7.721   7.718  17.482  0.00  0.00    +0.000 C 
ATOM     18  C   UNL     1       6.279   7.272  17.248  0.00  0.00    +0.000 C 
ENDBRANCH  13  14
BRANCH  13  19
ATOM     19  N   UNL     1       4.656   5.407  16.412  0.00  0.00    +0.000 NA
ATOM     20  H   UNL     1       4.791   6.409  16.254  0.00  0.00    +0.000 HD
ATOM     21  H   UNL     1       3.671   5.226  16.235  0.00  0.00    +0.000 HD
ENDBRANCH  13  19
ENDBRANCH   6  13
TORSDOF 5
ENDMDL
MODEL 8
REMARK VINA RESULT:      -6.7      2.263      3.798
REMARK  Name = 
REMARK  6 active torsions:
REMARK  status: ('A' for Active; 'I' for Inactive)
REMARK    1  A    between atoms: C_1  and  C_2
REMARK    2  A    between atoms: C_3  and  C_4
REMARK    3  A    between atoms: C_7  and  C_8
REMARK    4  A    between atoms: C_11  and  C_13
REMARK    5  A    between atoms: C_13  and  N_14
REMARK    6  A    between atoms: C_13  and  C_15
REMARK                            x       y       z     vdW  Elec       q    Type
REMARK                         _______ _______ _______ _____ _____    ______ ____
ROOT
ATOM      1  C   UNL     1       5.099   5.868  15.830  0.00  0.00    +0.000 C 
ATOM      2  C   UNL     1       5.776   5.440  14.523  0.00  0.00    +0.000 C 
ATOM      3  C   UNL     1       6.417   4.071  14.796  0.00  0.00    +0.000 C 
ATOM      4  C   UNL     1       6.128   3.749  16.263  0.00  0.00    +0.000 C 
ATOM      5  N   UNL     1       4.995   4.623  16.579  0.00  0.00    +0.000 N 
ATOM      6  C   UNL     1       3.987   4.194  17.416  0.00  0.00    +0.000 C 
ATOM      7  O   UNL     1       4.008   3.054  17.884  0.00  0.00    +0.000 OA
ENDROOT
BRANCH   1  10
ATOM      8  C   UNL     1       7.539   8.548  17.838  0.00  0.00    +0.000 C 
ATOM      9  C   UNL     1       6.637   7.630  17.134  0.00  0.00    +0.000 C 
ATOM     10  C   UNL     1       5.926   6.854  16.558  0.00  0.00    +0.000 C 
ENDBRANCH   1  10
BRANCH   4  11
ATOM     11  C   UNL     1       7.313   4.015  17.113  0.00  0.00    +0.000 C 
ATOM     12  N   UNL     1       8.225   4.265  17.790  0.00  0.00    +0.000 NA
ENDBRANCH   4  11
BRANCH   6  13
ATOM     13  C   UNL     1       2.764   5.127  17.633  0.00  0.00    +0.000 C 
BRANCH  13  14
ATOM     14  C   UNL     1       2.813   5.859  18.992  0.00  0.00    +0.000 C 
ATOM     15  C   UNL     1       2.312   7.304  18.944  0.00  0.00    +0.000 C 
ATOM     16  C   UNL     1       2.018   7.618  20.404  0.00  0.00    +0.000 C 
ATOM     17  C   UNL     1       1.397   6.341  20.947  0.00  0.00    +0.000 C 
ATOM     18  C   UNL     1       1.922   5.208  20.066  0.00  0.00    +0.000 C 
ENDBRANCH  13  14
BRANCH  13  19
ATOM     19  N   UNL     1       1.534   4.297  17.605  0.00  0.00    +0.000 NA
ATOM     20  H   UNL     1       0.941   4.633  16.842  0.00  0.00    +0.000 HD
ATOM     21  H   UNL     1       0.994   4.426  18.456  0.00  0.00    +0.000 HD
ENDBRANCH  13  19
ENDBRANCH   6  13
TORSDOF 5
ENDMDL
MODEL 9
REMARK VINA RESULT:      -6.7      2.420      5.573
REMARK  Name = 
REMARK  6 active torsions:
REMARK  status: ('A' for Active; 'I' for Inactive)
REMARK    1  A    between atoms: C_1  and  C_2
REMARK    2  A    between atoms: C_3  and  C_4
REMARK    3  A    between atoms: C_7  and  C_8
REMARK    4  A    between atoms: C_11  and  C_13
REMARK    5  A    between atoms: C_13  and  N_14
REMARK    6  A    between atoms: C_13  and  C_15
REMARK                            x       y       z     vdW  Elec       q    Type
REMARK                         _______ _______ _______ _____ _____    ______ ____
ROOT
ATOM      1  C   UNL     1       3.153   6.057  19.991  0.00  0.00    +0.000 C 
ATOM      2  C   UNL     1       2.178   5.582  21.074  0.00  0.00    +0.000 C 
ATOM      3  C   UNL     1       1.714   4.179  20.651  0.00  0.00    +0.000 C 
ATOM      4  C   UNL     1       2.403   3.885  19.318  0.00  0.00    +0.000 C 
ATOM      5  N   UNL     1       3.526   4.826  19.308  0.00  0.00    +0.000 N 
ATOM      6  C   UNL     1       4.744   4.462  18.776  0.00  0.00    +0.000 C 
ATOM      7  O   UNL     1       4.916   3.326  18.329  0.00  0.00    +0.000 OA
ENDROOT
BRANCH   1  10
ATOM      8  C   UNL     1       1.397   8.807  17.437  0.00  0.00    +0.000 C 
ATOM      9  C   UNL     1       1.994   7.797  18.319  0.00  0.00    +0.000 C 
ATOM     10  C   UNL     1       2.495   6.998  19.060  0.00  0.00    +0.000 C 
ENDBRANCH   1  10
BRANCH   4  11
ATOM     11  C   UNL     1       1.474   4.086  18.180  0.00  0.00    +0.000 C 
ATOM     12  N   UNL     1       0.729   4.202  17.296  0.00  0.00    +0.000 NA
ENDBRANCH   4  11
BRANCH   6  13
ATOM     13  C   UNL     1       5.925   5.467  18.885  0.00  0.00    +0.000 C 
BRANCH  13  14
ATOM     14  C   UNL     1       6.547   5.798  17.511  0.00  0.00    +0.000 C 
ATOM     15  C   UNL     1       7.319   4.639  16.877  0.00  0.00    +0.000 C 
ATOM     16  C   UNL     1       7.403   5.038  15.411  0.00  0.00    +0.000 C 
ATOM     17  C   UNL     1       6.042   5.644  15.107  0.00  0.00    +0.000 C 
ATOM     18  C   UNL     1       5.499   6.156  16.440  0.00  0.00    +0.000 C 
ENDBRANCH  13  14
BRANCH  13  19
ATOM     19  N   UNL     1       6.980   4.855  19.730  0.00  0.00    +0.000 NA
ATOM     20  H   UNL     1       6.796   5.110  20.703  0.00  0.00    +0.000 HD
ATOM     21  H   UNL     1       7.892   5.246  19.505  0.00  0.00    +0.000 HD
ENDBRANCH  13  19
ENDBRANCH   6  13
TORSDOF 5
ENDMDL
