MODEL 1
REMARK VINA RESULT:      -8.2      0.000      0.000
REMARK  Name = 
REMARK  4 active torsions:
REMARK  status: ('A' for Active; 'I' for Inactive)
REMARK    1  A    between atoms: C_2  and  C_5
REMARK    2  A    between atoms: N_3  and  O_4
REMARK    3  A    between atoms: C_8  and  C_9
REMARK    4  A    between atoms: C_12  and  C_13
REMARK                            x       y       z     vdW  Elec       q    Type
REMARK                         _______ _______ _______ _____ _____    ______ ____
ROOT
ATOM      1  C   UNL     1       3.711   3.855  19.155  0.00  0.00    +0.000 A 
ATOM      2  C   UNL     1       2.792   4.291  20.114  0.00  0.00    +0.000 A 
ATOM      3  C   UNL     1       2.283   5.594  20.056  0.00  0.00    +0.000 A 
ATOM      4  C   UNL     1       2.670   6.475  19.034  0.00  0.00    +0.000 A 
ATOM      5  C   UNL     1       3.596   6.022  18.082  0.00  0.00    +0.000 A 
ATOM      6  C   UNL     1       4.117   4.725  18.140  0.00  0.00    +0.000 A 
ENDROOT
BRANCH   1   8
ATOM      7  N   UNL     1       3.860   1.623  18.276  0.00  0.00    +0.000 NA
ATOM      8  C   UNL     1       4.223   2.457  19.202  0.00  0.00    +0.000 C 
ATOM      9  N   UNL     1       5.081   2.094  20.222  0.00  0.00    +0.000 N 
ATOM     10  H   UNL     1       4.291   0.723  18.515  0.00  0.00    +0.000 HD
ATOM     11  H   UNL     1       4.797   2.421  21.148  0.00  0.00    +0.000 HD
BRANCH   9  12
ATOM     12  O   UNL     1       5.450   0.747  20.198  0.00  0.00    +0.000 OA
ATOM     13  H   UNL     1       4.956   0.380  20.959  0.00  0.00    +0.000 HD
ENDBRANCH   9  12
ENDBRANCH   1   8
BRANCH   4  14
ATOM     14  C   UNL     1       2.100   7.818  18.955  0.00  0.00    +0.000 A 
ATOM     15  C   UNL     1       2.081   8.805  17.991  0.00  0.00    +0.000 A 
ATOM     16  C   UNL     1       1.368   9.899  18.541  0.00  0.00    +0.000 A 
ATOM     17  C   UNL     1       0.982   9.526  19.813  0.00  0.00    +0.000 A 
ATOM     18  O   UNL     1       1.429   8.258  20.061  0.00  0.00    +0.000 OA
BRANCH  17  19
ATOM     19  C   UNL     1       0.230  10.172  20.886  0.00  0.00    +0.000 A 
ATOM     20  C   UNL     1      -0.296  11.461  20.708  0.00  0.00    +0.000 A 
ATOM     21  C   UNL     1      -1.029  12.086  21.723  0.00  0.00    +0.000 A 
ATOM     22  C   UNL     1      -1.241  11.431  22.933  0.00  0.00    +0.000 A 
ATOM     23  C   UNL     1      -0.723  10.154  23.130  0.00  0.00    +0.000 A 
ATOM     24  C   UNL     1       0.008   9.531  22.114  0.00  0.00    +0.000 A 
ENDBRANCH  17  19
ENDBRANCH   4  14
TORSDOF 4
ENDMDL
MODEL 2
REMARK VINA RESULT:      -8.2      0.160      1.062
REMARK  Name = 
REMARK  4 active torsions:
REMARK  status: ('A' for Active; 'I' for Inactive)
REMARK    1  A    between atoms: C_2  and  C_5
REMARK    2  A    between atoms: N_3  and  O_4
REMARK    3  A    between atoms: C_8  and  C_9
REMARK    4  A    between atoms: C_12  and  C_13
REMARK                            x       y       z     vdW  Elec       q    Type
REMARK                         _______ _______ _______ _____ _____    ______ ____
ROOT
ATOM      1  C   UNL     1       3.727   3.700  19.186  0.00  0.00    +0.000 A 
ATOM      2  C   UNL     1       2.779   4.142  20.113  0.00  0.00    +0.000 A 
ATOM      3  C   UNL     1       2.277   5.446  20.036  0.00  0.00    +0.000 A 
ATOM      4  C   UNL     1       2.700   6.323  19.024  0.00  0.00    +0.000 A 
ATOM      5  C   UNL     1       3.655   5.864  18.103  0.00  0.00    +0.000 A 
ATOM      6  C   UNL     1       4.169   4.565  18.181  0.00  0.00    +0.000 A 
ENDROOT
BRANCH   1   8
ATOM      7  N   UNL     1       3.819   1.440  18.373  0.00  0.00    +0.000 NA
ATOM      8  C   UNL     1       4.232   2.300  19.253  0.00  0.00    +0.000 C 
ATOM      9  N   UNL     1       5.137   1.964  20.241  0.00  0.00    +0.000 N 
ATOM     10  H   UNL     1       4.256   0.544  18.620  0.00  0.00    +0.000 HD
ATOM     11  H   UNL     1       4.902   2.322  21.168  0.00  0.00    +0.000 HD
BRANCH   9  12
ATOM     12  O   UNL     1       5.496   0.613  20.242  0.00  0.00    +0.000 OA
ATOM     13  H   UNL     1       4.862   0.226  19.605  0.00  0.00    +0.000 HD
ENDBRANCH   9  12
ENDBRANCH   1   8
BRANCH   4  14
ATOM     14  C   UNL     1       2.138   7.668  18.923  0.00  0.00    +0.000 A 
ATOM     15  C   UNL     1       2.127   8.640  17.944  0.00  0.00    +0.000 A 
ATOM     16  C   UNL     1       1.419   9.747  18.475  0.00  0.00    +0.000 A 
ATOM     17  C   UNL     1       1.028   9.395  19.752  0.00  0.00    +0.000 A 
ATOM     18  O   UNL     1       1.467   8.128  20.021  0.00  0.00    +0.000 OA
BRANCH  17  19
ATOM     19  C   UNL     1       0.277  10.062  20.813  0.00  0.00    +0.000 A 
ATOM     20  C   UNL     1       0.126   9.453  22.068  0.00  0.00    +0.000 A 
ATOM     21  C   UNL     1      -0.580  10.087  23.096  0.00  0.00    +0.000 A 
ATOM     22  C   UNL     1      -1.150  11.339  22.880  0.00  0.00    +0.000 A 
ATOM     23  C   UNL     1      -1.015  11.957  21.640  0.00  0.00    +0.000 A 
ATOM     24  C   UNL     1      -0.308  11.322  20.614  0.00  0.00    +0.000 A 
ENDBRANCH  17  19
ENDBRANCH   4  14
TORSDOF 4
ENDMDL
MODEL 3
REMARK VINA RESULT:      -8.2      0.641      1.415
REMARK  Name = 
REMARK  4 active torsions:
REMARK  status: ('A' for Active; 'I' for Inactive)
REMARK    1  A    between atoms: C_2  and  C_5
REMARK    2  A    between atoms: N_3  and  O_4
REMARK    3  A    between atoms: C_8  and  C_9
REMARK    4  A    between atoms: C_12  and  C_13
REMARK                            x       y       z     vdW  Elec       q    Type
REMARK                         _______ _______ _______ _____ _____    ______ ____
ROOT
ATOM      1  C   UNL     1       3.599   4.220  19.014  0.00  0.00    +0.000 A 
ATOM      2  C   UNL     1       2.722   4.654  20.013  0.00  0.00    +0.000 A 
ATOM      3  C   UNL     1       2.212   5.957  19.980  0.00  0.00    +0.000 A 
ATOM      4  C   UNL     1       2.555   6.840  18.944  0.00  0.00    +0.000 A 
ATOM      5  C   UNL     1       3.440   6.389  17.952  0.00  0.00    +0.000 A 
ATOM      6  C   UNL     1       3.962   5.091  17.984  0.00  0.00    +0.000 A 
ENDROOT
BRANCH   1   8
ATOM      7  N   UNL     1       5.153   2.545  19.758  0.00  0.00    +0.000 NA
ATOM      8  C   UNL     1       4.111   2.821  19.036  0.00  0.00    +0.000 C 
ATOM      9  N   UNL     1       3.452   1.857  18.298  0.00  0.00    +0.000 N 
ATOM     10  H   UNL     1       5.355   1.550  19.603  0.00  0.00    +0.000 HD
ATOM     11  H   UNL     1       3.200   2.149  17.352  0.00  0.00    +0.000 HD
BRANCH   9  12
ATOM     12  O   UNL     1       4.054   0.597  18.349  0.00  0.00    +0.000 OA
ATOM     13  H   UNL     1       3.989   0.296  17.420  0.00  0.00    +0.000 HD
ENDBRANCH   9  12
ENDBRANCH   1   8
BRANCH   4  14
ATOM     14  C   UNL     1       1.983   8.184  18.893  0.00  0.00    +0.000 A 
ATOM     15  C   UNL     1       1.951   9.186  17.944  0.00  0.00    +0.000 A 
ATOM     16  C   UNL     1       1.244  10.270  18.520  0.00  0.00    +0.000 A 
ATOM     17  C   UNL     1       0.875   9.877  19.791  0.00  0.00    +0.000 A 
ATOM     18  O   UNL     1       1.325   8.606  20.014  0.00  0.00    +0.000 OA
BRANCH  17  19
ATOM     19  C   UNL     1       0.135  10.506  20.883  0.00  0.00    +0.000 A 
ATOM     20  C   UNL     1      -0.196   9.773  22.033  0.00  0.00    +0.000 A 
ATOM     21  C   UNL     1      -0.892  10.367  23.090  0.00  0.00    +0.000 A 
ATOM     22  C   UNL     1      -1.272  11.705  23.010  0.00  0.00    +0.000 A 
ATOM     23  C   UNL     1      -0.957  12.447  21.875  0.00  0.00    +0.000 A 
ATOM     24  C   UNL     1      -0.259  11.851  20.819  0.00  0.00    +0.000 A 
ENDBRANCH  17  19
ENDBRANCH   4  14
TORSDOF 4
ENDMDL
MODEL 4
REMARK VINA RESULT:      -8.1      0.629      1.420
REMARK  Name = 
REMARK  4 active torsions:
REMARK  status: ('A' for Active; 'I' for Inactive)
REMARK    1  A    between atoms: C_2  and  C_5
REMARK    2  A    between atoms: N_3  and  O_4
REMARK    3  A    between atoms: C_8  and  C_9
REMARK    4  A    between atoms: C_12  and  C_13
REMARK                            x       y       z     vdW  Elec       q    Type
REMARK                         _______ _______ _______ _____ _____    ______ ____
ROOT
ATOM      1  C   UNL     1       3.576   4.204  18.950  0.00  0.00    +0.000 A 
ATOM      2  C   UNL     1       3.904   5.061  17.896  0.00  0.00    +0.000 A 
ATOM      3  C   UNL     1       3.372   6.355  17.853  0.00  0.00    +0.000 A 
ATOM      4  C   UNL     1       2.519   6.818  18.867  0.00  0.00    +0.000 A 
ATOM      5  C   UNL     1       2.197   5.943  19.916  0.00  0.00    +0.000 A 
ATOM      6  C   UNL     1       2.717   4.645  19.960  0.00  0.00    +0.000 A 
ENDROOT
BRANCH   1   8
ATOM      7  N   UNL     1       5.127   2.607  19.856  0.00  0.00    +0.000 NA
ATOM      8  C   UNL     1       4.173   2.840  19.008  0.00  0.00    +0.000 C 
ATOM      9  N   UNL     1       3.682   1.860  18.167  0.00  0.00    +0.000 N 
ATOM     10  H   UNL     1       5.412   1.632  19.707  0.00  0.00    +0.000 HD
ATOM     11  H   UNL     1       3.537   2.166  17.203  0.00  0.00    +0.000 HD
BRANCH   9  12
ATOM     12  O   UNL     1       4.354   0.639  18.268  0.00  0.00    +0.000 OA
ATOM     13  H   UNL     1       5.028   0.827  18.952  0.00  0.00    +0.000 HD
ENDBRANCH   9  12
ENDBRANCH   1   8
BRANCH   4  14
ATOM     14  C   UNL     1       2.003   8.185  18.838  0.00  0.00    +0.000 A 
ATOM     15  C   UNL     1       2.036   9.211  17.916  0.00  0.00    +0.000 A 
ATOM     16  C   UNL     1       1.358  10.309  18.503  0.00  0.00    +0.000 A 
ATOM     17  C   UNL     1       0.940   9.898  19.753  0.00  0.00    +0.000 A 
ATOM     18  O   UNL     1       1.333   8.605  19.953  0.00  0.00    +0.000 OA
BRANCH  17  19
ATOM     19  C   UNL     1       0.198  10.529  20.842  0.00  0.00    +0.000 A 
ATOM     20  C   UNL     1      -0.189  11.875  20.753  0.00  0.00    +0.000 A 
ATOM     21  C   UNL     1      -0.910  12.487  21.784  0.00  0.00    +0.000 A 
ATOM     22  C   UNL     1      -1.250  11.761  22.922  0.00  0.00    +0.000 A 
ATOM     23  C   UNL     1      -0.871  10.426  23.031  0.00  0.00    +0.000 A 
ATOM     24  C   UNL     1      -0.151   9.816  21.999  0.00  0.00    +0.000 A 
ENDBRANCH  17  19
ENDBRANCH   4  14
TORSDOF 4
ENDMDL
MODEL 5
REMARK VINA RESULT:      -8.1      0.648      1.764
REMARK  Name = 
REMARK  4 active torsions:
REMARK  status: ('A' for Active; 'I' for Inactive)
REMARK    1  A    between atoms: C_2  and  C_5
REMARK    2  A    between atoms: N_3  and  O_4
REMARK    3  A    between atoms: C_8  and  C_9
REMARK    4  A    between atoms: C_12  and  C_13
REMARK                            x       y       z     vdW  Elec       q    Type
REMARK                         _______ _______ _______ _____ _____    ______ ____
ROOT
ATOM      1  C   UNL     1       3.488   4.188  18.958  0.00  0.00    +0.000 A 
ATOM      2  C   UNL     1       3.794   5.039  17.893  0.00  0.00    +0.000 A 
ATOM      3  C   UNL     1       3.274   6.338  17.861  0.00  0.00    +0.000 A 
ATOM      4  C   UNL     1       2.455   6.813  18.897  0.00  0.00    +0.000 A 
ATOM      5  C   UNL     1       2.154   5.944  19.957  0.00  0.00    +0.000 A 
ATOM      6  C   UNL     1       2.662   4.640  19.990  0.00  0.00    +0.000 A 
ENDROOT
BRANCH   1   8
ATOM      7  N   UNL     1       5.162   2.622  19.681  0.00  0.00    +0.000 NA
ATOM      8  C   UNL     1       4.072   2.818  19.003  0.00  0.00    +0.000 C 
ATOM      9  N   UNL     1       3.427   1.795  18.336  0.00  0.00    +0.000 N 
ATOM     10  H   UNL     1       5.406   1.633  19.551  0.00  0.00    +0.000 HD
ATOM     11  H   UNL     1       3.113   2.038  17.395  0.00  0.00    +0.000 HD
BRANCH   9  12
ATOM     12  O   UNL     1       4.095   0.569  18.400  0.00  0.00    +0.000 OA
ATOM     13  H   UNL     1       3.861   0.157  17.544  0.00  0.00    +0.000 HD
ENDBRANCH   9  12
ENDBRANCH   1   8
BRANCH   4  14
ATOM     14  C   UNL     1       1.952   8.184  18.879  0.00  0.00    +0.000 A 
ATOM     15  C   UNL     1       2.042   9.235  17.988  0.00  0.00    +0.000 A 
ATOM     16  C   UNL     1       1.343  10.323  18.568  0.00  0.00    +0.000 A 
ATOM     17  C   UNL     1       0.857   9.883  19.783  0.00  0.00    +0.000 A 
ATOM     18  O   UNL     1       1.229   8.580  19.969  0.00  0.00    +0.000 OA
BRANCH  17  19
ATOM     19  C   UNL     1       0.064  10.491  20.849  0.00  0.00    +0.000 A 
ATOM     20  C   UNL     1      -0.076   9.845  22.088  0.00  0.00    +0.000 A 
ATOM     21  C   UNL     1      -0.822  10.423  23.121  0.00  0.00    +0.000 A 
ATOM     22  C   UNL     1      -1.443  11.654  22.927  0.00  0.00    +0.000 A 
ATOM     23  C   UNL     1      -1.319  12.308  21.704  0.00  0.00    +0.000 A 
ATOM     24  C   UNL     1      -0.572  11.729  20.673  0.00  0.00    +0.000 A 
ENDBRANCH  17  19
ENDBRANCH   4  14
TORSDOF 4
ENDMDL
MODEL 6
REMARK VINA RESULT:      -8.1      0.315      1.080
REMARK  Name = 
REMARK  4 active torsions:
REMARK  status: ('A' for Active; 'I' for Inactive)
REMARK    1  A    between atoms: C_2  and  C_5
REMARK    2  A    between atoms: N_3  and  O_4
REMARK    3  A    between atoms: C_8  and  C_9
REMARK    4  A    between atoms: C_12  and  C_13
REMARK                            x       y       z     vdW  Elec       q    Type
REMARK                         _______ _______ _______ _____ _____    ______ ____
ROOT
ATOM      1  C   UNL     1       3.590   3.547  19.116  0.00  0.00    +0.000 A 
ATOM      2  C   UNL     1       4.236   4.494  18.316  0.00  0.00    +0.000 A 
ATOM      3  C   UNL     1       3.735   5.798  18.231  0.00  0.00    +0.000 A 
ATOM      4  C   UNL     1       2.592   6.180  18.952  0.00  0.00    +0.000 A 
ATOM      5  C   UNL     1       1.954   5.215  19.747  0.00  0.00    +0.000 A 
ATOM      6  C   UNL     1       2.444   3.907  19.829  0.00  0.00    +0.000 A 
ENDROOT
BRANCH   1   8
ATOM      7  N   UNL     1       3.732   1.253  18.412  0.00  0.00    +0.000 NA
ATOM      8  C   UNL     1       4.149   2.170  19.230  0.00  0.00    +0.000 C 
ATOM      9  N   UNL     1       5.106   1.916  20.192  0.00  0.00    +0.000 N 
ATOM     10  H   UNL     1       4.211   0.386  18.683  0.00  0.00    +0.000 HD
ATOM     11  H   UNL     1       4.897   2.312  21.110  0.00  0.00    +0.000 HD
BRANCH   9  12
ATOM     12  O   UNL     1       5.515   0.580  20.244  0.00  0.00    +0.000 OA
ATOM     13  H   UNL     1       5.506   0.395  21.205  0.00  0.00    +0.000 HD
ENDBRANCH   9  12
ENDBRANCH   1   8
BRANCH   4  14
ATOM     14  C   UNL     1       2.101   7.555  18.892  0.00  0.00    +0.000 A 
ATOM     15  C   UNL     1       2.143   8.556  17.943  0.00  0.00    +0.000 A 
ATOM     16  C   UNL     1       1.491   9.681  18.507  0.00  0.00    +0.000 A 
ATOM     17  C   UNL     1       1.079   9.311  19.772  0.00  0.00    +0.000 A 
ATOM     18  O   UNL     1       1.451   8.016  20.002  0.00  0.00    +0.000 OA
BRANCH  17  19
ATOM     19  C   UNL     1       0.360   9.984  20.851  0.00  0.00    +0.000 A 
ATOM     20  C   UNL     1      -0.165  11.272  20.662  0.00  0.00    +0.000 A 
ATOM     21  C   UNL     1      -0.865  11.921  21.684  0.00  0.00    +0.000 A 
ATOM     22  C   UNL     1      -1.047  11.292  22.912  0.00  0.00    +0.000 A 
ATOM     23  C   UNL     1      -0.531  10.017  23.121  0.00  0.00    +0.000 A 
ATOM     24  C   UNL     1       0.169   9.368  22.098  0.00  0.00    +0.000 A 
ENDBRANCH  17  19
ENDBRANCH   4  14
TORSDOF 4
ENDMDL
MODEL 7
REMARK VINA RESULT:      -8.0      3.085      4.034
REMARK  Name = 
REMARK  4 active torsions:
REMARK  status: ('A' for Active; 'I' for Inactive)
REMARK    1  A    between atoms: C_2  and  C_5
REMARK    2  A    between atoms: N_3  and  O_4
REMARK    3  A    between atoms: C_8  and  C_9
REMARK    4  A    between atoms: C_12  and  C_13
REMARK                            x       y       z     vdW  Elec       q    Type
REMARK                         _______ _______ _______ _____ _____    ______ ____
ROOT
ATOM      1  C   UNL     1       5.604   4.886  15.622  0.00  0.00    +0.000 A 
ATOM      2  C   UNL     1       5.000   3.840  16.326  0.00  0.00    +0.000 A 
ATOM      3  C   UNL     1       4.194   4.115  17.435  0.00  0.00    +0.000 A 
ATOM      4  C   UNL     1       3.964   5.437  17.851  0.00  0.00    +0.000 A 
ATOM      5  C   UNL     1       4.582   6.475  17.136  0.00  0.00    +0.000 A 
ATOM      6  C   UNL     1       5.398   6.206  16.031  0.00  0.00    +0.000 A 
ENDROOT
BRANCH   1   8
ATOM      7  N   UNL     1       7.464   5.337  14.168  0.00  0.00    +0.000 NA
ATOM      8  C   UNL     1       6.434   4.589  14.421  0.00  0.00    +0.000 C 
ATOM      9  N   UNL     1       6.092   3.515  13.623  0.00  0.00    +0.000 N 
ATOM     10  H   UNL     1       7.866   4.985  13.291  0.00  0.00    +0.000 HD
ATOM     11  H   UNL     1       5.094   3.445  13.415  0.00  0.00    +0.000 HD
BRANCH   9  12
ATOM     12  O   UNL     1       6.905   3.367  12.496  0.00  0.00    +0.000 OA
ATOM     13  H   UNL     1       7.441   2.581  12.725  0.00  0.00    +0.000 HD
ENDBRANCH   9  12
ENDBRANCH   1   8
BRANCH   4  14
ATOM     14  C   UNL     1       3.085   5.718  18.983  0.00  0.00    +0.000 A 
ATOM     15  C   UNL     1       2.539   4.956  19.996  0.00  0.00    +0.000 A 
ATOM     16  C   UNL     1       1.745   5.829  20.781  0.00  0.00    +0.000 A 
ATOM     17  C   UNL     1       1.848   7.082  20.212  0.00  0.00    +0.000 A 
ATOM     18  O   UNL     1       2.665   7.012  19.119  0.00  0.00    +0.000 OA
BRANCH  17  19
ATOM     19  C   UNL     1       1.297   8.398  20.528  0.00  0.00    +0.000 A 
ATOM     20  C   UNL     1       1.169   9.374  19.528  0.00  0.00    +0.000 A 
ATOM     21  C   UNL     1       0.631  10.633  19.815  0.00  0.00    +0.000 A 
ATOM     22  C   UNL     1       0.217  10.935  21.110  0.00  0.00    +0.000 A 
ATOM     23  C   UNL     1       0.340   9.982  22.116  0.00  0.00    +0.000 A 
ATOM     24  C   UNL     1       0.877   8.723  21.827  0.00  0.00    +0.000 A 
ENDBRANCH  17  19
ENDBRANCH   4  14
TORSDOF 4
ENDMDL
MODEL 8
REMARK VINA RESULT:      -8.0      3.226      4.311
REMARK  Name = 
REMARK  4 active torsions:
REMARK  status: ('A' for Active; 'I' for Inactive)
REMARK    1  A    between atoms: C_2  and  C_5
REMARK    2  A    between atoms: N_3  and  O_4
REMARK    3  A    between atoms: C_8  and  C_9
REMARK    4  A    between atoms: C_12  and  C_13
REMARK                            x       y       z     vdW  Elec       q    Type
REMARK                         _______ _______ _______ _____ _____    ______ ____
ROOT
ATOM      1  C   UNL     1       5.726   4.923  15.422  0.00  0.00    +0.000 A 
ATOM      2  C   UNL     1       5.389   3.878  16.287  0.00  0.00    +0.000 A 
ATOM      3  C   UNL     1       4.588   4.126  17.407  0.00  0.00    +0.000 A 
ATOM      4  C   UNL     1       4.099   5.415  17.674  0.00  0.00    +0.000 A 
ATOM      5  C   UNL     1       4.451   6.453  16.798  0.00  0.00    +0.000 A 
ATOM      6  C   UNL     1       5.260   6.214  15.681  0.00  0.00    +0.000 A 
ENDROOT
BRANCH   1   8
ATOM      7  N   UNL     1       7.655   5.306  14.040  0.00  0.00    +0.000 NA
ATOM      8  C   UNL     1       6.551   4.646  14.213  0.00  0.00    +0.000 C 
ATOM      9  N   UNL     1       6.123   3.684  13.319  0.00  0.00    +0.000 N 
ATOM     10  H   UNL     1       8.041   4.990  13.143  0.00  0.00    +0.000 HD
ATOM     11  H   UNL     1       5.128   3.732  13.092  0.00  0.00    +0.000 HD
BRANCH   9  12
ATOM     12  O   UNL     1       6.944   3.550  12.196  0.00  0.00    +0.000 OA
ATOM     13  H   UNL     1       7.125   4.481  11.956  0.00  0.00    +0.000 HD
ENDBRANCH   9  12
ENDBRANCH   1   8
BRANCH   4  14
ATOM     14  C   UNL     1       3.227   5.656  18.821  0.00  0.00    +0.000 A 
ATOM     15  C   UNL     1       2.713   4.866  19.828  0.00  0.00    +0.000 A 
ATOM     16  C   UNL     1       1.907   5.706  20.636  0.00  0.00    +0.000 A 
ATOM     17  C   UNL     1       1.971   6.970  20.085  0.00  0.00    +0.000 A 
ATOM     18  O   UNL     1       2.776   6.937  18.981  0.00  0.00    +0.000 OA
BRANCH  17  19
ATOM     19  C   UNL     1       1.390   8.267  20.428  0.00  0.00    +0.000 A 
ATOM     20  C   UNL     1       1.050   8.565  21.757  0.00  0.00    +0.000 A 
ATOM     21  C   UNL     1       0.505   9.807  22.099  0.00  0.00    +0.000 A 
ATOM     22  C   UNL     1       0.288  10.767  21.115  0.00  0.00    +0.000 A 
ATOM     23  C   UNL     1       0.615  10.489  19.791  0.00  0.00    +0.000 A 
ATOM     24  C   UNL     1       1.161   9.247  19.451  0.00  0.00    +0.000 A 
ENDBRANCH  17  19
ENDBRANCH   4  14
TORSDOF 4
ENDMDL
MODEL 9
REMARK VINA RESULT:      -7.9      3.135      4.215
REMARK  Name = 
REMARK  4 active torsions:
REMARK  status: ('A' for Active; 'I' for Inactive)
REMARK    1  A    between atoms: C_2  and  C_5
REMARK    2  A    between atoms: N_3  and  O_4
REMARK    3  A    between atoms: C_8  and  C_9
REMARK    4  A    between atoms: C_12  and  C_13
REMARK                            x       y       z     vdW  Elec       q    Type
REMARK                         _______ _______ _______ _____ _____    ______ ____
ROOT
ATOM      1  C   UNL     1       5.500   5.018  15.541  0.00  0.00    +0.000 A 
ATOM      2  C   UNL     1       5.271   6.331  15.963  0.00  0.00    +0.000 A 
ATOM      3  C   UNL     1       4.442   6.579  17.063  0.00  0.00    +0.000 A 
ATOM      4  C   UNL     1       3.842   5.523  17.767  0.00  0.00    +0.000 A 
ATOM      5  C   UNL     1       4.079   4.212  17.327  0.00  0.00    +0.000 A 
ATOM      6  C   UNL     1       4.898   3.957  16.222  0.00  0.00    +0.000 A 
ENDROOT
BRANCH   1   8
ATOM      7  N   UNL     1       7.567   5.346  14.360  0.00  0.00    +0.000 NA
ATOM      8  C   UNL     1       6.410   4.758  14.391  0.00  0.00    +0.000 C 
ATOM      9  N   UNL     1       6.002   3.887  13.400  0.00  0.00    +0.000 N 
ATOM     10  H   UNL     1       8.011   5.060  13.479  0.00  0.00    +0.000 HD
ATOM     11  H   UNL     1       5.038   4.022  13.091  0.00  0.00    +0.000 HD
BRANCH   9  12
ATOM     12  O   UNL     1       6.911   3.765  12.345  0.00  0.00    +0.000 OA
ATOM     13  H   UNL     1       6.968   2.795  12.228  0.00  0.00    +0.000 HD
ENDBRANCH   9  12
ENDBRANCH   1   8
BRANCH   4  14
ATOM     14  C   UNL     1       3.014   5.788  18.941  0.00  0.00    +0.000 A 
ATOM     15  C   UNL     1       2.541   5.019  19.985  0.00  0.00    +0.000 A 
ATOM     16  C   UNL     1       1.764   5.876  20.804  0.00  0.00    +0.000 A 
ATOM     17  C   UNL     1       1.804   7.128  20.223  0.00  0.00    +0.000 A 
ATOM     18  O   UNL     1       2.566   7.071  19.090  0.00  0.00    +0.000 OA
BRANCH  17  19
ATOM     19  C   UNL     1       1.233   8.430  20.559  0.00  0.00    +0.000 A 
ATOM     20  C   UNL     1       0.815   8.707  21.870  0.00  0.00    +0.000 A 
ATOM     21  C   UNL     1       0.278   9.954  22.207  0.00  0.00    +0.000 A 
ATOM     22  C   UNL     1       0.147  10.942  21.234  0.00  0.00    +0.000 A 
ATOM     23  C   UNL     1       0.552  10.685  19.927  0.00  0.00    +0.000 A 
ATOM     24  C   UNL     1       1.089   9.437  19.593  0.00  0.00    +0.000 A 
ENDBRANCH  17  19
ENDBRANCH   4  14
TORSDOF 4
ENDMDL
