MODEL 1
REMARK VINA RESULT:      -8.5      0.000      0.000
REMARK  Name = 
REMARK  5 active torsions:
REMARK  status: ('A' for Active; 'I' for Inactive)
REMARK    1  A    between atoms: C_1  and  O_2
REMARK    2  A    between atoms: O_2  and  C_3
REMARK    3  A    between atoms: C_9  and  C_10
REMARK    4  A    between atoms: N_12  and  C_13
REMARK    5  A    between atoms: C_16  and  C_17
REMARK                            x       y       z     vdW  Elec       q    Type
REMARK                         _______ _______ _______ _____ _____    ______ ____
ROOT
ATOM      1  C   UNL     1       0.361   9.847  20.299  0.00  0.00    +0.000 A 
ATOM      2  C   UNL     1       0.815   8.710  20.977  0.00  0.00    +0.000 A 
ATOM      3  C   UNL     1       1.695   7.801  20.367  0.00  0.00    +0.000 A 
ATOM      4  C   UNL     1       2.136   8.015  19.061  0.00  0.00    +0.000 A 
ATOM      5  C   UNL     1       1.672   9.153  18.382  0.00  0.00    +0.000 A 
ATOM      6  C   UNL     1       0.788  10.052  18.987  0.00  0.00    +0.000 A 
ENDROOT
BRANCH   4   7
ATOM      7  C   UNL     1       2.984   7.068  18.334  0.00  0.00    +0.000 A 
ATOM      8  N   UNL     1       3.909   7.426  17.463  0.00  0.00    +0.000 NA
ATOM      9  C   UNL     1       4.401   6.272  16.927  0.00  0.00    +0.000 A 
ATOM     10  C   UNL     1       5.354   6.103  15.911  0.00  0.00    +0.000 A 
ATOM     11  C   UNL     1       5.673   4.805  15.507  0.00  0.00    +0.000 A 
ATOM     12  C   UNL     1       5.068   3.700  16.111  0.00  0.00    +0.000 A 
ATOM     13  C   UNL     1       4.127   3.850  17.140  0.00  0.00    +0.000 A 
ATOM     14  C   UNL     1       3.812   5.159  17.513  0.00  0.00    +0.000 A 
ATOM     15  N   UNL     1       2.942   5.693  18.436  0.00  0.00    +0.000 N 
ATOM     16  H   UNL     1       2.357   5.169  19.069  0.00  0.00    +0.000 HD
ENDBRANCH   4   7
BRANCH   1  19
ATOM     17  C   UNL     1      -0.629  11.122  22.200  0.00  0.00    +0.000 C 
ATOM     18  O   UNL     1       0.026  10.598  23.099  0.00  0.00    +0.000 OA
ATOM     19  N   UNL     1      -0.513  10.805  20.860  0.00  0.00    +0.000 N 
ATOM     20  H   UNL     1      -1.059  11.365  20.213  0.00  0.00    +0.000 HD
BRANCH  17  27
ATOM     21  C   UNL     1      -1.485  13.568  22.179  0.00  0.00    +0.000 A 
ATOM     22  C   UNL     1      -2.468  14.480  22.605  0.00  0.00    +0.000 A 
ATOM     23  C   UNL     1      -3.510  14.074  23.444  0.00  0.00    +0.000 A 
ATOM     24  C   UNL     1      -3.586  12.754  23.861  0.00  0.00    +0.000 A 
ATOM     25 CL   UNL     1      -4.861  12.253  24.901  0.00  0.00    +0.000 Cl
ATOM     26  C   UNL     1      -2.634  11.834  23.438  0.00  0.00    +0.000 A 
ATOM     27  C   UNL     1      -1.578  12.222  22.585  0.00  0.00    +0.000 A 
BRANCH  21  29
ATOM     28  C   UNL     1       0.644  14.618  21.947  0.00  0.00    +0.000 C 
ATOM     29  O   UNL     1      -0.452  13.928  21.349  0.00  0.00    +0.000 OA
ENDBRANCH  21  29
ENDBRANCH  17  27
ENDBRANCH   1  19
TORSDOF 4
ENDMDL
MODEL 2
REMARK VINA RESULT:      -8.5      0.533      1.065
REMARK  Name = 
REMARK  5 active torsions:
REMARK  status: ('A' for Active; 'I' for Inactive)
REMARK    1  A    between atoms: C_1  and  O_2
REMARK    2  A    between atoms: O_2  and  C_3
REMARK    3  A    between atoms: C_9  and  C_10
REMARK    4  A    between atoms: N_12  and  C_13
REMARK    5  A    between atoms: C_16  and  C_17
REMARK                            x       y       z     vdW  Elec       q    Type
REMARK                         _______ _______ _______ _____ _____    ______ ____
ROOT
ATOM      1  C   UNL     1       0.352  10.161  20.295  0.00  0.00    +0.000 A 
ATOM      2  C   UNL     1       0.631  10.286  18.929  0.00  0.00    +0.000 A 
ATOM      3  C   UNL     1       1.400   9.324  18.252  0.00  0.00    +0.000 A 
ATOM      4  C   UNL     1       1.906   8.219  18.935  0.00  0.00    +0.000 A 
ATOM      5  C   UNL     1       1.629   8.101  20.306  0.00  0.00    +0.000 A 
ATOM      6  C   UNL     1       0.872   9.064  20.982  0.00  0.00    +0.000 A 
ENDROOT
BRANCH   4   7
ATOM      7  C   UNL     1       2.784   7.225  18.314  0.00  0.00    +0.000 A 
ATOM      8  N   UNL     1       3.786   7.528  17.510  0.00  0.00    +0.000 NA
ATOM      9  C   UNL     1       4.288   6.344  17.057  0.00  0.00    +0.000 A 
ATOM     10  C   UNL     1       5.316   6.114  16.129  0.00  0.00    +0.000 A 
ATOM     11  C   UNL     1       5.632   4.794  15.798  0.00  0.00    +0.000 A 
ATOM     12  C   UNL     1       4.951   3.728  16.389  0.00  0.00    +0.000 A 
ATOM     13  C   UNL     1       3.933   3.938  17.331  0.00  0.00    +0.000 A 
ATOM     14  C   UNL     1       3.624   5.267  17.631  0.00  0.00    +0.000 A 
ATOM     15  N   UNL     1       2.697   5.856  18.460  0.00  0.00    +0.000 N 
ATOM     16  H   UNL     1       2.048   5.370  19.061  0.00  0.00    +0.000 HD
ENDBRANCH   4   7
BRANCH   1  19
ATOM     17  C   UNL     1      -0.555  11.133  22.405  0.00  0.00    +0.000 C 
ATOM     18  O   UNL     1      -0.002  10.360  23.185  0.00  0.00    +0.000 OA
ATOM     19  N   UNL     1      -0.425  11.084  21.030  0.00  0.00    +0.000 N 
ATOM     20  H   UNL     1      -0.876  11.828  20.506  0.00  0.00    +0.000 HD
BRANCH  17  27
ATOM     21  C   UNL     1      -0.995  13.590  23.103  0.00  0.00    +0.000 A 
ATOM     22  C   UNL     1      -1.895  14.516  23.662  0.00  0.00    +0.000 A 
ATOM     23  C   UNL     1      -3.145  14.110  24.136  0.00  0.00    +0.000 A 
ATOM     24  C   UNL     1      -3.514  12.775  24.051  0.00  0.00    +0.000 A 
ATOM     25 CL   UNL     1      -5.048  12.269  24.642  0.00  0.00    +0.000 Cl
ATOM     26  C   UNL     1      -2.647  11.848  23.487  0.00  0.00    +0.000 A 
ATOM     27  C   UNL     1      -1.384  12.239  22.997  0.00  0.00    +0.000 A 
BRANCH  21  29
ATOM     28  C   UNL     1       0.389  15.308  22.199  0.00  0.00    +0.000 C 
ATOM     29  O   UNL     1       0.237  13.953  22.620  0.00  0.00    +0.000 OA
ENDBRANCH  21  29
ENDBRANCH  17  27
ENDBRANCH   1  19
TORSDOF 4
ENDMDL
MODEL 3
REMARK VINA RESULT:      -8.4      0.235      1.133
REMARK  Name = 
REMARK  5 active torsions:
REMARK  status: ('A' for Active; 'I' for Inactive)
REMARK    1  A    between atoms: C_1  and  O_2
REMARK    2  A    between atoms: O_2  and  C_3
REMARK    3  A    between atoms: C_9  and  C_10
REMARK    4  A    between atoms: N_12  and  C_13
REMARK    5  A    between atoms: C_16  and  C_17
REMARK                            x       y       z     vdW  Elec       q    Type
REMARK                         _______ _______ _______ _____ _____    ______ ____
ROOT
ATOM      1  C   UNL     1       0.448   9.867  20.223  0.00  0.00    +0.000 A 
ATOM      2  C   UNL     1       0.921   8.724  20.878  0.00  0.00    +0.000 A 
ATOM      3  C   UNL     1       1.767   7.810  20.226  0.00  0.00    +0.000 A 
ATOM      4  C   UNL     1       2.152   8.025  18.904  0.00  0.00    +0.000 A 
ATOM      5  C   UNL     1       1.669   9.169  18.249  0.00  0.00    +0.000 A 
ATOM      6  C   UNL     1       0.820  10.074  18.894  0.00  0.00    +0.000 A 
ENDROOT
BRANCH   4   7
ATOM      7  C   UNL     1       2.959   7.073  18.138  0.00  0.00    +0.000 A 
ATOM      8  N   UNL     1       2.755   5.768  18.137  0.00  0.00    +0.000 NA
ATOM      9  C   UNL     1       3.765   5.221  17.401  0.00  0.00    +0.000 A 
ATOM     10  C   UNL     1       4.045   3.869  17.147  0.00  0.00    +0.000 A 
ATOM     11  C   UNL     1       5.169   3.554  16.381  0.00  0.00    +0.000 A 
ATOM     12  C   UNL     1       5.987   4.562  15.866  0.00  0.00    +0.000 A 
ATOM     13  C   UNL     1       5.713   5.919  16.095  0.00  0.00    +0.000 A 
ATOM     14  C   UNL     1       4.593   6.207  16.879  0.00  0.00    +0.000 A 
ATOM     15  N   UNL     1       4.033   7.381  17.329  0.00  0.00    +0.000 N 
ATOM     16  H   UNL     1       4.364   8.311  17.121  0.00  0.00    +0.000 HD
ENDBRANCH   4   7
BRANCH   1  19
ATOM     17  C   UNL     1      -0.519  11.075  22.178  0.00  0.00    +0.000 C 
ATOM     18  O   UNL     1       0.094  10.471  23.056  0.00  0.00    +0.000 OA
ATOM     19  N   UNL     1      -0.392  10.830  20.824  0.00  0.00    +0.000 N 
ATOM     20  H   UNL     1      -0.900  11.452  20.202  0.00  0.00    +0.000 HD
BRANCH  17  27
ATOM     21  C   UNL     1      -1.261  13.556  22.289  0.00  0.00    +0.000 A 
ATOM     22  C   UNL     1      -2.211  14.486  22.751  0.00  0.00    +0.000 A 
ATOM     23  C   UNL     1      -3.288  14.080  23.543  0.00  0.00    +0.000 A 
ATOM     24  C   UNL     1      -3.434  12.742  23.878  0.00  0.00    +0.000 A 
ATOM     25 CL   UNL     1      -4.753  12.241  24.861  0.00  0.00    +0.000 Cl
ATOM     26  C   UNL     1      -2.516  11.806  23.418  0.00  0.00    +0.000 A 
ATOM     27  C   UNL     1      -1.425  12.193  22.611  0.00  0.00    +0.000 A 
BRANCH  21  29
ATOM     28  C   UNL     1       0.712  14.874  22.046  0.00  0.00    +0.000 C 
ATOM     29  O   UNL     1      -0.195  13.915  21.503  0.00  0.00    +0.000 OA
ENDBRANCH  21  29
ENDBRANCH  17  27
ENDBRANCH   1  19
TORSDOF 4
ENDMDL
MODEL 4
REMARK VINA RESULT:      -8.4      0.623      1.566
REMARK  Name = 
REMARK  5 active torsions:
REMARK  status: ('A' for Active; 'I' for Inactive)
REMARK    1  A    between atoms: C_1  and  O_2
REMARK    2  A    between atoms: O_2  and  C_3
REMARK    3  A    between atoms: C_9  and  C_10
REMARK    4  A    between atoms: N_12  and  C_13
REMARK    5  A    between atoms: C_16  and  C_17
REMARK                            x       y       z     vdW  Elec       q    Type
REMARK                         _______ _______ _______ _____ _____    ______ ____
ROOT
ATOM      1  C   UNL     1       0.294  10.247  20.237  0.00  0.00    +0.000 A 
ATOM      2  C   UNL     1       0.589  10.412  18.879  0.00  0.00    +0.000 A 
ATOM      3  C   UNL     1       1.339   9.454  18.176  0.00  0.00    +0.000 A 
ATOM      4  C   UNL     1       1.810   8.313  18.825  0.00  0.00    +0.000 A 
ATOM      5  C   UNL     1       1.518   8.155  20.188  0.00  0.00    +0.000 A 
ATOM      6  C   UNL     1       0.780   9.114  20.891  0.00  0.00    +0.000 A 
ENDROOT
BRANCH   4   7
ATOM      7  C   UNL     1       2.668   7.318  18.177  0.00  0.00    +0.000 A 
ATOM      8  N   UNL     1       2.438   6.018  18.204  0.00  0.00    +0.000 NA
ATOM      9  C   UNL     1       3.503   5.425  17.591  0.00  0.00    +0.000 A 
ATOM     10  C   UNL     1       3.777   4.061  17.416  0.00  0.00    +0.000 A 
ATOM     11  C   UNL     1       4.964   3.696  16.776  0.00  0.00    +0.000 A 
ATOM     12  C   UNL     1       5.850   4.670  16.308  0.00  0.00    +0.000 A 
ATOM     13  C   UNL     1       5.583   6.039  16.459  0.00  0.00    +0.000 A 
ATOM     14  C   UNL     1       4.398   6.376  17.117  0.00  0.00    +0.000 A 
ATOM     15  N   UNL     1       3.822   7.576  17.468  0.00  0.00    +0.000 N 
ATOM     16  H   UNL     1       4.191   8.491  17.258  0.00  0.00    +0.000 HD
ENDBRANCH   4   7
BRANCH   1  19
ATOM     17  C   UNL     1      -0.577  11.192  22.374  0.00  0.00    +0.000 C 
ATOM     18  O   UNL     1      -0.019  10.403  23.134  0.00  0.00    +0.000 OA
ATOM     19  N   UNL     1      -0.465  11.165  20.997  0.00  0.00    +0.000 N 
ATOM     20  H   UNL     1      -0.917  11.920  20.491  0.00  0.00    +0.000 HD
BRANCH  17  27
ATOM     21  C   UNL     1      -0.981  13.638  23.132  0.00  0.00    +0.000 A 
ATOM     22  C   UNL     1      -1.866  14.563  23.715  0.00  0.00    +0.000 A 
ATOM     23  C   UNL     1      -3.121  14.163  24.183  0.00  0.00    +0.000 A 
ATOM     24  C   UNL     1      -3.509  12.836  24.068  0.00  0.00    +0.000 A 
ATOM     25 CL   UNL     1      -5.047  12.337  24.651  0.00  0.00    +0.000 Cl
ATOM     26  C   UNL     1      -2.656  11.910  23.480  0.00  0.00    +0.000 A 
ATOM     27  C   UNL     1      -1.388  12.295  22.995  0.00  0.00    +0.000 A 
BRANCH  21  29
ATOM     28  C   UNL     1       0.281  14.762  21.450  0.00  0.00    +0.000 C 
ATOM     29  O   UNL     1       0.255  13.996  22.653  0.00  0.00    +0.000 OA
ENDBRANCH  21  29
ENDBRANCH  17  27
ENDBRANCH   1  19
TORSDOF 4
ENDMDL
MODEL 5
REMARK VINA RESULT:      -8.3      3.909     10.305
REMARK  Name = 
REMARK  5 active torsions:
REMARK  status: ('A' for Active; 'I' for Inactive)
REMARK    1  A    between atoms: C_1  and  O_2
REMARK    2  A    between atoms: O_2  and  C_3
REMARK    3  A    between atoms: C_9  and  C_10
REMARK    4  A    between atoms: N_12  and  C_13
REMARK    5  A    between atoms: C_16  and  C_17
REMARK                            x       y       z     vdW  Elec       q    Type
REMARK                         _______ _______ _______ _____ _____    ______ ____
ROOT
ATOM      1  C   UNL     1       1.438   8.658  20.098  0.00  0.00    +0.000 A 
ATOM      2  C   UNL     1       0.973   9.777  19.397  0.00  0.00    +0.000 A 
ATOM      3  C   UNL     1       0.291  10.816  20.053  0.00  0.00    +0.000 A 
ATOM      4  C   UNL     1       0.060  10.749  21.427  0.00  0.00    +0.000 A 
ATOM      5  C   UNL     1       0.522   9.622  22.125  0.00  0.00    +0.000 A 
ATOM      6  C   UNL     1       1.192   8.584  21.469  0.00  0.00    +0.000 A 
ENDROOT
BRANCH   4   7
ATOM      7  C   UNL     1      -0.716  11.752  22.160  0.00  0.00    +0.000 A 
ATOM      8  N   UNL     1      -0.266  12.956  22.461  0.00  0.00    +0.000 NA
ATOM      9  C   UNL     1      -1.227  13.545  23.229  0.00  0.00    +0.000 A 
ATOM     10  C   UNL     1      -1.212  14.799  23.859  0.00  0.00    +0.000 A 
ATOM     11  C   UNL     1      -2.316  15.172  24.629  0.00  0.00    +0.000 A 
ATOM     12  C   UNL     1      -3.416  14.320  24.756  0.00  0.00    +0.000 A 
ATOM     13  C   UNL     1      -3.456  13.071  24.120  0.00  0.00    +0.000 A 
ATOM     14  C   UNL     1      -2.332  12.715  23.370  0.00  0.00    +0.000 A 
ATOM     15  N   UNL     1      -1.998  11.595  22.644  0.00  0.00    +0.000 N 
ATOM     16  H   UNL     1      -2.583  10.785  22.505  0.00  0.00    +0.000 HD
ENDBRANCH   4   7
BRANCH   1  19
ATOM     17  C   UNL     1       2.656   7.562  18.218  0.00  0.00    +0.000 C 
ATOM     18  O   UNL     1       2.565   8.485  17.412  0.00  0.00    +0.000 OA
ATOM     19  N   UNL     1       2.141   7.588  19.500  0.00  0.00    +0.000 N 
ATOM     20  H   UNL     1       2.351   6.788  20.089  0.00  0.00    +0.000 HD
BRANCH  17  27
ATOM     21  C   UNL     1       2.941   5.023  17.780  0.00  0.00    +0.000 A 
ATOM     22  C   UNL     1       3.783   3.989  17.332  0.00  0.00    +0.000 A 
ATOM     23  C   UNL     1       5.096   4.252  16.932  0.00  0.00    +0.000 A 
ATOM     24  C   UNL     1       5.582   5.550  16.970  0.00  0.00    +0.000 A 
ATOM     25 CL   UNL     1       7.200   5.876  16.488  0.00  0.00    +0.000 Cl
ATOM     26  C   UNL     1       4.761   6.588  17.394  0.00  0.00    +0.000 A 
ATOM     27  C   UNL     1       3.431   6.345  17.794  0.00  0.00    +0.000 A 
BRANCH  21  29
ATOM     28  C   UNL     1       1.435   3.828  19.191  0.00  0.00    +0.000 C 
ATOM     29  O   UNL     1       1.644   4.805  18.172  0.00  0.00    +0.000 OA
ENDBRANCH  21  29
ENDBRANCH  17  27
ENDBRANCH   1  19
TORSDOF 4
ENDMDL
MODEL 6
REMARK VINA RESULT:      -8.3      3.870     10.265
REMARK  Name = 
REMARK  5 active torsions:
REMARK  status: ('A' for Active; 'I' for Inactive)
REMARK    1  A    between atoms: C_1  and  O_2
REMARK    2  A    between atoms: O_2  and  C_3
REMARK    3  A    between atoms: C_9  and  C_10
REMARK    4  A    between atoms: N_12  and  C_13
REMARK    5  A    between atoms: C_16  and  C_17
REMARK                            x       y       z     vdW  Elec       q    Type
REMARK                         _______ _______ _______ _____ _____    ______ ____
ROOT
ATOM      1  C   UNL     1       1.481   8.518  20.201  0.00  0.00    +0.000 A 
ATOM      2  C   UNL     1       1.345   8.477  21.594  0.00  0.00    +0.000 A 
ATOM      3  C   UNL     1       0.588   9.442  22.280  0.00  0.00    +0.000 A 
ATOM      4  C   UNL     1      -0.047  10.468  21.580  0.00  0.00    +0.000 A 
ATOM      5  C   UNL     1       0.098  10.509  20.185  0.00  0.00    +0.000 A 
ATOM      6  C   UNL     1       0.860   9.554  19.503  0.00  0.00    +0.000 A 
ENDROOT
BRANCH   4   7
ATOM      7  C   UNL     1      -0.780  11.553  22.236  0.00  0.00    +0.000 A 
ATOM      8  N   UNL     1      -0.282  12.759  22.441  0.00  0.00    +0.000 NA
ATOM      9  C   UNL     1      -1.214  13.442  23.165  0.00  0.00    +0.000 A 
ATOM     10  C   UNL     1      -1.147  14.740  23.695  0.00  0.00    +0.000 A 
ATOM     11  C   UNL     1      -2.231  15.213  24.439  0.00  0.00    +0.000 A 
ATOM     12  C   UNL     1      -3.361  14.416  24.637  0.00  0.00    +0.000 A 
ATOM     13  C   UNL     1      -3.453  13.124  24.100  0.00  0.00    +0.000 A 
ATOM     14  C   UNL     1      -2.348  12.668  23.375  0.00  0.00    +0.000 A 
ATOM     15  N   UNL     1      -2.062  11.483  22.738  0.00  0.00    +0.000 N 
ATOM     16  H   UNL     1      -2.679  10.688  22.664  0.00  0.00    +0.000 HD
ENDBRANCH   4   7
BRANCH   1  19
ATOM     17  C   UNL     1       2.369   6.232  19.749  0.00  0.00    +0.000 C 
ATOM     18  O   UNL     1       1.877   5.675  20.729  0.00  0.00    +0.000 OA
ATOM     19  N   UNL     1       2.216   7.573  19.452  0.00  0.00    +0.000 N 
ATOM     20  H   UNL     1       2.613   7.889  18.572  0.00  0.00    +0.000 HD
BRANCH  17  27
ATOM     21  C   UNL     1       2.616   4.313  18.025  0.00  0.00    +0.000 A 
ATOM     22  C   UNL     1       3.464   3.620  17.142  0.00  0.00    +0.000 A 
ATOM     23  C   UNL     1       4.817   3.954  17.032  0.00  0.00    +0.000 A 
ATOM     24  C   UNL     1       5.336   4.987  17.798  0.00  0.00    +0.000 A 
ATOM     25 CL   UNL     1       7.002   5.395  17.673  0.00  0.00    +0.000 Cl
ATOM     26  C   UNL     1       4.511   5.695  18.663  0.00  0.00    +0.000 A 
ATOM     27  C   UNL     1       3.142   5.378  18.784  0.00  0.00    +0.000 A 
BRANCH  21  29
ATOM     28  C   UNL     1       0.953   2.757  18.733  0.00  0.00    +0.000 C 
ATOM     29  O   UNL     1       1.281   4.019  18.154  0.00  0.00    +0.000 OA
ENDBRANCH  21  29
ENDBRANCH  17  27
ENDBRANCH   1  19
TORSDOF 4
ENDMDL
MODEL 7
REMARK VINA RESULT:      -8.2      1.048      1.502
REMARK  Name = 
REMARK  5 active torsions:
REMARK  status: ('A' for Active; 'I' for Inactive)
REMARK    1  A    between atoms: C_1  and  O_2
REMARK    2  A    between atoms: O_2  and  C_3
REMARK    3  A    between atoms: C_9  and  C_10
REMARK    4  A    between atoms: N_12  and  C_13
REMARK    5  A    between atoms: C_16  and  C_17
REMARK                            x       y       z     vdW  Elec       q    Type
REMARK                         _______ _______ _______ _____ _____    ______ ____
ROOT
ATOM      1  C   UNL     1       0.413   9.593  19.700  0.00  0.00    +0.000 A 
ATOM      2  C   UNL     1       1.005   8.574  20.455  0.00  0.00    +0.000 A 
ATOM      3  C   UNL     1       1.976   7.725  19.898  0.00  0.00    +0.000 A 
ATOM      4  C   UNL     1       2.371   7.883  18.570  0.00  0.00    +0.000 A 
ATOM      5  C   UNL     1       1.770   8.901  17.814  0.00  0.00    +0.000 A 
ATOM      6  C   UNL     1       0.795   9.739  18.366  0.00  0.00    +0.000 A 
ENDROOT
BRANCH   4   7
ATOM      7  C   UNL     1       3.314   6.983  17.901  0.00  0.00    +0.000 A 
ATOM      8  N   UNL     1       3.088   5.697  17.701  0.00  0.00    +0.000 NA
ATOM      9  C   UNL     1       4.229   5.187  17.154  0.00  0.00    +0.000 A 
ATOM     10  C   UNL     1       4.531   3.859  16.814  0.00  0.00    +0.000 A 
ATOM     11  C   UNL     1       5.795   3.577  16.291  0.00  0.00    +0.000 A 
ATOM     12  C   UNL     1       6.731   4.595  16.097  0.00  0.00    +0.000 A 
ATOM     13  C   UNL     1       6.439   5.930  16.415  0.00  0.00    +0.000 A 
ATOM     14  C   UNL     1       5.175   6.184  16.953  0.00  0.00    +0.000 A 
ATOM     15  N   UNL     1       4.551   7.326  17.399  0.00  0.00    +0.000 N 
ATOM     16  H   UNL     1       4.940   8.257  17.381  0.00  0.00    +0.000 HD
ENDBRANCH   4   7
BRANCH   1  19
ATOM     17  C   UNL     1      -0.401  11.351  21.270  0.00  0.00    +0.000 C 
ATOM     18  O   UNL     1       0.627  11.455  21.936  0.00  0.00    +0.000 OA
ATOM     19  N   UNL     1      -0.558  10.486  20.203  0.00  0.00    +0.000 N 
ATOM     20  H   UNL     1      -1.433  10.553  19.692  0.00  0.00    +0.000 HD
BRANCH  17  27
ATOM     21  C   UNL     1      -1.951  13.386  20.850  0.00  0.00    +0.000 A 
ATOM     22  C   UNL     1      -3.057  14.138  21.286  0.00  0.00    +0.000 A 
ATOM     23  C   UNL     1      -3.729  13.812  22.467  0.00  0.00    +0.000 A 
ATOM     24  C   UNL     1      -3.309  12.728  23.223  0.00  0.00    +0.000 A 
ATOM     25 CL   UNL     1      -4.127  12.329  24.681  0.00  0.00    +0.000 Cl
ATOM     26  C   UNL     1      -2.229  11.962  22.801  0.00  0.00    +0.000 A 
ATOM     27  C   UNL     1      -1.541  12.270  21.608  0.00  0.00    +0.000 A 
BRANCH  21  29
ATOM     28  C   UNL     1      -0.394  14.796  19.720  0.00  0.00    +0.000 C 
ATOM     29  O   UNL     1      -1.271  13.671  19.692  0.00  0.00    +0.000 OA
ENDBRANCH  21  29
ENDBRANCH  17  27
ENDBRANCH   1  19
TORSDOF 4
ENDMDL
MODEL 8
REMARK VINA RESULT:      -8.2      1.238      1.268
REMARK  Name = 
REMARK  5 active torsions:
REMARK  status: ('A' for Active; 'I' for Inactive)
REMARK    1  A    between atoms: C_1  and  O_2
REMARK    2  A    between atoms: O_2  and  C_3
REMARK    3  A    between atoms: C_9  and  C_10
REMARK    4  A    between atoms: N_12  and  C_13
REMARK    5  A    between atoms: C_16  and  C_17
REMARK                            x       y       z     vdW  Elec       q    Type
REMARK                         _______ _______ _______ _____ _____    ______ ____
ROOT
ATOM      1  C   UNL     1       0.623   9.494  19.645  0.00  0.00    +0.000 A 
ATOM      2  C   UNL     1       1.143   8.436  20.401  0.00  0.00    +0.000 A 
ATOM      3  C   UNL     1       2.109   7.567  19.867  0.00  0.00    +0.000 A 
ATOM      4  C   UNL     1       2.571   7.741  18.563  0.00  0.00    +0.000 A 
ATOM      5  C   UNL     1       2.041   8.798  17.807  0.00  0.00    +0.000 A 
ATOM      6  C   UNL     1       1.071   9.658  18.334  0.00  0.00    +0.000 A 
ENDROOT
BRANCH   4   7
ATOM      7  C   UNL     1       3.511   6.824  17.915  0.00  0.00    +0.000 A 
ATOM      8  N   UNL     1       4.680   7.194  17.424  0.00  0.00    +0.000 NA
ATOM      9  C   UNL     1       5.207   6.093  16.815  0.00  0.00    +0.000 A 
ATOM     10  C   UNL     1       6.400   5.970  16.086  0.00  0.00    +0.000 A 
ATOM     11  C   UNL     1       6.712   4.730  15.524  0.00  0.00    +0.000 A 
ATOM     12  C   UNL     1       5.863   3.634  15.696  0.00  0.00    +0.000 A 
ATOM     13  C   UNL     1       4.675   3.735  16.436  0.00  0.00    +0.000 A 
ATOM     14  C   UNL     1       4.377   4.990  16.973  0.00  0.00    +0.000 A 
ATOM     15  N   UNL     1       3.323   5.473  17.713  0.00  0.00    +0.000 N 
ATOM     16  H   UNL     1       2.534   4.935  18.039  0.00  0.00    +0.000 HD
ENDBRANCH   4   7
BRANCH   1  19
ATOM     17  C   UNL     1      -0.090  11.527  20.900  0.00  0.00    +0.000 C 
ATOM     18  O   UNL     1       1.025  11.876  21.281  0.00  0.00    +0.000 OA
ATOM     19  N   UNL     1      -0.339  10.410  20.126  0.00  0.00    +0.000 N 
ATOM     20  H   UNL     1      -1.298  10.276  19.818  0.00  0.00    +0.000 HD
BRANCH  17  27
ATOM     21  C   UNL     1      -1.671  13.549  20.535  0.00  0.00    +0.000 A 
ATOM     22  C   UNL     1      -2.796  14.265  20.982  0.00  0.00    +0.000 A 
ATOM     23  C   UNL     1      -3.479  13.882  22.140  0.00  0.00    +0.000 A 
ATOM     24  C   UNL     1      -3.050  12.777  22.861  0.00  0.00    +0.000 A 
ATOM     25 CL   UNL     1      -3.881  12.309  24.291  0.00  0.00    +0.000 Cl
ATOM     26  C   UNL     1      -1.950  12.047  22.426  0.00  0.00    +0.000 A 
ATOM     27  C   UNL     1      -1.252  12.412  21.256  0.00  0.00    +0.000 A 
BRANCH  21  29
ATOM     28  C   UNL     1      -0.111  15.017  19.487  0.00  0.00    +0.000 C 
ATOM     29  O   UNL     1      -0.981  13.889  19.398  0.00  0.00    +0.000 OA
ENDBRANCH  21  29
ENDBRANCH  17  27
ENDBRANCH   1  19
TORSDOF 4
ENDMDL
MODEL 9
REMARK VINA RESULT:      -8.2      3.839     10.328
REMARK  Name = 
REMARK  5 active torsions:
REMARK  status: ('A' for Active; 'I' for Inactive)
REMARK    1  A    between atoms: C_1  and  O_2
REMARK    2  A    between atoms: O_2  and  C_3
REMARK    3  A    between atoms: C_9  and  C_10
REMARK    4  A    between atoms: N_12  and  C_13
REMARK    5  A    between atoms: C_16  and  C_17
REMARK                            x       y       z     vdW  Elec       q    Type
REMARK                         _______ _______ _______ _____ _____    ______ ____
ROOT
ATOM      1  C   UNL     1       1.202   8.760  20.833  0.00  0.00    +0.000 A 
ATOM      2  C   UNL     1       1.105   9.985  20.162  0.00  0.00    +0.000 A 
ATOM      3  C   UNL     1       0.435  11.079  20.736  0.00  0.00    +0.000 A 
ATOM      4  C   UNL     1      -0.153  10.963  21.995  0.00  0.00    +0.000 A 
ATOM      5  C   UNL     1      -0.060   9.731  22.661  0.00  0.00    +0.000 A 
ATOM      6  C   UNL     1       0.598   8.639  22.085  0.00  0.00    +0.000 A 
ENDROOT
BRANCH   4   7
ATOM      7  C   UNL     1      -0.939  12.032  22.616  0.00  0.00    +0.000 A 
ATOM      8  N   UNL     1      -0.426  13.175  23.034  0.00  0.00    +0.000 NA
ATOM      9  C   UNL     1      -1.441  13.853  23.642  0.00  0.00    +0.000 A 
ATOM     10  C   UNL     1      -1.407  15.086  24.310  0.00  0.00    +0.000 A 
ATOM     11  C   UNL     1      -2.586  15.565  24.886  0.00  0.00    +0.000 A 
ATOM     12  C   UNL     1      -3.775  14.838  24.787  0.00  0.00    +0.000 A 
ATOM     13  C   UNL     1      -3.831  13.611  24.108  0.00  0.00    +0.000 A 
ATOM     14  C   UNL     1      -2.634  13.146  23.556  0.00  0.00    +0.000 A 
ATOM     15  N   UNL     1      -2.295  12.009  22.861  0.00  0.00    +0.000 N 
ATOM     16  H   UNL     1      -2.928  11.270  22.592  0.00  0.00    +0.000 HD
ENDBRANCH   4   7
BRANCH   1  19
ATOM     17  C   UNL     1       2.213   7.410  18.997  0.00  0.00    +0.000 C 
ATOM     18  O   UNL     1       1.969   8.188  18.077  0.00  0.00    +0.000 OA
ATOM     19  N   UNL     1       1.872   7.628  20.318  0.00  0.00    +0.000 N 
ATOM     20  H   UNL     1       2.198   6.940  20.989  0.00  0.00    +0.000 HD
BRANCH  17  27
ATOM     21  C   UNL     1       2.918   4.943  19.368  0.00  0.00    +0.000 A 
ATOM     22  C   UNL     1       3.686   3.853  18.918  0.00  0.00    +0.000 A 
ATOM     23  C   UNL     1       4.527   3.975  17.809  0.00  0.00    +0.000 A 
ATOM     24  C   UNL     1       4.608   5.184  17.133  0.00  0.00    +0.000 A 
ATOM     25 CL   UNL     1       5.649   5.340  15.774  0.00  0.00    +0.000 Cl
ATOM     26  C   UNL     1       3.845   6.267  17.551  0.00  0.00    +0.000 A 
ATOM     27  C   UNL     1       2.984   6.163  18.664  0.00  0.00    +0.000 A 
BRANCH  21  29
ATOM     28  C   UNL     1       1.053   3.865  20.389  0.00  0.00    +0.000 C 
ATOM     29  O   UNL     1       2.074   4.859  20.447  0.00  0.00    +0.000 OA
ENDBRANCH  21  29
ENDBRANCH  17  27
ENDBRANCH   1  19
TORSDOF 4
ENDMDL
