MODEL 1
REMARK VINA RESULT:      -7.4      0.000      0.000
REMARK  Name = 
REMARK  8 active torsions:
REMARK  status: ('A' for Active; 'I' for Inactive)
REMARK    1  A    between atoms: C_1  and  C_2
REMARK    2  A    between atoms: C_4  and  C_5
REMARK    3  A    between atoms: C_8  and  C_9
REMARK    4  A    between atoms: C_11  and  S_12
REMARK    5  A    between atoms: S_12  and  C_13
REMARK    6  A    between atoms: C_13  and  C_14
REMARK    7  A    between atoms: N_16  and  C_17
REMARK    8  A    between atoms: C_17  and  C_18
REMARK                            x       y       z     vdW  Elec       q    Type
REMARK                         _______ _______ _______ _____ _____    ______ ____
ROOT
ATOM      1  C   UNL     1       1.686  11.094  17.950  0.00  0.00    +0.000 C 
ATOM      2  C   UNL     1       1.620   9.856  18.797  0.00  0.00    +0.000 A 
ATOM      3  C   UNL     1       1.046   9.892  20.067  0.00  0.00    +0.000 A 
ATOM      4  C   UNL     1       0.983   8.735  20.856  0.00  0.00    +0.000 A 
ATOM      5  C   UNL     1       0.353   8.828  22.221  0.00  0.00    +0.000 C 
ATOM      6  C   UNL     1       1.509   7.517  20.349  0.00  0.00    +0.000 A 
ATOM      7  C   UNL     1       1.483   6.313  21.072  0.00  0.00    +0.000 A 
ATOM      8  C   UNL     1       2.012   5.137  20.531  0.00  0.00    +0.000 A 
ATOM      9  C   UNL     1       2.567   5.187  19.256  0.00  0.00    +0.000 A 
ATOM     10  N   UNL     1       2.609   6.339  18.540  0.00  0.00    +0.000 NA
ATOM     11  C   UNL     1       2.095   7.471  19.066  0.00  0.00    +0.000 A 
ATOM     12  C   UNL     1       2.137   8.643  18.319  0.00  0.00    +0.000 A 
ENDROOT
BRANCH   8  13
ATOM     13  C   UNL     1       1.953   3.941  21.314  0.00  0.00    +0.000 C 
ATOM     14  N   UNL     1       1.925   3.002  21.994  0.00  0.00    +0.000 NA
ENDBRANCH   8  13
BRANCH   9  15
ATOM     15  S   UNL     1       3.264   3.722  18.492  0.00  0.00    +0.000 S 
BRANCH  15  16
ATOM     16  C   UNL     1       4.939   3.703  19.216  0.00  0.00    +0.000 C 
BRANCH  16  17
ATOM     17  C   UNL     1       5.955   4.453  18.361  0.00  0.00    +0.000 C 
ATOM     18  O   UNL     1       7.153   4.443  18.645  0.00  0.00    +0.000 OA
ATOM     19  N   UNL     1       5.475   5.056  17.221  0.00  0.00    +0.000 N 
ATOM     20  H   UNL     1       4.470   5.125  17.092  0.00  0.00    +0.000 HD
BRANCH  19  21
ATOM     21  C   UNL     1       6.314   5.804  16.296  0.00  0.00    +0.000 C 
BRANCH  21  22
ATOM     22  C   UNL     1       6.061   5.427  14.833  0.00  0.00    +0.000 C 
ATOM     23  C   UNL     1       5.599   3.997  14.609  0.00  0.00    +0.000 C 
ATOM     24  C   UNL     1       6.063   3.733  13.199  0.00  0.00    +0.000 C 
ATOM     25  C   UNL     1       7.363   4.506  13.128  0.00  0.00    +0.000 C 
ATOM     26  O   UNL     1       7.270   5.590  14.063  0.00  0.00    +0.000 OA
ENDBRANCH  21  22
ENDBRANCH  19  21
ENDBRANCH  16  17
ENDBRANCH  15  16
ENDBRANCH   9  15
TORSDOF 6
ENDMDL
MODEL 2
REMARK VINA RESULT:      -7.3      4.256      6.713
REMARK  Name = 
REMARK  8 active torsions:
REMARK  status: ('A' for Active; 'I' for Inactive)
REMARK    1  A    between atoms: C_1  and  C_2
REMARK    2  A    between atoms: C_4  and  C_5
REMARK    3  A    between atoms: C_8  and  C_9
REMARK    4  A    between atoms: C_11  and  S_12
REMARK    5  A    between atoms: S_12  and  C_13
REMARK    6  A    between atoms: C_13  and  C_14
REMARK    7  A    between atoms: N_16  and  C_17
REMARK    8  A    between atoms: C_17  and  C_18
REMARK                            x       y       z     vdW  Elec       q    Type
REMARK                         _______ _______ _______ _____ _____    ______ ____
ROOT
ATOM      1  C   UNL     1       1.497   2.873  21.919  0.00  0.00    +0.000 C 
ATOM      2  C   UNL     1       2.074   3.314  20.605  0.00  0.00    +0.000 A 
ATOM      3  C   UNL     1       1.248   3.529  19.502  0.00  0.00    +0.000 A 
ATOM      4  C   UNL     1       1.789   3.943  18.276  0.00  0.00    +0.000 A 
ATOM      5  C   UNL     1       0.853   4.160  17.115  0.00  0.00    +0.000 C 
ATOM      6  C   UNL     1       3.190   4.145  18.164  0.00  0.00    +0.000 A 
ATOM      7  C   UNL     1       3.809   4.562  16.975  0.00  0.00    +0.000 A 
ATOM      8  C   UNL     1       5.194   4.750  16.913  0.00  0.00    +0.000 A 
ATOM      9  C   UNL     1       5.945   4.514  18.060  0.00  0.00    +0.000 A 
ATOM     10  N   UNL     1       5.370   4.105  19.220  0.00  0.00    +0.000 NA
ATOM     11  C   UNL     1       4.033   3.928  19.274  0.00  0.00    +0.000 A 
ATOM     12  C   UNL     1       3.455   3.517  20.470  0.00  0.00    +0.000 A 
ENDROOT
BRANCH   8  13
ATOM     13  C   UNL     1       5.768   5.180  15.675  0.00  0.00    +0.000 C 
ATOM     14  N   UNL     1       6.283   5.505  14.689  0.00  0.00    +0.000 NA
ENDBRANCH   8  13
BRANCH   9  15
ATOM     15  S   UNL     1       7.725   4.734  18.062  0.00  0.00    +0.000 S 
BRANCH  15  16
ATOM     16  C   UNL     1       7.898   6.242  19.074  0.00  0.00    +0.000 C 
BRANCH  16  17
ATOM     17  C   UNL     1       8.079   7.498  18.227  0.00  0.00    +0.000 C 
ATOM     18  O   UNL     1       7.658   7.550  17.072  0.00  0.00    +0.000 OA
ATOM     19  N   UNL     1       8.652   8.583  18.850  0.00  0.00    +0.000 N 
ATOM     20  H   UNL     1       9.076   8.454  19.763  0.00  0.00    +0.000 HD
BRANCH  19  21
ATOM     21  C   UNL     1       8.888   9.856  18.184  0.00  0.00    +0.000 C 
BRANCH  21  22
ATOM     22  C   UNL     1       9.054  11.016  19.171  0.00  0.00    +0.000 C 
ATOM     23  C   UNL     1       9.388  12.356  18.536  0.00  0.00    +0.000 C 
ATOM     24  C   UNL     1      10.109  13.064  19.656  0.00  0.00    +0.000 C 
ATOM     25  C   UNL     1      10.860  11.936  20.332  0.00  0.00    +0.000 C 
ATOM     26  O   UNL     1      10.121  10.728  20.100  0.00  0.00    +0.000 OA
ENDBRANCH  21  22
ENDBRANCH  19  21
ENDBRANCH  16  17
ENDBRANCH  15  16
ENDBRANCH   9  15
TORSDOF 6
ENDMDL
MODEL 3
REMARK VINA RESULT:      -7.1      1.514      2.359
REMARK  Name = 
REMARK  8 active torsions:
REMARK  status: ('A' for Active; 'I' for Inactive)
REMARK    1  A    between atoms: C_1  and  C_2
REMARK    2  A    between atoms: C_4  and  C_5
REMARK    3  A    between atoms: C_8  and  C_9
REMARK    4  A    between atoms: C_11  and  S_12
REMARK    5  A    between atoms: S_12  and  C_13
REMARK    6  A    between atoms: C_13  and  C_14
REMARK    7  A    between atoms: N_16  and  C_17
REMARK    8  A    between atoms: C_17  and  C_18
REMARK                            x       y       z     vdW  Elec       q    Type
REMARK                         _______ _______ _______ _____ _____    ______ ____
ROOT
ATOM      1  C   UNL     1       1.872  10.716  17.765  0.00  0.00    +0.000 C 
ATOM      2  C   UNL     1       1.756   9.506  18.646  0.00  0.00    +0.000 A 
ATOM      3  C   UNL     1       1.005   9.550  19.820  0.00  0.00    +0.000 A 
ATOM      4  C   UNL     1       0.896   8.419  20.641  0.00  0.00    +0.000 A 
ATOM      5  C   UNL     1       0.074   8.520  21.899  0.00  0.00    +0.000 C 
ATOM      6  C   UNL     1       1.557   7.219  20.265  0.00  0.00    +0.000 A 
ATOM      7  C   UNL     1       1.495   6.042  21.028  0.00  0.00    +0.000 A 
ATOM      8  C   UNL     1       2.161   4.883  20.616  0.00  0.00    +0.000 A 
ATOM      9  C   UNL     1       2.888   4.923  19.431  0.00  0.00    +0.000 A 
ATOM     10  N   UNL     1       2.968   6.050  18.679  0.00  0.00    +0.000 NA
ATOM     11  C   UNL     1       2.321   7.165  19.080  0.00  0.00    +0.000 A 
ATOM     12  C   UNL     1       2.403   8.311  18.297  0.00  0.00    +0.000 A 
ENDROOT
BRANCH   8  13
ATOM     13  C   UNL     1       2.058   3.712  21.434  0.00  0.00    +0.000 C 
ATOM     14  N   UNL     1       1.963   2.799  22.141  0.00  0.00    +0.000 NA
ENDBRANCH   8  13
BRANCH   9  15
ATOM     15  S   UNL     1       3.768   3.479  18.835  0.00  0.00    +0.000 S 
BRANCH  15  16
ATOM     16  C   UNL     1       3.456   3.584  17.041  0.00  0.00    +0.000 C 
BRANCH  16  17
ATOM     17  C   UNL     1       4.642   4.157  16.272  0.00  0.00    +0.000 C 
ATOM     18  O   UNL     1       4.495   5.089  15.482  0.00  0.00    +0.000 OA
ATOM     19  N   UNL     1       5.881   3.641  16.577  0.00  0.00    +0.000 N 
ATOM     20  H   UNL     1       5.933   2.806  17.152  0.00  0.00    +0.000 HD
BRANCH  19  21
ATOM     21  C   UNL     1       7.112   4.083  15.939  0.00  0.00    +0.000 C 
BRANCH  21  22
ATOM     22  C   UNL     1       7.857   5.139  16.762  0.00  0.00    +0.000 C 
ATOM     23  C   UNL     1       7.620   5.069  18.262  0.00  0.00    +0.000 C 
ATOM     24  C   UNL     1       7.878   6.492  18.688  0.00  0.00    +0.000 C 
ATOM     25  C   UNL     1       7.348   7.290  17.515  0.00  0.00    +0.000 C 
ATOM     26  O   UNL     1       7.457   6.462  16.348  0.00  0.00    +0.000 OA
ENDBRANCH  21  22
ENDBRANCH  19  21
ENDBRANCH  16  17
ENDBRANCH  15  16
ENDBRANCH   9  15
TORSDOF 6
ENDMDL
MODEL 4
REMARK VINA RESULT:      -6.9      4.696      7.108
REMARK  Name = 
REMARK  8 active torsions:
REMARK  status: ('A' for Active; 'I' for Inactive)
REMARK    1  A    between atoms: C_1  and  C_2
REMARK    2  A    between atoms: C_4  and  C_5
REMARK    3  A    between atoms: C_8  and  C_9
REMARK    4  A    between atoms: C_11  and  S_12
REMARK    5  A    between atoms: S_12  and  C_13
REMARK    6  A    between atoms: C_13  and  C_14
REMARK    7  A    between atoms: N_16  and  C_17
REMARK    8  A    between atoms: C_17  and  C_18
REMARK                            x       y       z     vdW  Elec       q    Type
REMARK                         _______ _______ _______ _____ _____    ______ ____
ROOT
ATOM      1  C   UNL     1      -3.685  10.050  14.309  0.00  0.00    +0.000 C 
ATOM      2  C   UNL     1      -3.508  10.588  15.699  0.00  0.00    +0.000 A 
ATOM      3  C   UNL     1      -4.553  11.249  16.344  0.00  0.00    +0.000 A 
ATOM      4  C   UNL     1      -4.387  11.749  17.644  0.00  0.00    +0.000 A 
ATOM      5  C   UNL     1      -5.547  12.456  18.295  0.00  0.00    +0.000 C 
ATOM      6  C   UNL     1      -3.142  11.575  18.304  0.00  0.00    +0.000 A 
ATOM      7  C   UNL     1      -2.896  12.040  19.606  0.00  0.00    +0.000 A 
ATOM      8  C   UNL     1      -1.653  11.843  20.217  0.00  0.00    +0.000 A 
ATOM      9  C   UNL     1      -0.664  11.173  19.503  0.00  0.00    +0.000 A 
ATOM     10  N   UNL     1      -0.876  10.718  18.243  0.00  0.00    +0.000 NA
ATOM     11  C   UNL     1      -2.079  10.909  17.659  0.00  0.00    +0.000 A 
ATOM     12  C   UNL     1      -2.287  10.431  16.370  0.00  0.00    +0.000 A 
ENDROOT
BRANCH   8  13
ATOM     13  C   UNL     1      -1.462  12.338  21.546  0.00  0.00    +0.000 C 
ATOM     14  N   UNL     1      -1.364  12.755  22.623  0.00  0.00    +0.000 NA
ENDBRANCH   8  13
BRANCH   9  15
ATOM     15  S   UNL     1       0.954  10.880  20.218  0.00  0.00    +0.000 S 
BRANCH  15  16
ATOM     16  C   UNL     1       0.833   9.115  20.668  0.00  0.00    +0.000 C 
BRANCH  16  17
ATOM     17  C   UNL     1       1.665   8.220  19.755  0.00  0.00    +0.000 C 
ATOM     18  O   UNL     1       1.956   8.574  18.613  0.00  0.00    +0.000 OA
ATOM     19  N   UNL     1       2.140   7.052  20.306  0.00  0.00    +0.000 N 
ATOM     20  H   UNL     1       1.783   6.758  21.209  0.00  0.00    +0.000 HD
BRANCH  19  21
ATOM     21  C   UNL     1       2.953   6.093  19.572  0.00  0.00    +0.000 C 
BRANCH  21  22
ATOM     22  C   UNL     1       2.374   4.675  19.613  0.00  0.00    +0.000 C 
ATOM     23  C   UNL     1       1.203   4.487  20.563  0.00  0.00    +0.000 C 
ATOM     24  C   UNL     1       1.293   3.017  20.886  0.00  0.00    +0.000 C 
ATOM     25  C   UNL     1       2.787   2.772  20.901  0.00  0.00    +0.000 C 
ATOM     26  O   UNL     1       3.390   3.737  20.027  0.00  0.00    +0.000 OA
ENDBRANCH  21  22
ENDBRANCH  19  21
ENDBRANCH  16  17
ENDBRANCH  15  16
ENDBRANCH   9  15
TORSDOF 6
ENDMDL
MODEL 5
REMARK VINA RESULT:      -6.9      2.143      2.681
REMARK  Name = 
REMARK  8 active torsions:
REMARK  status: ('A' for Active; 'I' for Inactive)
REMARK    1  A    between atoms: C_1  and  C_2
REMARK    2  A    between atoms: C_4  and  C_5
REMARK    3  A    between atoms: C_8  and  C_9
REMARK    4  A    between atoms: C_11  and  S_12
REMARK    5  A    between atoms: S_12  and  C_13
REMARK    6  A    between atoms: C_13  and  C_14
REMARK    7  A    between atoms: N_16  and  C_17
REMARK    8  A    between atoms: C_17  and  C_18
REMARK                            x       y       z     vdW  Elec       q    Type
REMARK                         _______ _______ _______ _____ _____    ______ ____
ROOT
ATOM      1  C   UNL     1       2.041  10.251  17.538  0.00  0.00    +0.000 C 
ATOM      2  C   UNL     1       1.918   9.086  18.476  0.00  0.00    +0.000 A 
ATOM      3  C   UNL     1       1.515   9.276  19.797  0.00  0.00    +0.000 A 
ATOM      4  C   UNL     1       1.399   8.187  20.673  0.00  0.00    +0.000 A 
ATOM      5  C   UNL     1       0.961   8.447  22.090  0.00  0.00    +0.000 C 
ATOM      6  C   UNL     1       1.694   6.880  20.202  0.00  0.00    +0.000 A 
ATOM      7  C   UNL     1       1.599   5.736  21.011  0.00  0.00    +0.000 A 
ATOM      8  C   UNL     1       1.897   4.468  20.502  0.00  0.00    +0.000 A 
ATOM      9  C   UNL     1       2.292   4.366  19.172  0.00  0.00    +0.000 A 
ATOM     10  N   UNL     1       2.396   5.456  18.371  0.00  0.00    +0.000 NA
ATOM     11  C   UNL     1       2.104   6.677  18.867  0.00  0.00    +0.000 A 
ATOM     12  C   UNL     1       2.207   7.786  18.035  0.00  0.00    +0.000 A 
ENDROOT
BRANCH   8  13
ATOM     13  C   UNL     1       1.779   3.340  21.375  0.00  0.00    +0.000 C 
ATOM     14  N   UNL     1       1.692   2.391  22.035  0.00  0.00    +0.000 NA
ENDBRANCH   8  13
BRANCH   9  15
ATOM     15  S   UNL     1       2.690   2.775  18.445  0.00  0.00    +0.000 S 
BRANCH  15  16
ATOM     16  C   UNL     1       4.105   3.213  17.379  0.00  0.00    +0.000 C 
BRANCH  16  17
ATOM     17  C   UNL     1       5.273   3.797  18.168  0.00  0.00    +0.000 C 
ATOM     18  O   UNL     1       5.347   3.659  19.389  0.00  0.00    +0.000 OA
ATOM     19  N   UNL     1       6.270   4.399  17.435  0.00  0.00    +0.000 N 
ATOM     20  H   UNL     1       6.110   4.580  16.450  0.00  0.00    +0.000 HD
BRANCH  19  21
ATOM     21  C   UNL     1       7.454   4.998  18.035  0.00  0.00    +0.000 C 
BRANCH  21  22
ATOM     22  C   UNL     1       7.259   6.481  18.370  0.00  0.00    +0.000 C 
ATOM     23  C   UNL     1       6.951   7.373  17.179  0.00  0.00    +0.000 C 
ATOM     24  C   UNL     1       7.457   8.713  17.651  0.00  0.00    +0.000 C 
ATOM     25  C   UNL     1       8.670   8.337  18.475  0.00  0.00    +0.000 C 
ATOM     26  O   UNL     1       8.454   7.012  18.979  0.00  0.00    +0.000 OA
ENDBRANCH  21  22
ENDBRANCH  19  21
ENDBRANCH  16  17
ENDBRANCH  15  16
ENDBRANCH   9  15
TORSDOF 6
ENDMDL
MODEL 6
REMARK VINA RESULT:      -6.9      0.977      1.230
REMARK  Name = 
REMARK  8 active torsions:
REMARK  status: ('A' for Active; 'I' for Inactive)
REMARK    1  A    between atoms: C_1  and  C_2
REMARK    2  A    between atoms: C_4  and  C_5
REMARK    3  A    between atoms: C_8  and  C_9
REMARK    4  A    between atoms: C_11  and  S_12
REMARK    5  A    between atoms: S_12  and  C_13
REMARK    6  A    between atoms: C_13  and  C_14
REMARK    7  A    between atoms: N_16  and  C_17
REMARK    8  A    between atoms: C_17  and  C_18
REMARK                            x       y       z     vdW  Elec       q    Type
REMARK                         _______ _______ _______ _____ _____    ______ ____
ROOT
ATOM      1  C   UNL     1       1.595  10.828  17.913  0.00  0.00    +0.000 C 
ATOM      2  C   UNL     1       1.589   9.568  18.728  0.00  0.00    +0.000 A 
ATOM      3  C   UNL     1       0.748   9.439  19.832  0.00  0.00    +0.000 A 
ATOM      4  C   UNL     1       0.742   8.260  20.592  0.00  0.00    +0.000 A 
ATOM      5  C   UNL     1      -0.185   8.173  21.776  0.00  0.00    +0.000 C 
ATOM      6  C   UNL     1       1.601   7.191  20.226  0.00  0.00    +0.000 A 
ATOM      7  C   UNL     1       1.654   5.977  20.929  0.00  0.00    +0.000 A 
ATOM      8  C   UNL     1       2.515   4.950  20.529  0.00  0.00    +0.000 A 
ATOM      9  C   UNL     1       3.322   5.160  19.416  0.00  0.00    +0.000 A 
ATOM     10  N   UNL     1       3.294   6.326  18.722  0.00  0.00    +0.000 NA
ATOM     11  C   UNL     1       2.458   7.312  19.111  0.00  0.00    +0.000 A 
ATOM     12  C   UNL     1       2.432   8.500  18.388  0.00  0.00    +0.000 A 
ENDROOT
BRANCH   8  13
ATOM     13  C   UNL     1       2.521   3.734  21.284  0.00  0.00    +0.000 C 
ATOM     14  N   UNL     1       2.558   2.725  21.854  0.00  0.00    +0.000 NA
ENDBRANCH   8  13
BRANCH   9  15
ATOM     15  S   UNL     1       4.452   3.892  18.839  0.00  0.00    +0.000 S 
BRANCH  15  16
ATOM     16  C   UNL     1       6.047   4.775  18.911  0.00  0.00    +0.000 C 
BRANCH  16  17
ATOM     17  C   UNL     1       6.683   4.948  17.536  0.00  0.00    +0.000 C 
ATOM     18  O   UNL     1       7.869   4.679  17.346  0.00  0.00    +0.000 OA
ATOM     19  N   UNL     1       5.845   5.332  16.514  0.00  0.00    +0.000 N 
ATOM     20  H   UNL     1       4.907   5.643  16.744  0.00  0.00    +0.000 HD
BRANCH  19  21
ATOM     21  C   UNL     1       6.293   5.535  15.144  0.00  0.00    +0.000 C 
BRANCH  21  22
ATOM     22  C   UNL     1       6.223   4.255  14.305  0.00  0.00    +0.000 C 
ATOM     23  C   UNL     1       7.084   4.261  13.053  0.00  0.00    +0.000 C 
ATOM     24  C   UNL     1       6.355   3.284  12.165  0.00  0.00    +0.000 C 
ATOM     25  C   UNL     1       4.905   3.536  12.517  0.00  0.00    +0.000 C 
ATOM     26  O   UNL     1       4.868   4.023  13.866  0.00  0.00    +0.000 OA
ENDBRANCH  21  22
ENDBRANCH  19  21
ENDBRANCH  16  17
ENDBRANCH  15  16
ENDBRANCH   9  15
TORSDOF 6
ENDMDL
MODEL 7
REMARK VINA RESULT:      -6.8      1.451      1.741
REMARK  Name = 
REMARK  8 active torsions:
REMARK  status: ('A' for Active; 'I' for Inactive)
REMARK    1  A    between atoms: C_1  and  C_2
REMARK    2  A    between atoms: C_4  and  C_5
REMARK    3  A    between atoms: C_8  and  C_9
REMARK    4  A    between atoms: C_11  and  S_12
REMARK    5  A    between atoms: S_12  and  C_13
REMARK    6  A    between atoms: C_13  and  C_14
REMARK    7  A    between atoms: N_16  and  C_17
REMARK    8  A    between atoms: C_17  and  C_18
REMARK                            x       y       z     vdW  Elec       q    Type
REMARK                         _______ _______ _______ _____ _____    ______ ____
ROOT
ATOM      1  C   UNL     1       1.973  10.832  17.809  0.00  0.00    +0.000 C 
ATOM      2  C   UNL     1       1.840   9.601  18.659  0.00  0.00    +0.000 A 
ATOM      3  C   UNL     1       0.965   9.577  19.744  0.00  0.00    +0.000 A 
ATOM      4  C   UNL     1       0.840   8.426  20.535  0.00  0.00    +0.000 A 
ATOM      5  C   UNL     1      -0.118   8.453  21.697  0.00  0.00    +0.000 C 
ATOM      6  C   UNL     1       1.613   7.277  20.221  0.00  0.00    +0.000 A 
ATOM      7  C   UNL     1       1.544   6.084  20.959  0.00  0.00    +0.000 A 
ATOM      8  C   UNL     1       2.323   4.977  20.610  0.00  0.00    +0.000 A 
ATOM      9  C   UNL     1       3.170   5.084  19.511  0.00  0.00    +0.000 A 
ATOM     10  N   UNL     1       3.259   6.227  18.786  0.00  0.00    +0.000 NA
ATOM     11  C   UNL     1       2.502   7.292  19.125  0.00  0.00    +0.000 A 
ATOM     12  C   UNL     1       2.595   8.455  18.369  0.00  0.00    +0.000 A 
ENDROOT
BRANCH   8  13
ATOM     13  C   UNL     1       2.207   3.788  21.398  0.00  0.00    +0.000 C 
ATOM     14  N   UNL     1       2.119   2.793  21.987  0.00  0.00    +0.000 NA
ENDBRANCH   8  13
BRANCH   9  15
ATOM     15  S   UNL     1       4.200   3.708  18.999  0.00  0.00    +0.000 S 
BRANCH  15  16
ATOM     16  C   UNL     1       3.953   3.729  17.192  0.00  0.00    +0.000 C 
BRANCH  16  17
ATOM     17  C   UNL     1       5.228   4.082  16.431  0.00  0.00    +0.000 C 
ATOM     18  O   UNL     1       6.212   4.534  17.017  0.00  0.00    +0.000 OA
ATOM     19  N   UNL     1       5.244   3.788  15.087  0.00  0.00    +0.000 N 
ATOM     20  H   UNL     1       4.375   3.519  14.636  0.00  0.00    +0.000 HD
BRANCH  19  21
ATOM     21  C   UNL     1       6.384   4.056  14.222  0.00  0.00    +0.000 C 
BRANCH  21  22
ATOM     22  C   UNL     1       6.068   3.822  12.741  0.00  0.00    +0.000 C 
ATOM     23  C   UNL     1       4.589   3.758  12.402  0.00  0.00    +0.000 C 
ATOM     24  C   UNL     1       4.588   2.910  11.155  0.00  0.00    +0.000 C 
ATOM     25  C   UNL     1       5.710   1.930  11.421  0.00  0.00    +0.000 C 
ATOM     26  O   UNL     1       6.641   2.571  12.305  0.00  0.00    +0.000 OA
ENDBRANCH  21  22
ENDBRANCH  19  21
ENDBRANCH  16  17
ENDBRANCH  15  16
ENDBRANCH   9  15
TORSDOF 6
ENDMDL
MODEL 8
REMARK VINA RESULT:      -6.8      2.630      5.396
REMARK  Name = 
REMARK  8 active torsions:
REMARK  status: ('A' for Active; 'I' for Inactive)
REMARK    1  A    between atoms: C_1  and  C_2
REMARK    2  A    between atoms: C_4  and  C_5
REMARK    3  A    between atoms: C_8  and  C_9
REMARK    4  A    between atoms: C_11  and  S_12
REMARK    5  A    between atoms: S_12  and  C_13
REMARK    6  A    between atoms: C_13  and  C_14
REMARK    7  A    between atoms: N_16  and  C_17
REMARK    8  A    between atoms: C_17  and  C_18
REMARK                            x       y       z     vdW  Elec       q    Type
REMARK                         _______ _______ _______ _____ _____    ______ ____
ROOT
ATOM      1  C   UNL     1      -0.043   8.479  22.207  0.00  0.00    +0.000 C 
ATOM      2  C   UNL     1       0.784   8.371  20.959  0.00  0.00    +0.000 A 
ATOM      3  C   UNL     1       0.667   9.319  19.944  0.00  0.00    +0.000 A 
ATOM      4  C   UNL     1       1.441   9.216  18.779  0.00  0.00    +0.000 A 
ATOM      5  C   UNL     1       1.276  10.267  17.712  0.00  0.00    +0.000 C 
ATOM      6  C   UNL     1       2.353   8.136  18.640  0.00  0.00    +0.000 A 
ATOM      7  C   UNL     1       3.167   7.964  17.510  0.00  0.00    +0.000 A 
ATOM      8  C   UNL     1       4.052   6.885  17.419  0.00  0.00    +0.000 A 
ATOM      9  C   UNL     1       4.107   5.984  18.478  0.00  0.00    +0.000 A 
ATOM     10  N   UNL     1       3.327   6.126  19.579  0.00  0.00    +0.000 NA
ATOM     11  C   UNL     1       2.476   7.171  19.662  0.00  0.00    +0.000 A 
ATOM     12  C   UNL     1       1.688   7.310  20.799  0.00  0.00    +0.000 A 
ENDROOT
BRANCH   8  13
ATOM     13  C   UNL     1       4.859   6.763  16.243  0.00  0.00    +0.000 C 
ATOM     14  N   UNL     1       5.477   6.703  15.264  0.00  0.00    +0.000 NA
ENDBRANCH   8  13
BRANCH   9  15
ATOM     15  S   UNL     1       5.217   4.575  18.437  0.00  0.00    +0.000 S 
BRANCH  15  16
ATOM     16  C   UNL     1       4.476   3.573  17.105  0.00  0.00    +0.000 C 
BRANCH  16  17
ATOM     17  C   UNL     1       3.362   2.660  17.609  0.00  0.00    +0.000 C 
ATOM     18  O   UNL     1       3.575   1.471  17.844  0.00  0.00    +0.000 OA
ATOM     19  N   UNL     1       2.149   3.254  17.867  0.00  0.00    +0.000 N 
ATOM     20  H   UNL     1       1.996   4.208  17.555  0.00  0.00    +0.000 HD
BRANCH  19  21
ATOM     21  C   UNL     1       0.988   2.525  18.357  0.00  0.00    +0.000 C 
BRANCH  21  22
ATOM     22  C   UNL     1       0.915   2.491  19.887  0.00  0.00    +0.000 C 
ATOM     23  C   UNL     1       0.956   3.852  20.562  0.00  0.00    +0.000 C 
ATOM     24  C   UNL     1       1.521   3.515  21.918  0.00  0.00    +0.000 C 
ATOM     25  C   UNL     1       2.497   2.401  21.602  0.00  0.00    +0.000 C 
ATOM     26  O   UNL     1       2.026   1.739  20.419  0.00  0.00    +0.000 OA
ENDBRANCH  21  22
ENDBRANCH  19  21
ENDBRANCH  16  17
ENDBRANCH  15  16
ENDBRANCH   9  15
TORSDOF 6
ENDMDL
MODEL 9
REMARK VINA RESULT:      -6.8      4.414      6.690
REMARK  Name = 
REMARK  8 active torsions:
REMARK  status: ('A' for Active; 'I' for Inactive)
REMARK    1  A    between atoms: C_1  and  C_2
REMARK    2  A    between atoms: C_4  and  C_5
REMARK    3  A    between atoms: C_8  and  C_9
REMARK    4  A    between atoms: C_11  and  S_12
REMARK    5  A    between atoms: S_12  and  C_13
REMARK    6  A    between atoms: C_13  and  C_14
REMARK    7  A    between atoms: N_16  and  C_17
REMARK    8  A    between atoms: C_17  and  C_18
REMARK                            x       y       z     vdW  Elec       q    Type
REMARK                         _______ _______ _______ _____ _____    ______ ____
ROOT
ATOM      1  C   UNL     1      -5.929  12.320  18.485  0.00  0.00    +0.000 C 
ATOM      2  C   UNL     1      -4.619  11.675  18.136  0.00  0.00    +0.000 A 
ATOM      3  C   UNL     1      -4.459  10.998  16.928  0.00  0.00    +0.000 A 
ATOM      4  C   UNL     1      -3.234  10.398  16.603  0.00  0.00    +0.000 A 
ATOM      5  C   UNL     1      -3.114   9.678  15.286  0.00  0.00    +0.000 C 
ATOM      6  C   UNL     1      -2.150  10.487  17.516  0.00  0.00    +0.000 A 
ATOM      7  C   UNL     1      -0.891   9.918  17.266  0.00  0.00    +0.000 A 
ATOM      8  C   UNL     1       0.148  10.033  18.195  0.00  0.00    +0.000 A 
ATOM      9  C   UNL     1      -0.096  10.726  19.377  0.00  0.00    +0.000 A 
ATOM     10  N   UNL     1      -1.305  11.280  19.644  0.00  0.00    +0.000 NA
ATOM     11  C   UNL     1      -2.303  11.168  18.743  0.00  0.00    +0.000 A 
ATOM     12  C   UNL     1      -3.536  11.747  19.024  0.00  0.00    +0.000 A 
ENDROOT
BRANCH   8  13
ATOM     13  C   UNL     1       1.410   9.435  17.882  0.00  0.00    +0.000 C 
ATOM     14  N   UNL     1       2.405   8.900  17.621  0.00  0.00    +0.000 NA
ENDBRANCH   8  13
BRANCH   9  15
ATOM     15  S   UNL     1       1.185  10.919  20.617  0.00  0.00    +0.000 S 
BRANCH  15  16
ATOM     16  C   UNL     1       0.554   9.847  21.953  0.00  0.00    +0.000 C 
BRANCH  16  17
ATOM     17  C   UNL     1       0.385   8.397  21.510  0.00  0.00    +0.000 C 
ATOM     18  O   UNL     1      -0.731   7.886  21.425  0.00  0.00    +0.000 OA
ATOM     19  N   UNL     1       1.529   7.733  21.130  0.00  0.00    +0.000 N 
ATOM     20  H   UNL     1       2.428   8.162  21.320  0.00  0.00    +0.000 HD
BRANCH  19  21
ATOM     21  C   UNL     1       1.538   6.350  20.677  0.00  0.00    +0.000 C 
BRANCH  21  22
ATOM     22  C   UNL     1       2.448   6.132  19.464  0.00  0.00    +0.000 C 
ATOM     23  C   UNL     1       2.018   5.013  18.531  0.00  0.00    +0.000 C 
ATOM     24  C   UNL     1       3.326   4.609  17.898  0.00  0.00    +0.000 C 
ATOM     25  C   UNL     1       4.312   4.794  19.032  0.00  0.00    +0.000 C 
ATOM     26  O   UNL     1       3.785   5.807  19.900  0.00  0.00    +0.000 OA
ENDBRANCH  21  22
ENDBRANCH  19  21
ENDBRANCH  16  17
ENDBRANCH  15  16
ENDBRANCH   9  15
TORSDOF 6
ENDMDL
