MODEL 1
REMARK VINA RESULT:      -9.2      0.000      0.000
REMARK  Name = 
REMARK  10 active torsions:
REMARK  status: ('A' for Active; 'I' for Inactive)
REMARK    1  A    between atoms: C_1  and  C_2
REMARK    2  A    between atoms: C_2  and  C_3
REMARK    3  A    between atoms: C_2  and  C_4
REMARK    4  A    between atoms: C_4  and  C_5
REMARK    5  A    between atoms: C_5  and  N_6
REMARK    6  A    between atoms: C_7  and  C_9
REMARK    7  A    between atoms: N_12  and  S_13
REMARK    8  A    between atoms: S_13  and  C_16
REMARK    9  A    between atoms: C_23  and  C_24
REMARK   10  A    between atoms: C_26  and  C_28
REMARK                            x       y       z     vdW  Elec       q    Type
REMARK                         _______ _______ _______ _____ _____    ______ ____
ROOT
ATOM      1  S   UNL     1       3.195   5.583  18.938  0.00  0.00    +0.000 S 
ATOM      2  O   UNL     1       2.674   5.244  17.631  0.00  0.00    +0.000 OA
ATOM      3  O   UNL     1       3.237   4.605  20.005  0.00  0.00    +0.000 OA
ENDROOT
BRANCH   1   4
ATOM      4  C   UNL     1       2.285   7.001  19.503  0.00  0.00    +0.000 A 
ATOM      5  C   UNL     1       1.721   7.039  20.787  0.00  0.00    +0.000 A 
ATOM      6  C   UNL     1       0.966   8.155  21.193  0.00  0.00    +0.000 A 
ATOM      7  C   UNL     1       0.808   9.224  20.318  0.00  0.00    +0.000 A 
ATOM      8  C   UNL     1       1.415   9.178  19.063  0.00  0.00    +0.000 A 
ATOM      9  C   UNL     1       2.132   8.072  18.624  0.00  0.00    +0.000 A 
ATOM     10  C   UNL     1       1.225  10.445  18.308  0.00  0.00    +0.000 C 
ATOM     11  C   UNL     1       0.309  11.267  19.247  0.00  0.00    +0.000 C 
ATOM     12  C   UNL     1      -0.971  11.625  18.491  0.00  0.00    +0.000 C 
ATOM     13  N   UNL     1       0.106  10.451  20.482  0.00  0.00    +0.000 N 
ATOM     14  C   UNL     1      -0.555  10.827  21.659  0.00  0.00    +0.000 C 
ATOM     15  O   UNL     1      -0.650  10.063  22.636  0.00  0.00    +0.000 OA
BRANCH  14  16
ATOM     16  C   UNL     1      -1.187  12.251  21.731  0.00  0.00    +0.000 C 
ATOM     17  C   UNL     1      -2.735  12.337  21.900  0.00  0.00    +0.000 C 
ATOM     18  C   UNL     1      -2.547  13.419  22.967  0.00  0.00    +0.000 C 
ATOM     19  C   UNL     1      -1.066  13.031  23.065  0.00  0.00    +0.000 C 
ENDBRANCH  14  16
ENDBRANCH   1   4
BRANCH   1  23
ATOM     20  C   UNL     1       7.474   6.331  17.478  0.00  0.00    +0.000 C 
ATOM     21  C   UNL     1       7.260   5.778  18.892  0.00  0.00    +0.000 C 
ATOM     22  C   UNL     1       5.858   5.198  19.083  0.00  0.00    +0.000 C 
ATOM     23  N   UNL     1       4.806   6.200  18.728  0.00  0.00    +0.000 NA
ATOM     24  C   UNL     1       4.987   6.770  17.358  0.00  0.00    +0.000 C 
ATOM     25  C   UNL     1       6.384   7.365  17.192  0.00  0.00    +0.000 C 
BRANCH  20  27
ATOM     26  N   UNL     1       7.247   5.603  15.147  0.00  0.00    +0.000 N 
ATOM     27  C   UNL     1       7.510   5.210  16.440  0.00  0.00    +0.000 C 
ATOM     28  O   UNL     1       7.774   4.044  16.730  0.00  0.00    +0.000 OA
ATOM     29  H   UNL     1       7.088   6.579  14.935  0.00  0.00    +0.000 HD
BRANCH  26  30
ATOM     30  C   UNL     1       7.142   4.635  14.071  0.00  0.00    +0.000 C 
BRANCH  30  31
ATOM     31  C   UNL     1       5.690   4.207  13.824  0.00  0.00    +0.000 C 
BRANCH  31  33
ATOM     32  C   UNL     1       4.356   3.604  11.738  0.00  0.00    +0.000 C 
ATOM     33  C   UNL     1       5.509   3.209  12.662  0.00  0.00    +0.000 C 
ATOM     34  C   UNL     1       6.802   3.101  11.848  0.00  0.00    +0.000 C 
ENDBRANCH  31  33
ENDBRANCH  30  31
ENDBRANCH  26  30
ENDBRANCH  20  27
ENDBRANCH   1  23
TORSDOF 7
ENDMDL
MODEL 2
REMARK VINA RESULT:      -8.5      1.083      1.929
REMARK  Name = 
REMARK  10 active torsions:
REMARK  status: ('A' for Active; 'I' for Inactive)
REMARK    1  A    between atoms: C_1  and  C_2
REMARK    2  A    between atoms: C_2  and  C_3
REMARK    3  A    between atoms: C_2  and  C_4
REMARK    4  A    between atoms: C_4  and  C_5
REMARK    5  A    between atoms: C_5  and  N_6
REMARK    6  A    between atoms: C_7  and  C_9
REMARK    7  A    between atoms: N_12  and  S_13
REMARK    8  A    between atoms: S_13  and  C_16
REMARK    9  A    between atoms: C_23  and  C_24
REMARK   10  A    between atoms: C_26  and  C_28
REMARK                            x       y       z     vdW  Elec       q    Type
REMARK                         _______ _______ _______ _____ _____    ______ ____
ROOT
ATOM      1  S   UNL     1       3.251   5.527  18.980  0.00  0.00    +0.000 S 
ATOM      2  O   UNL     1       2.784   5.050  17.696  0.00  0.00    +0.000 OA
ATOM      3  O   UNL     1       3.300   4.652  20.132  0.00  0.00    +0.000 OA
ENDROOT
BRANCH   1   4
ATOM      4  C   UNL     1       2.271   6.951  19.387  0.00  0.00    +0.000 A 
ATOM      5  C   UNL     1       2.269   8.092  18.569  0.00  0.00    +0.000 A 
ATOM      6  C   UNL     1       1.519   9.223  18.939  0.00  0.00    +0.000 A 
ATOM      7  C   UNL     1       0.766   9.189  20.107  0.00  0.00    +0.000 A 
ATOM      8  C   UNL     1       0.753   8.028  20.880  0.00  0.00    +0.000 A 
ATOM      9  C   UNL     1       1.514   6.912  20.557  0.00  0.00    +0.000 A 
ATOM     10  C   UNL     1      -0.184   8.138  22.030  0.00  0.00    +0.000 C 
ATOM     11  C   UNL     1      -0.686   9.598  21.922  0.00  0.00    +0.000 C 
ATOM     12  C   UNL     1      -0.354  10.327  23.224  0.00  0.00    +0.000 C 
ATOM     13  N   UNL     1      -0.066  10.183  20.694  0.00  0.00    +0.000 N 
ATOM     14  C   UNL     1      -0.314  11.438  20.124  0.00  0.00    +0.000 C 
ATOM     15  O   UNL     1       0.256  11.815  19.084  0.00  0.00    +0.000 OA
BRANCH  14  16
ATOM     16  C   UNL     1      -1.338  12.383  20.826  0.00  0.00    +0.000 C 
ATOM     17  C   UNL     1      -0.763  13.613  21.593  0.00  0.00    +0.000 C 
ATOM     18  C   UNL     1      -1.845  14.496  20.965  0.00  0.00    +0.000 C 
ATOM     19  C   UNL     1      -2.122  13.385  19.944  0.00  0.00    +0.000 C 
ENDBRANCH  14  16
ENDBRANCH   1   4
BRANCH   1  23
ATOM     20  C   UNL     1       7.513   6.362  17.515  0.00  0.00    +0.000 C 
ATOM     21  C   UNL     1       7.309   5.854  18.946  0.00  0.00    +0.000 C 
ATOM     22  C   UNL     1       5.924   5.235  19.151  0.00  0.00    +0.000 C 
ATOM     23  N   UNL     1       4.843   6.189  18.755  0.00  0.00    +0.000 NA
ATOM     24  C   UNL     1       5.014   6.715  17.367  0.00  0.00    +0.000 C 
ATOM     25  C   UNL     1       6.391   7.349  17.186  0.00  0.00    +0.000 C 
BRANCH  20  27
ATOM     26  N   UNL     1       7.226   5.523  15.228  0.00  0.00    +0.000 N 
ATOM     27  C   UNL     1       7.591   5.207  16.517  0.00  0.00    +0.000 C 
ATOM     28  O   UNL     1       7.973   4.082  16.833  0.00  0.00    +0.000 OA
ATOM     29  H   UNL     1       6.970   6.472  14.991  0.00  0.00    +0.000 HD
BRANCH  26  30
ATOM     30  C   UNL     1       7.149   4.507  14.196  0.00  0.00    +0.000 C 
BRANCH  30  31
ATOM     31  C   UNL     1       5.700   4.213  13.786  0.00  0.00    +0.000 C 
BRANCH  31  33
ATOM     32  C   UNL     1       4.365   3.561  11.716  0.00  0.00    +0.000 C 
ATOM     33  C   UNL     1       5.559   3.224  12.612  0.00  0.00    +0.000 C 
ATOM     34  C   UNL     1       6.839   3.208  11.771  0.00  0.00    +0.000 C 
ENDBRANCH  31  33
ENDBRANCH  30  31
ENDBRANCH  26  30
ENDBRANCH  20  27
ENDBRANCH   1  23
TORSDOF 7
ENDMDL
MODEL 3
REMARK VINA RESULT:      -8.5      2.492      4.509
REMARK  Name = 
REMARK  10 active torsions:
REMARK  status: ('A' for Active; 'I' for Inactive)
REMARK    1  A    between atoms: C_1  and  C_2
REMARK    2  A    between atoms: C_2  and  C_3
REMARK    3  A    between atoms: C_2  and  C_4
REMARK    4  A    between atoms: C_4  and  C_5
REMARK    5  A    between atoms: C_5  and  N_6
REMARK    6  A    between atoms: C_7  and  C_9
REMARK    7  A    between atoms: N_12  and  S_13
REMARK    8  A    between atoms: S_13  and  C_16
REMARK    9  A    between atoms: C_23  and  C_24
REMARK   10  A    between atoms: C_26  and  C_28
REMARK                            x       y       z     vdW  Elec       q    Type
REMARK                         _______ _______ _______ _____ _____    ______ ____
ROOT
ATOM      1  S   UNL     1       3.785   3.881  18.210  0.00  0.00    +0.000 S 
ATOM      2  O   UNL     1       3.505   3.816  16.792  0.00  0.00    +0.000 OA
ATOM      3  O   UNL     1       3.435   2.790  19.094  0.00  0.00    +0.000 OA
ENDROOT
BRANCH   1   4
ATOM      4  C   UNL     1       3.030   5.370  18.816  0.00  0.00    +0.000 A 
ATOM      5  C   UNL     1       2.482   5.435  20.106  0.00  0.00    +0.000 A 
ATOM      6  C   UNL     1       1.849   6.612  20.545  0.00  0.00    +0.000 A 
ATOM      7  C   UNL     1       1.795   7.713  19.697  0.00  0.00    +0.000 A 
ATOM      8  C   UNL     1       2.384   7.635  18.435  0.00  0.00    +0.000 A 
ATOM      9  C   UNL     1       2.981   6.472  17.964  0.00  0.00    +0.000 A 
ATOM     10  C   UNL     1       2.320   8.933  17.712  0.00  0.00    +0.000 C 
ATOM     11  C   UNL     1       1.500   9.821  18.678  0.00  0.00    +0.000 C 
ATOM     12  C   UNL     1       0.258  10.326  17.943  0.00  0.00    +0.000 C 
ATOM     13  N   UNL     1       1.224   9.001  19.896  0.00  0.00    +0.000 N 
ATOM     14  C   UNL     1       0.614   9.414  21.088  0.00  0.00    +0.000 C 
ATOM     15  O   UNL     1       0.448   8.640  22.048  0.00  0.00    +0.000 OA
BRANCH  14  16
ATOM     16  C   UNL     1       0.131  10.893  21.200  0.00  0.00    +0.000 C 
ATOM     17  C   UNL     1      -1.234  11.250  20.537  0.00  0.00    +0.000 C 
ATOM     18  C   UNL     1      -1.621  12.043  21.788  0.00  0.00    +0.000 C 
ATOM     19  C   UNL     1      -0.478  11.357  22.546  0.00  0.00    +0.000 C 
ENDBRANCH  14  16
ENDBRANCH   1   4
BRANCH   1  23
ATOM     20  C   UNL     1       7.925   5.844  18.344  0.00  0.00    +0.000 C 
ATOM     21  C   UNL     1       7.663   4.739  17.314  0.00  0.00    +0.000 C 
ATOM     22  C   UNL     1       6.169   4.482  17.106  0.00  0.00    +0.000 C 
ATOM     23  N   UNL     1       5.485   4.187  18.403  0.00  0.00    +0.000 NA
ATOM     24  C   UNL     1       5.727   5.239  19.437  0.00  0.00    +0.000 C 
ATOM     25  C   UNL     1       7.221   5.467  19.649  0.00  0.00    +0.000 C 
BRANCH  20  27
ATOM     26  N   UNL     1       8.263   8.271  18.242  0.00  0.00    +0.000 N 
ATOM     27  C   UNL     1       7.493   7.212  17.817  0.00  0.00    +0.000 C 
ATOM     28  O   UNL     1       6.542   7.359  17.052  0.00  0.00    +0.000 OA
ATOM     29  H   UNL     1       9.072   8.108  18.827  0.00  0.00    +0.000 HD
BRANCH  26  30
ATOM     30  C   UNL     1       7.913   9.639  17.910  0.00  0.00    +0.000 C 
BRANCH  30  31
ATOM     31  C   UNL     1       9.141  10.558  17.889  0.00  0.00    +0.000 C 
BRANCH  31  33
ATOM     32  C   UNL     1      11.192  11.453  19.107  0.00  0.00    +0.000 C 
ATOM     33  C   UNL     1       9.921  10.609  19.218  0.00  0.00    +0.000 C 
ATOM     34  C   UNL     1       9.034  11.165  20.335  0.00  0.00    +0.000 C 
ENDBRANCH  31  33
ENDBRANCH  30  31
ENDBRANCH  26  30
ENDBRANCH  20  27
ENDBRANCH   1  23
TORSDOF 7
ENDMDL
MODEL 4
REMARK VINA RESULT:      -8.4      2.832      5.012
REMARK  Name = 
REMARK  10 active torsions:
REMARK  status: ('A' for Active; 'I' for Inactive)
REMARK    1  A    between atoms: C_1  and  C_2
REMARK    2  A    between atoms: C_2  and  C_3
REMARK    3  A    between atoms: C_2  and  C_4
REMARK    4  A    between atoms: C_4  and  C_5
REMARK    5  A    between atoms: C_5  and  N_6
REMARK    6  A    between atoms: C_7  and  C_9
REMARK    7  A    between atoms: N_12  and  S_13
REMARK    8  A    between atoms: S_13  and  C_16
REMARK    9  A    between atoms: C_23  and  C_24
REMARK   10  A    between atoms: C_26  and  C_28
REMARK                            x       y       z     vdW  Elec       q    Type
REMARK                         _______ _______ _______ _____ _____    ______ ____
ROOT
ATOM      1  S   UNL     1       3.687   3.950  18.347  0.00  0.00    +0.000 S 
ATOM      2  O   UNL     1       3.384   3.614  16.972  0.00  0.00    +0.000 OA
ATOM      3  O   UNL     1       3.280   3.088  19.436  0.00  0.00    +0.000 OA
ENDROOT
BRANCH   1   4
ATOM      4  C   UNL     1       3.035   5.577  18.635  0.00  0.00    +0.000 A 
ATOM      5  C   UNL     1       3.239   6.616  17.713  0.00  0.00    +0.000 A 
ATOM      6  C   UNL     1       2.751   7.907  17.987  0.00  0.00    +0.000 A 
ATOM      7  C   UNL     1       2.048   8.133  19.165  0.00  0.00    +0.000 A 
ATOM      8  C   UNL     1       1.823   7.074  20.043  0.00  0.00    +0.000 A 
ATOM      9  C   UNL     1       2.327   5.800  19.815  0.00  0.00    +0.000 A 
ATOM     10  C   UNL     1       0.970   7.477  21.192  0.00  0.00    +0.000 C 
ATOM     11  C   UNL     1       0.775   8.994  20.956  0.00  0.00    +0.000 C 
ATOM     12  C   UNL     1       1.294   9.750  22.179  0.00  0.00    +0.000 C 
ATOM     13  N   UNL     1       1.458   9.326  19.669  0.00  0.00    +0.000 N 
ATOM     14  C   UNL     1       1.455  10.550  18.988  0.00  0.00    +0.000 C 
ATOM     15  O   UNL     1       2.054  10.707  17.909  0.00  0.00    +0.000 OA
BRANCH  14  16
ATOM     16  C   UNL     1       0.672  11.745  19.614  0.00  0.00    +0.000 C 
ATOM     17  C   UNL     1       1.512  12.942  20.156  0.00  0.00    +0.000 C 
ATOM     18  C   UNL     1       0.541  13.915  19.482  0.00  0.00    +0.000 C 
ATOM     19  C   UNL     1      -0.011  12.749  18.652  0.00  0.00    +0.000 C 
ENDBRANCH  14  16
ENDBRANCH   1   4
BRANCH   1  23
ATOM     20  C   UNL     1       7.915   5.718  18.296  0.00  0.00    +0.000 C 
ATOM     21  C   UNL     1       7.564   4.608  17.298  0.00  0.00    +0.000 C 
ATOM     22  C   UNL     1       6.053   4.419  17.147  0.00  0.00    +0.000 C 
ATOM     23  N   UNL     1       5.405   4.179  18.474  0.00  0.00    +0.000 NA
ATOM     24  C   UNL     1       5.732   5.236  19.478  0.00  0.00    +0.000 C 
ATOM     25  C   UNL     1       7.243   5.397  19.633  0.00  0.00    +0.000 C 
BRANCH  20  27
ATOM     26  N   UNL     1       8.294   8.140  18.225  0.00  0.00    +0.000 N 
ATOM     27  C   UNL     1       7.529   7.096  17.759  0.00  0.00    +0.000 C 
ATOM     28  O   UNL     1       6.615   7.261  16.952  0.00  0.00    +0.000 OA
ATOM     29  H   UNL     1       9.073   7.962  18.846  0.00  0.00    +0.000 HD
BRANCH  26  30
ATOM     30  C   UNL     1       7.980   9.515  17.887  0.00  0.00    +0.000 C 
BRANCH  30  31
ATOM     31  C   UNL     1       9.200  10.434  18.025  0.00  0.00    +0.000 C 
BRANCH  31  33
ATOM     32  C   UNL     1      10.270  11.388  20.132  0.00  0.00    +0.000 C 
ATOM     33  C   UNL     1       9.090  11.471  19.162  0.00  0.00    +0.000 C 
ATOM     34  C   UNL     1       9.002  12.887  18.584  0.00  0.00    +0.000 C 
ENDBRANCH  31  33
ENDBRANCH  30  31
ENDBRANCH  26  30
ENDBRANCH  20  27
ENDBRANCH   1  23
TORSDOF 7
ENDMDL
MODEL 5
REMARK VINA RESULT:      -8.3      2.656     10.485
REMARK  Name = 
REMARK  10 active torsions:
REMARK  status: ('A' for Active; 'I' for Inactive)
REMARK    1  A    between atoms: C_1  and  C_2
REMARK    2  A    between atoms: C_2  and  C_3
REMARK    3  A    between atoms: C_2  and  C_4
REMARK    4  A    between atoms: C_4  and  C_5
REMARK    5  A    between atoms: C_5  and  N_6
REMARK    6  A    between atoms: C_7  and  C_9
REMARK    7  A    between atoms: N_12  and  S_13
REMARK    8  A    between atoms: S_13  and  C_16
REMARK    9  A    between atoms: C_23  and  C_24
REMARK   10  A    between atoms: C_26  and  C_28
REMARK                            x       y       z     vdW  Elec       q    Type
REMARK                         _______ _______ _______ _____ _____    ______ ____
ROOT
ATOM      1  S   UNL     1       0.727   8.970  21.108  0.00  0.00    +0.000 S 
ATOM      2  O   UNL     1       1.544   9.352  22.239  0.00  0.00    +0.000 OA
ATOM      3  O   UNL     1      -0.517   8.254  21.289  0.00  0.00    +0.000 OA
ENDROOT
BRANCH   1   4
ATOM      4  C   UNL     1       1.768   8.035  20.013  0.00  0.00    +0.000 A 
ATOM      5  C   UNL     1       2.283   8.603  18.837  0.00  0.00    +0.000 A 
ATOM      6  C   UNL     1       3.068   7.826  17.965  0.00  0.00    +0.000 A 
ATOM      7  C   UNL     1       3.344   6.504  18.293  0.00  0.00    +0.000 A 
ATOM      8  C   UNL     1       2.855   5.977  19.488  0.00  0.00    +0.000 A 
ATOM      9  C   UNL     1       2.046   6.711  20.347  0.00  0.00    +0.000 A 
ATOM     10  C   UNL     1       3.335   4.589  19.720  0.00  0.00    +0.000 C 
ATOM     11  C   UNL     1       4.125   4.281  18.426  0.00  0.00    +0.000 C 
ATOM     12  C   UNL     1       3.514   3.046  17.763  0.00  0.00    +0.000 C 
ATOM     13  N   UNL     1       4.101   5.522  17.594  0.00  0.00    +0.000 N 
ATOM     14  C   UNL     1       4.778   5.761  16.391  0.00  0.00    +0.000 C 
ATOM     15  O   UNL     1       4.693   6.846  15.790  0.00  0.00    +0.000 OA
BRANCH  14  16
ATOM     16  C   UNL     1       5.660   4.619  15.798  0.00  0.00    +0.000 C 
ATOM     17  C   UNL     1       5.361   4.175  14.333  0.00  0.00    +0.000 C 
ATOM     18  C   UNL     1       6.864   4.175  14.038  0.00  0.00    +0.000 C 
ATOM     19  C   UNL     1       7.090   4.981  15.324  0.00  0.00    +0.000 C 
ENDBRANCH  14  16
ENDBRANCH   1   4
BRANCH   1  23
ATOM     20  C   UNL     1      -1.161  12.830  19.512  0.00  0.00    +0.000 C 
ATOM     21  C   UNL     1      -1.170  11.580  18.625  0.00  0.00    +0.000 C 
ATOM     22  C   UNL     1      -0.899  10.301  19.421  0.00  0.00    +0.000 C 
ATOM     23  N   UNL     1       0.376  10.407  20.194  0.00  0.00    +0.000 NA
ATOM     24  C   UNL     1       0.427  11.621  21.064  0.00  0.00    +0.000 C 
ATOM     25  C   UNL     1       0.177  12.889  20.251  0.00  0.00    +0.000 C 
BRANCH  20  27
ATOM     26  N   UNL     1      -3.590  12.809  19.848  0.00  0.00    +0.000 N 
ATOM     27  C   UNL     1      -2.359  12.852  20.461  0.00  0.00    +0.000 C 
ATOM     28  O   UNL     1      -2.236  12.882  21.684  0.00  0.00    +0.000 OA
ATOM     29  H   UNL     1      -3.654  12.729  18.841  0.00  0.00    +0.000 HD
BRANCH  26  30
ATOM     30  C   UNL     1      -4.818  12.929  20.612  0.00  0.00    +0.000 C 
BRANCH  30  31
ATOM     31  C   UNL     1      -6.062  12.801  19.724  0.00  0.00    +0.000 C 
BRANCH  31  33
ATOM     32  C   UNL     1      -6.757  10.637  18.572  0.00  0.00    +0.000 C 
ATOM     33  C   UNL     1      -5.877  11.887  18.497  0.00  0.00    +0.000 C 
ATOM     34  C   UNL     1      -6.190  12.655  17.209  0.00  0.00    +0.000 C 
ENDBRANCH  31  33
ENDBRANCH  30  31
ENDBRANCH  26  30
ENDBRANCH  20  27
ENDBRANCH   1  23
TORSDOF 7
ENDMDL
MODEL 6
REMARK VINA RESULT:      -8.3      2.607      4.909
REMARK  Name = 
REMARK  10 active torsions:
REMARK  status: ('A' for Active; 'I' for Inactive)
REMARK    1  A    between atoms: C_1  and  C_2
REMARK    2  A    between atoms: C_2  and  C_3
REMARK    3  A    between atoms: C_2  and  C_4
REMARK    4  A    between atoms: C_4  and  C_5
REMARK    5  A    between atoms: C_5  and  N_6
REMARK    6  A    between atoms: C_7  and  C_9
REMARK    7  A    between atoms: N_12  and  S_13
REMARK    8  A    between atoms: S_13  and  C_16
REMARK    9  A    between atoms: C_23  and  C_24
REMARK   10  A    between atoms: C_26  and  C_28
REMARK                            x       y       z     vdW  Elec       q    Type
REMARK                         _______ _______ _______ _____ _____    ______ ____
ROOT
ATOM      1  S   UNL     1       3.648   3.608  18.598  0.00  0.00    +0.000 S 
ATOM      2  O   UNL     1       2.716   2.875  17.767  0.00  0.00    +0.000 OA
ATOM      3  O   UNL     1       4.031   3.119  19.905  0.00  0.00    +0.000 OA
ENDROOT
BRANCH   1   4
ATOM      4  C   UNL     1       2.998   5.252  18.773  0.00  0.00    +0.000 A 
ATOM      5  C   UNL     1       3.174   6.215  17.767  0.00  0.00    +0.000 A 
ATOM      6  C   UNL     1       2.689   7.523  17.950  0.00  0.00    +0.000 A 
ATOM      7  C   UNL     1       2.015   7.841  19.124  0.00  0.00    +0.000 A 
ATOM      8  C   UNL     1       1.818   6.854  20.089  0.00  0.00    +0.000 A 
ATOM      9  C   UNL     1       2.320   5.566  19.950  0.00  0.00    +0.000 A 
ATOM     10  C   UNL     1       0.992   7.346  21.225  0.00  0.00    +0.000 C 
ATOM     11  C   UNL     1       0.786   8.838  20.874  0.00  0.00    +0.000 C 
ATOM     12  C   UNL     1       1.333   9.690  22.019  0.00  0.00    +0.000 C 
ATOM     13  N   UNL     1       1.435   9.069  19.548  0.00  0.00    +0.000 N 
ATOM     14  C   UNL     1       1.409  10.235  18.772  0.00  0.00    +0.000 C 
ATOM     15  O   UNL     1       1.980  10.306  17.669  0.00  0.00    +0.000 OA
BRANCH  14  16
ATOM     16  C   UNL     1       0.639  11.475  19.322  0.00  0.00    +0.000 C 
ATOM     17  C   UNL     1       1.300  12.873  19.119  0.00  0.00    +0.000 C 
ATOM     18  C   UNL     1      -0.054  13.437  18.679  0.00  0.00    +0.000 C 
ATOM     19  C   UNL     1      -0.566  12.002  18.502  0.00  0.00    +0.000 C 
ENDBRANCH  14  16
ENDBRANCH   1   4
BRANCH   1  23
ATOM     20  C   UNL     1       7.269   5.451  16.478  0.00  0.00    +0.000 C 
ATOM     21  C   UNL     1       6.170   4.798  15.633  0.00  0.00    +0.000 C 
ATOM     22  C   UNL     1       4.868   4.611  16.416  0.00  0.00    +0.000 C 
ATOM     23  N   UNL     1       5.104   3.850  17.681  0.00  0.00    +0.000 NA
ATOM     24  C   UNL     1       6.178   4.451  18.528  0.00  0.00    +0.000 C 
ATOM     25  C   UNL     1       7.476   4.609  17.739  0.00  0.00    +0.000 C 
BRANCH  20  27
ATOM     26  N   UNL     1       7.968   7.633  17.352  0.00  0.00    +0.000 N 
ATOM     27  C   UNL     1       6.940   6.910  16.792  0.00  0.00    +0.000 C 
ATOM     28  O   UNL     1       5.844   7.411  16.545  0.00  0.00    +0.000 OA
ATOM     29  H   UNL     1       8.874   7.205  17.492  0.00  0.00    +0.000 HD
BRANCH  26  30
ATOM     30  C   UNL     1       7.773   8.999  17.801  0.00  0.00    +0.000 C 
BRANCH  30  31
ATOM     31  C   UNL     1       8.862   9.442  18.786  0.00  0.00    +0.000 C 
BRANCH  31  33
ATOM     32  C   UNL     1       9.487  11.489  20.168  0.00  0.00    +0.000 C 
ATOM     33  C   UNL     1       9.154  10.956  18.774  0.00  0.00    +0.000 C 
ATOM     34  C   UNL     1      10.310  11.267  17.818  0.00  0.00    +0.000 C 
ENDBRANCH  31  33
ENDBRANCH  30  31
ENDBRANCH  26  30
ENDBRANCH  20  27
ENDBRANCH   1  23
TORSDOF 7
ENDMDL
MODEL 7
REMARK VINA RESULT:      -8.1      2.562      4.459
REMARK  Name = 
REMARK  10 active torsions:
REMARK  status: ('A' for Active; 'I' for Inactive)
REMARK    1  A    between atoms: C_1  and  C_2
REMARK    2  A    between atoms: C_2  and  C_3
REMARK    3  A    between atoms: C_2  and  C_4
REMARK    4  A    between atoms: C_4  and  C_5
REMARK    5  A    between atoms: C_5  and  N_6
REMARK    6  A    between atoms: C_7  and  C_9
REMARK    7  A    between atoms: N_12  and  S_13
REMARK    8  A    between atoms: S_13  and  C_16
REMARK    9  A    between atoms: C_23  and  C_24
REMARK   10  A    between atoms: C_26  and  C_28
REMARK                            x       y       z     vdW  Elec       q    Type
REMARK                         _______ _______ _______ _____ _____    ______ ____
ROOT
ATOM      1  S   UNL     1       3.876   3.778  18.366  0.00  0.00    +0.000 S 
ATOM      2  O   UNL     1       3.630   3.631  16.948  0.00  0.00    +0.000 OA
ATOM      3  O   UNL     1       3.520   2.733  19.302  0.00  0.00    +0.000 OA
ENDROOT
BRANCH   1   4
ATOM      4  C   UNL     1       3.087   5.288  18.871  0.00  0.00    +0.000 A 
ATOM      5  C   UNL     1       2.628   5.465  20.186  0.00  0.00    +0.000 A 
ATOM      6  C   UNL     1       1.966   6.652  20.548  0.00  0.00    +0.000 A 
ATOM      7  C   UNL     1       1.793   7.652  19.597  0.00  0.00    +0.000 A 
ATOM      8  C   UNL     1       2.294   7.467  18.309  0.00  0.00    +0.000 A 
ATOM      9  C   UNL     1       2.918   6.289  17.916  0.00  0.00    +0.000 A 
ATOM     10  C   UNL     1       2.109   8.676  17.463  0.00  0.00    +0.000 C 
ATOM     11  C   UNL     1       1.313   9.623  18.392  0.00  0.00    +0.000 C 
ATOM     12  C   UNL     1      -0.003   9.989  17.705  0.00  0.00    +0.000 C 
ATOM     13  N   UNL     1       1.168   8.926  19.705  0.00  0.00    +0.000 N 
ATOM     14  C   UNL     1       0.623   9.435  20.891  0.00  0.00    +0.000 C 
ATOM     15  O   UNL     1       0.567   8.761  21.935  0.00  0.00    +0.000 OA
BRANCH  14  16
ATOM     16  C   UNL     1       0.071  10.894  20.886  0.00  0.00    +0.000 C 
ATOM     17  C   UNL     1      -0.508  11.442  22.226  0.00  0.00    +0.000 C 
ATOM     18  C   UNL     1       0.247  12.755  22.003  0.00  0.00    +0.000 C 
ATOM     19  C   UNL     1       1.094  12.056  20.932  0.00  0.00    +0.000 C 
ENDBRANCH  14  16
ENDBRANCH   1   4
BRANCH   1  23
ATOM     20  C   UNL     1       7.986   5.804  18.473  0.00  0.00    +0.000 C 
ATOM     21  C   UNL     1       7.764   4.631  17.512  0.00  0.00    +0.000 C 
ATOM     22  C   UNL     1       6.279   4.340  17.284  0.00  0.00    +0.000 C 
ATOM     23  N   UNL     1       5.567   4.121  18.581  0.00  0.00    +0.000 NA
ATOM     24  C   UNL     1       5.769   5.240  19.549  0.00  0.00    +0.000 C 
ATOM     25  C   UNL     1       7.255   5.503  19.783  0.00  0.00    +0.000 C 
BRANCH  20  27
ATOM     26  N   UNL     1       8.323   8.216  18.188  0.00  0.00    +0.000 N 
ATOM     27  C   UNL     1       7.551   7.129  17.848  0.00  0.00    +0.000 C 
ATOM     28  O   UNL     1       6.596   7.218  17.079  0.00  0.00    +0.000 OA
ATOM     29  H   UNL     1       9.135   8.098  18.780  0.00  0.00    +0.000 HD
BRANCH  26  30
ATOM     30  C   UNL     1       7.971   9.556  17.757  0.00  0.00    +0.000 C 
BRANCH  30  31
ATOM     31  C   UNL     1       8.785  10.629  18.490  0.00  0.00    +0.000 C 
BRANCH  31  33
ATOM     32  C   UNL     1       8.164  12.950  17.643  0.00  0.00    +0.000 C 
ATOM     33  C   UNL     1       9.200  11.825  17.611  0.00  0.00    +0.000 C 
ATOM     34  C   UNL     1      10.559  12.370  18.060  0.00  0.00    +0.000 C 
ENDBRANCH  31  33
ENDBRANCH  30  31
ENDBRANCH  26  30
ENDBRANCH  20  27
ENDBRANCH   1  23
TORSDOF 7
ENDMDL
MODEL 8
REMARK VINA RESULT:      -8.0      2.857     10.421
REMARK  Name = 
REMARK  10 active torsions:
REMARK  status: ('A' for Active; 'I' for Inactive)
REMARK    1  A    between atoms: C_1  and  C_2
REMARK    2  A    between atoms: C_2  and  C_3
REMARK    3  A    between atoms: C_2  and  C_4
REMARK    4  A    between atoms: C_4  and  C_5
REMARK    5  A    between atoms: C_5  and  N_6
REMARK    6  A    between atoms: C_7  and  C_9
REMARK    7  A    between atoms: N_12  and  S_13
REMARK    8  A    between atoms: S_13  and  C_16
REMARK    9  A    between atoms: C_23  and  C_24
REMARK   10  A    between atoms: C_26  and  C_28
REMARK                            x       y       z     vdW  Elec       q    Type
REMARK                         _______ _______ _______ _____ _____    ______ ____
ROOT
ATOM      1  S   UNL     1       0.502   9.056  21.337  0.00  0.00    +0.000 S 
ATOM      2  O   UNL     1       1.297   9.401  22.496  0.00  0.00    +0.000 OA
ATOM      3  O   UNL     1      -0.765   8.370  21.474  0.00  0.00    +0.000 OA
ENDROOT
BRANCH   1   4
ATOM      4  C   UNL     1       1.549   8.108  20.259  0.00  0.00    +0.000 A 
ATOM      5  C   UNL     1       2.109   8.676  19.104  0.00  0.00    +0.000 A 
ATOM      6  C   UNL     1       2.897   7.891  18.243  0.00  0.00    +0.000 A 
ATOM      7  C   UNL     1       3.133   6.558  18.562  0.00  0.00    +0.000 A 
ATOM      8  C   UNL     1       2.599   6.031  19.737  0.00  0.00    +0.000 A 
ATOM      9  C   UNL     1       1.786   6.774  20.584  0.00  0.00    +0.000 A 
ATOM     10  C   UNL     1       3.039   4.628  19.965  0.00  0.00    +0.000 C 
ATOM     11  C   UNL     1       3.856   4.316  18.689  0.00  0.00    +0.000 C 
ATOM     12  C   UNL     1       3.233   3.104  17.995  0.00  0.00    +0.000 C 
ATOM     13  N   UNL     1       3.884   5.566  17.872  0.00  0.00    +0.000 N 
ATOM     14  C   UNL     1       4.598   5.802  16.689  0.00  0.00    +0.000 C 
ATOM     15  O   UNL     1       4.555   6.897  16.099  0.00  0.00    +0.000 OA
BRANCH  14  16
ATOM     16  C   UNL     1       5.468   4.647  16.106  0.00  0.00    +0.000 C 
ATOM     17  C   UNL     1       5.303   4.327  14.588  0.00  0.00    +0.000 C 
ATOM     18  C   UNL     1       6.826   4.244  14.452  0.00  0.00    +0.000 C 
ATOM     19  C   UNL     1       6.960   4.940  15.812  0.00  0.00    +0.000 C 
ENDBRANCH  14  16
ENDBRANCH   1   4
BRANCH   1  23
ATOM     20  C   UNL     1      -1.459  12.571  19.145  0.00  0.00    +0.000 C 
ATOM     21  C   UNL     1      -0.645  11.556  18.336  0.00  0.00    +0.000 C 
ATOM     22  C   UNL     1      -0.414  10.252  19.103  0.00  0.00    +0.000 C 
ATOM     23  N   UNL     1       0.215  10.513  20.434  0.00  0.00    +0.000 NA
ATOM     24  C   UNL     1      -0.547  11.508  21.250  0.00  0.00    +0.000 C 
ATOM     25  C   UNL     1      -0.748  12.810  20.479  0.00  0.00    +0.000 C 
BRANCH  20  27
ATOM     26  N   UNL     1      -3.403  11.336  18.302  0.00  0.00    +0.000 N 
ATOM     27  C   UNL     1      -2.906  12.111  19.324  0.00  0.00    +0.000 C 
ATOM     28  O   UNL     1      -3.574  12.393  20.318  0.00  0.00    +0.000 OA
ATOM     29  H   UNL     1      -2.809  11.078  17.525  0.00  0.00    +0.000 HD
BRANCH  26  30
ATOM     30  C   UNL     1      -4.791  10.914  18.281  0.00  0.00    +0.000 C 
BRANCH  30  31
ATOM     31  C   UNL     1      -5.677  11.892  17.499  0.00  0.00    +0.000 C 
BRANCH  31  33
ATOM     32  C   UNL     1      -7.218  11.591  19.506  0.00  0.00    +0.000 C 
ATOM     33  C   UNL     1      -7.114  12.024  18.042  0.00  0.00    +0.000 C 
ATOM     34  C   UNL     1      -7.607  13.467  17.900  0.00  0.00    +0.000 C 
ENDBRANCH  31  33
ENDBRANCH  30  31
ENDBRANCH  26  30
ENDBRANCH  20  27
ENDBRANCH   1  23
TORSDOF 7
ENDMDL
MODEL 9
REMARK VINA RESULT:      -7.9      2.461      9.579
REMARK  Name = 
REMARK  10 active torsions:
REMARK  status: ('A' for Active; 'I' for Inactive)
REMARK    1  A    between atoms: C_1  and  C_2
REMARK    2  A    between atoms: C_2  and  C_3
REMARK    3  A    between atoms: C_2  and  C_4
REMARK    4  A    between atoms: C_4  and  C_5
REMARK    5  A    between atoms: C_5  and  N_6
REMARK    6  A    between atoms: C_7  and  C_9
REMARK    7  A    between atoms: N_12  and  S_13
REMARK    8  A    between atoms: S_13  and  C_16
REMARK    9  A    between atoms: C_23  and  C_24
REMARK   10  A    between atoms: C_26  and  C_28
REMARK                            x       y       z     vdW  Elec       q    Type
REMARK                         _______ _______ _______ _____ _____    ______ ____
ROOT
ATOM      1  S   UNL     1       0.544   8.961  21.535  0.00  0.00    +0.000 S 
ATOM      2  O   UNL     1       1.283   9.070  22.774  0.00  0.00    +0.000 OA
ATOM      3  O   UNL     1      -0.802   8.428  21.510  0.00  0.00    +0.000 OA
ENDROOT
BRANCH   1   4
ATOM      4  C   UNL     1       1.551   8.018  20.416  0.00  0.00    +0.000 A 
ATOM      5  C   UNL     1       2.116   8.607  19.274  0.00  0.00    +0.000 A 
ATOM      6  C   UNL     1       2.871   7.827  18.380  0.00  0.00    +0.000 A 
ATOM      7  C   UNL     1       3.071   6.478  18.653  0.00  0.00    +0.000 A 
ATOM      8  C   UNL     1       2.533   5.928  19.817  0.00  0.00    +0.000 A 
ATOM      9  C   UNL     1       1.751   6.667  20.695  0.00  0.00    +0.000 A 
ATOM     10  C   UNL     1       2.933   4.507  19.995  0.00  0.00    +0.000 C 
ATOM     11  C   UNL     1       3.727   4.212  18.700  0.00  0.00    +0.000 C 
ATOM     12  C   UNL     1       3.062   3.042  17.975  0.00  0.00    +0.000 C 
ATOM     13  N   UNL     1       3.785   5.487  17.924  0.00  0.00    +0.000 N 
ATOM     14  C   UNL     1       4.493   5.740  16.742  0.00  0.00    +0.000 C 
ATOM     15  O   UNL     1       4.478   6.853  16.188  0.00  0.00    +0.000 OA
BRANCH  14  16
ATOM     16  C   UNL     1       5.323   4.578  16.112  0.00  0.00    +0.000 C 
ATOM     17  C   UNL     1       5.466   4.565  14.559  0.00  0.00    +0.000 C 
ATOM     18  C   UNL     1       6.958   4.257  14.711  0.00  0.00    +0.000 C 
ATOM     19  C   UNL     1       6.867   4.668  16.186  0.00  0.00    +0.000 C 
ENDBRANCH  14  16
ENDBRANCH   1   4
BRANCH   1  23
ATOM     20  C   UNL     1      -0.814  12.872  19.568  0.00  0.00    +0.000 C 
ATOM     21  C   UNL     1       0.043  11.894  18.757  0.00  0.00    +0.000 C 
ATOM     22  C   UNL     1       0.064  10.492  19.371  0.00  0.00    +0.000 C 
ATOM     23  N   UNL     1       0.498  10.536  20.801  0.00  0.00    +0.000 NA
ATOM     24  C   UNL     1      -0.310  11.488  21.623  0.00  0.00    +0.000 C 
ATOM     25  C   UNL     1      -0.302  12.886  21.010  0.00  0.00    +0.000 C 
BRANCH  20  27
ATOM     26  N   UNL     1      -2.684  11.914  18.303  0.00  0.00    +0.000 N 
ATOM     27  C   UNL     1      -2.299  12.522  19.476  0.00  0.00    +0.000 C 
ATOM     28  O   UNL     1      -3.092  12.745  20.389  0.00  0.00    +0.000 OA
ATOM     29  H   UNL     1      -1.996  11.695  17.594  0.00  0.00    +0.000 HD
BRANCH  26  30
ATOM     30  C   UNL     1      -4.078  11.619  18.028  0.00  0.00    +0.000 C 
BRANCH  30  31
ATOM     31  C   UNL     1      -4.334  11.394  16.532  0.00  0.00    +0.000 C 
BRANCH  31  33
ATOM     32  C   UNL     1      -2.363   9.779  16.604  0.00  0.00    +0.000 C 
ATOM     33  C   UNL     1      -3.137  10.798  15.764  0.00  0.00    +0.000 C 
ATOM     34  C   UNL     1      -3.614  10.134  14.468  0.00  0.00    +0.000 C 
ENDBRANCH  31  33
ENDBRANCH  30  31
ENDBRANCH  26  30
ENDBRANCH  20  27
ENDBRANCH   1  23
TORSDOF 7
ENDMDL
