MODEL 1
REMARK VINA RESULT:      -6.1      0.000      0.000
REMARK  Name = 
REMARK  8 active torsions:
REMARK  status: ('A' for Active; 'I' for Inactive)
REMARK    1  A    between atoms: C_1  and  C_2
REMARK    2  A    between atoms: C_2  and  N_3
REMARK    3  A    between atoms: N_3  and  C_4
REMARK    4  A    between atoms: C_4  and  C_5
REMARK    5  A    between atoms: C_6  and  C_8
REMARK    6  A    between atoms: C_8  and  C_9
REMARK    7  A    between atoms: C_9  and  N_10
REMARK    8  A    between atoms: N_10  and  C_11
REMARK                            x       y       z     vdW  Elec       q    Type
REMARK                         _______ _______ _______ _____ _____    ______ ____
ROOT
ATOM      1  C   UNL     1       4.981   3.715  16.101  0.00  0.00    +0.000 C 
ENDROOT
BRANCH   1   2
ATOM      2  N   UNL     1       4.982   3.259  17.498  0.00  0.00    +0.000 N 
ATOM      3  H   UNL     1       5.675   3.741  18.072  0.00  0.00    +0.000 HD
BRANCH   2   4
ATOM      4  C   UNL     1       3.731   3.272  18.161  0.00  0.00    +0.000 A 
ATOM      5  C   UNL     1       2.588   3.826  17.573  0.00  0.00    +0.000 A 
ATOM      6  C   UNL     1       1.371   3.769  18.241  0.00  0.00    +0.000 A 
ATOM      7  N   UNL     1       1.197   3.176  19.438  0.00  0.00    +0.000 NA
ATOM      8  C   UNL     1       2.295   2.594  19.978  0.00  0.00    +0.000 A 
ATOM      9  C   UNL     1       3.553   2.606  19.386  0.00  0.00    +0.000 A 
ATOM     10 CL   UNL     1       4.869   1.829  20.191  0.00  0.00    +0.000 Cl
ENDBRANCH   2   4
ENDBRANCH   1   2
BRANCH   1  11
ATOM     11  C   UNL     1       6.388   4.085  15.647  0.00  0.00    +0.000 C 
BRANCH  11  13
ATOM     12  N   UNL     1       6.755   6.065  17.115  0.00  0.00    +0.000 N 
ATOM     13  C   UNL     1       7.136   4.760  16.789  0.00  0.00    +0.000 C 
ATOM     14  O   UNL     1       8.052   4.183  17.378  0.00  0.00    +0.000 OA
BRANCH  12  16
ATOM     15  C   UNL     1       7.931   8.189  17.694  0.00  0.00    +0.000 C 
ATOM     16  C   UNL     1       7.572   6.770  18.110  0.00  0.00    +0.000 C 
ENDBRANCH  12  16
BRANCH  12  17
ATOM     17  C   UNL     1       5.639   6.731  16.433  0.00  0.00    +0.000 C 
ATOM     18  C   UNL     1       4.388   7.048  17.234  0.00  0.00    +0.000 C 
ENDBRANCH  12  17
ENDBRANCH  11  13
ENDBRANCH   1  11
TORSDOF 6
ENDMDL
MODEL 2
REMARK VINA RESULT:      -6.0      2.408      5.665
REMARK  Name = 
REMARK  8 active torsions:
REMARK  status: ('A' for Active; 'I' for Inactive)
REMARK    1  A    between atoms: C_1  and  C_2
REMARK    2  A    between atoms: C_2  and  N_3
REMARK    3  A    between atoms: N_3  and  C_4
REMARK    4  A    between atoms: C_4  and  C_5
REMARK    5  A    between atoms: C_6  and  C_8
REMARK    6  A    between atoms: C_8  and  C_9
REMARK    7  A    between atoms: C_9  and  N_10
REMARK    8  A    between atoms: N_10  and  C_11
REMARK                            x       y       z     vdW  Elec       q    Type
REMARK                         _______ _______ _______ _____ _____    ______ ____
ROOT
ATOM      1  C   UNL     1       3.853   2.478  17.478  0.00  0.00    +0.000 C 
ENDROOT
BRANCH   1   2
ATOM      2  N   UNL     1       4.139   3.913  17.616  0.00  0.00    +0.000 N 
ATOM      3  H   UNL     1       4.203   4.212  18.591  0.00  0.00    +0.000 HD
BRANCH   2   4
ATOM      4  C   UNL     1       5.259   4.401  16.899  0.00  0.00    +0.000 A 
ATOM      5  C   UNL     1       5.350   4.292  15.507  0.00  0.00    +0.000 A 
ATOM      6  C   UNL     1       6.444   4.831  14.842  0.00  0.00    +0.000 A 
ATOM      7  N   UNL     1       7.442   5.498  15.454  0.00  0.00    +0.000 NA
ATOM      8  C   UNL     1       7.321   5.648  16.796  0.00  0.00    +0.000 A 
ATOM      9  C   UNL     1       6.267   5.138  17.544  0.00  0.00    +0.000 A 
ATOM     10 CL   UNL     1       6.244   5.398  19.252  0.00  0.00    +0.000 Cl
ENDBRANCH   2   4
ENDBRANCH   1   2
BRANCH   1  11
ATOM     11  C   UNL     1       2.378   2.189  17.728  0.00  0.00    +0.000 C 
BRANCH  11  13
ATOM     12  N   UNL     1       1.629   3.565  19.667  0.00  0.00    +0.000 N 
ATOM     13  C   UNL     1       1.696   3.435  18.276  0.00  0.00    +0.000 C 
ATOM     14  O   UNL     1       1.204   4.275  17.521  0.00  0.00    +0.000 OA
BRANCH  12  16
ATOM     15  C   UNL     1       1.691   5.895  20.559  0.00  0.00    +0.000 C 
ATOM     16  C   UNL     1       0.842   4.684  20.196  0.00  0.00    +0.000 C 
ENDBRANCH  12  16
BRANCH  12  17
ATOM     17  C   UNL     1       2.250   2.577  20.559  0.00  0.00    +0.000 C 
ATOM     18  C   UNL     1       1.730   2.462  21.982  0.00  0.00    +0.000 C 
ENDBRANCH  12  17
ENDBRANCH  11  13
ENDBRANCH   1  11
TORSDOF 6
ENDMDL
MODEL 3
REMARK VINA RESULT:      -5.9      2.786      5.807
REMARK  Name = 
REMARK  8 active torsions:
REMARK  status: ('A' for Active; 'I' for Inactive)
REMARK    1  A    between atoms: C_1  and  C_2
REMARK    2  A    between atoms: C_2  and  N_3
REMARK    3  A    between atoms: N_3  and  C_4
REMARK    4  A    between atoms: C_4  and  C_5
REMARK    5  A    between atoms: C_6  and  C_8
REMARK    6  A    between atoms: C_8  and  C_9
REMARK    7  A    between atoms: C_9  and  N_10
REMARK    8  A    between atoms: N_10  and  C_11
REMARK                            x       y       z     vdW  Elec       q    Type
REMARK                         _______ _______ _______ _____ _____    ______ ____
ROOT
ATOM      1  C   UNL     1       2.774   6.495  18.143  0.00  0.00    +0.000 C 
ENDROOT
BRANCH   1   2
ATOM      2  N   UNL     1       3.608   5.559  17.375  0.00  0.00    +0.000 N 
ATOM      3  H   UNL     1       3.522   5.689  16.366  0.00  0.00    +0.000 HD
BRANCH   2   4
ATOM      4  C   UNL     1       4.978   5.507  17.730  0.00  0.00    +0.000 A 
ATOM      5  C   UNL     1       5.394   5.439  19.064  0.00  0.00    +0.000 A 
ATOM      6  C   UNL     1       6.748   5.337  19.361  0.00  0.00    +0.000 A 
ATOM      7  N   UNL     1       7.719   5.267  18.429  0.00  0.00    +0.000 NA
ATOM      8  C   UNL     1       7.306   5.279  17.138  0.00  0.00    +0.000 A 
ATOM      9  C   UNL     1       5.976   5.384  16.748  0.00  0.00    +0.000 A 
ATOM     10 CL   UNL     1       5.592   5.394  15.064  0.00  0.00    +0.000 Cl
ENDBRANCH   2   4
ENDBRANCH   1   2
BRANCH   1  11
ATOM     11  C   UNL     1       1.697   5.752  18.924  0.00  0.00    +0.000 C 
BRANCH  11  13
ATOM     12  N   UNL     1       2.074   3.324  19.342  0.00  0.00    +0.000 N 
ATOM     13  C   UNL     1       1.626   4.305  18.453  0.00  0.00    +0.000 C 
ATOM     14  O   UNL     1       1.216   4.024  17.326  0.00  0.00    +0.000 OA
BRANCH  12  16
ATOM     15  C   UNL     1       3.549   1.549  18.389  0.00  0.00    +0.000 C 
ATOM     16  C   UNL     1       2.149   1.948  18.835  0.00  0.00    +0.000 C 
ENDBRANCH  12  16
BRANCH  12  17
ATOM     17  C   UNL     1       2.528   3.665  20.696  0.00  0.00    +0.000 C 
ATOM     18  C   UNL     1       1.943   2.897  21.869  0.00  0.00    +0.000 C 
ENDBRANCH  12  17
ENDBRANCH  11  13
ENDBRANCH   1  11
TORSDOF 6
ENDMDL
MODEL 4
REMARK VINA RESULT:      -5.9      1.049      1.049
REMARK  Name = 
REMARK  8 active torsions:
REMARK  status: ('A' for Active; 'I' for Inactive)
REMARK    1  A    between atoms: C_1  and  C_2
REMARK    2  A    between atoms: C_2  and  N_3
REMARK    3  A    between atoms: N_3  and  C_4
REMARK    4  A    between atoms: C_4  and  C_5
REMARK    5  A    between atoms: C_6  and  C_8
REMARK    6  A    between atoms: C_8  and  C_9
REMARK    7  A    between atoms: C_9  and  N_10
REMARK    8  A    between atoms: N_10  and  C_11
REMARK                            x       y       z     vdW  Elec       q    Type
REMARK                         _______ _______ _______ _____ _____    ______ ____
ROOT
ATOM      1  C   UNL     1       5.107   3.573  15.489  0.00  0.00    +0.000 C 
ENDROOT
BRANCH   1   2
ATOM      2  N   UNL     1       5.153   3.311  16.935  0.00  0.00    +0.000 N 
ATOM      3  H   UNL     1       5.958   3.744  17.390  0.00  0.00    +0.000 HD
BRANCH   2   4
ATOM      4  C   UNL     1       3.978   3.618  17.664  0.00  0.00    +0.000 A 
ATOM      5  C   UNL     1       2.703   3.311  17.175  0.00  0.00    +0.000 A 
ATOM      6  C   UNL     1       1.582   3.584  17.949  0.00  0.00    +0.000 A 
ATOM      7  N   UNL     1       1.634   4.113  19.188  0.00  0.00    +0.000 NA
ATOM      8  C   UNL     1       2.874   4.358  19.678  0.00  0.00    +0.000 A 
ATOM      9  C   UNL     1       4.049   4.123  18.974  0.00  0.00    +0.000 A 
ATOM     10 CL   UNL     1       5.564   4.489  19.719  0.00  0.00    +0.000 Cl
ENDBRANCH   2   4
ENDBRANCH   1   2
BRANCH   1  11
ATOM     11  C   UNL     1       6.227   4.519  15.070  0.00  0.00    +0.000 C 
BRANCH  11  13
ATOM     12  N   UNL     1       6.519   6.218  16.871  0.00  0.00    +0.000 N 
ATOM     13  C   UNL     1       6.965   5.020  16.305  0.00  0.00    +0.000 C 
ATOM     14  O   UNL     1       7.928   4.403  16.763  0.00  0.00    +0.000 OA
BRANCH  12  16
ATOM     15  C   UNL     1       7.895   8.151  17.643  0.00  0.00    +0.000 C 
ATOM     16  C   UNL     1       7.320   6.779  17.964  0.00  0.00    +0.000 C 
ENDBRANCH  12  16
BRANCH  12  17
ATOM     17  C   UNL     1       5.347   6.927  16.340  0.00  0.00    +0.000 C 
ATOM     18  C   UNL     1       4.203   7.241  17.287  0.00  0.00    +0.000 C 
ENDBRANCH  12  17
ENDBRANCH  11  13
ENDBRANCH   1  11
TORSDOF 6
ENDMDL
MODEL 5
REMARK VINA RESULT:      -5.8      1.583      2.635
REMARK  Name = 
REMARK  8 active torsions:
REMARK  status: ('A' for Active; 'I' for Inactive)
REMARK    1  A    between atoms: C_1  and  C_2
REMARK    2  A    between atoms: C_2  and  N_3
REMARK    3  A    between atoms: N_3  and  C_4
REMARK    4  A    between atoms: C_4  and  C_5
REMARK    5  A    between atoms: C_6  and  C_8
REMARK    6  A    between atoms: C_8  and  C_9
REMARK    7  A    between atoms: C_9  and  N_10
REMARK    8  A    between atoms: N_10  and  C_11
REMARK                            x       y       z     vdW  Elec       q    Type
REMARK                         _______ _______ _______ _____ _____    ______ ____
ROOT
ATOM      1  C   UNL     1       5.592   5.140  19.356  0.00  0.00    +0.000 C 
ENDROOT
BRANCH   1   2
ATOM      2  N   UNL     1       5.381   3.691  19.226  0.00  0.00    +0.000 N 
ATOM      3  H   UNL     1       6.045   3.143  19.774  0.00  0.00    +0.000 HD
BRANCH   2   4
ATOM      4  C   UNL     1       4.066   3.225  19.475  0.00  0.00    +0.000 A 
ATOM      5  C   UNL     1       3.626   2.913  20.766  0.00  0.00    +0.000 A 
ATOM      6  C   UNL     1       2.311   2.510  20.969  0.00  0.00    +0.000 A 
ATOM      7  N   UNL     1       1.392   2.421  19.987  0.00  0.00    +0.000 NA
ATOM      8  C   UNL     1       1.810   2.777  18.748  0.00  0.00    +0.000 A 
ATOM      9  C   UNL     1       3.105   3.186  18.451  0.00  0.00    +0.000 A 
ATOM     10 CL   UNL     1       3.503   3.605  16.823  0.00  0.00    +0.000 Cl
ENDBRANCH   2   4
ENDBRANCH   1   2
BRANCH   1  11
ATOM     11  C   UNL     1       7.054   5.501  19.117  0.00  0.00    +0.000 C 
BRANCH  11  13
ATOM     12  N   UNL     1       7.005   5.636  16.629  0.00  0.00    +0.000 N 
ATOM     13  C   UNL     1       7.498   4.976  17.758  0.00  0.00    +0.000 C 
ATOM     14  O   UNL     1       8.238   3.996  17.668  0.00  0.00    +0.000 OA
BRANCH  12  16
ATOM     15  C   UNL     1       6.316   3.962  14.910  0.00  0.00    +0.000 C 
ATOM     16  C   UNL     1       7.308   5.041  15.322  0.00  0.00    +0.000 C 
ENDBRANCH  12  16
BRANCH  12  17
ATOM     17  C   UNL     1       6.152   6.826  16.747  0.00  0.00    +0.000 C 
ATOM     18  C   UNL     1       4.811   6.826  16.033  0.00  0.00    +0.000 C 
ENDBRANCH  12  17
ENDBRANCH  11  13
ENDBRANCH   1  11
TORSDOF 6
ENDMDL
MODEL 6
REMARK VINA RESULT:      -5.8      1.990      2.478
REMARK  Name = 
REMARK  8 active torsions:
REMARK  status: ('A' for Active; 'I' for Inactive)
REMARK    1  A    between atoms: C_1  and  C_2
REMARK    2  A    between atoms: C_2  and  N_3
REMARK    3  A    between atoms: N_3  and  C_4
REMARK    4  A    between atoms: C_4  and  C_5
REMARK    5  A    between atoms: C_6  and  C_8
REMARK    6  A    between atoms: C_8  and  C_9
REMARK    7  A    between atoms: C_9  and  N_10
REMARK    8  A    between atoms: N_10  and  C_11
REMARK                            x       y       z     vdW  Elec       q    Type
REMARK                         _______ _______ _______ _____ _____    ______ ____
ROOT
ATOM      1  C   UNL     1       5.311   3.589  18.510  0.00  0.00    +0.000 C 
ENDROOT
BRANCH   1   2
ATOM      2  N   UNL     1       3.961   3.128  18.157  0.00  0.00    +0.000 N 
ATOM      3  H   UNL     1       3.963   2.224  17.682  0.00  0.00    +0.000 HD
BRANCH   2   4
ATOM      4  C   UNL     1       3.012   3.106  19.208  0.00  0.00    +0.000 A 
ATOM      5  C   UNL     1       3.305   2.547  20.457  0.00  0.00    +0.000 A 
ATOM      6  C   UNL     1       2.359   2.595  21.474  0.00  0.00    +0.000 A 
ATOM      7  N   UNL     1       1.154   3.185  21.353  0.00  0.00    +0.000 NA
ATOM      8  C   UNL     1       0.897   3.773  20.159  0.00  0.00    +0.000 A 
ATOM      9  C   UNL     1       1.779   3.769  19.084  0.00  0.00    +0.000 A 
ATOM     10 CL   UNL     1       1.318   4.552  17.615  0.00  0.00    +0.000 Cl
ENDBRANCH   2   4
ENDBRANCH   1   2
BRANCH   1  11
ATOM     11  C   UNL     1       5.260   4.943  19.209  0.00  0.00    +0.000 C 
BRANCH  11  13
ATOM     12  N   UNL     1       6.555   6.612  17.886  0.00  0.00    +0.000 N 
ATOM     13  C   UNL     1       6.553   5.704  18.950  0.00  0.00    +0.000 C 
ATOM     14  O   UNL     1       7.556   5.504  19.636  0.00  0.00    +0.000 OA
BRANCH  12  16
ATOM     15  C   UNL     1       7.855   8.739  17.762  0.00  0.00    +0.000 C 
ATOM     16  C   UNL     1       7.838   7.233  17.541  0.00  0.00    +0.000 C 
ENDBRANCH  12  16
BRANCH  12  17
ATOM     17  C   UNL     1       5.343   6.870  17.097  0.00  0.00    +0.000 C 
ATOM     18  C   UNL     1       5.219   6.217  15.731  0.00  0.00    +0.000 C 
ENDBRANCH  12  17
ENDBRANCH  11  13
ENDBRANCH   1  11
TORSDOF 6
ENDMDL
MODEL 7
REMARK VINA RESULT:      -5.8      2.763      5.653
REMARK  Name = 
REMARK  8 active torsions:
REMARK  status: ('A' for Active; 'I' for Inactive)
REMARK    1  A    between atoms: C_1  and  C_2
REMARK    2  A    between atoms: C_2  and  N_3
REMARK    3  A    between atoms: N_3  and  C_4
REMARK    4  A    between atoms: C_4  and  C_5
REMARK    5  A    between atoms: C_6  and  C_8
REMARK    6  A    between atoms: C_8  and  C_9
REMARK    7  A    between atoms: C_9  and  N_10
REMARK    8  A    between atoms: N_10  and  C_11
REMARK                            x       y       z     vdW  Elec       q    Type
REMARK                         _______ _______ _______ _____ _____    ______ ____
ROOT
ATOM      1  C   UNL     1       3.913   2.479  17.569  0.00  0.00    +0.000 C 
ENDROOT
BRANCH   1   2
ATOM      2  N   UNL     1       4.197   3.708  16.816  0.00  0.00    +0.000 N 
ATOM      3  H   UNL     1       3.360   4.265  16.636  0.00  0.00    +0.000 HD
BRANCH   2   4
ATOM      4  C   UNL     1       5.214   4.543  17.341  0.00  0.00    +0.000 A 
ATOM      5  C   UNL     1       5.484   4.605  18.713  0.00  0.00    +0.000 A 
ATOM      6  C   UNL     1       6.526   5.400  19.176  0.00  0.00    +0.000 A 
ATOM      7  N   UNL     1       7.340   6.115  18.376  0.00  0.00    +0.000 NA
ATOM      8  C   UNL     1       7.107   6.009  17.045  0.00  0.00    +0.000 A 
ATOM      9  C   UNL     1       6.087   5.244  16.492  0.00  0.00    +0.000 A 
ATOM     10 CL   UNL     1       5.901   5.205  14.775  0.00  0.00    +0.000 Cl
ENDBRANCH   2   4
ENDBRANCH   1   2
BRANCH   1  11
ATOM     11  C   UNL     1       2.411   2.246  17.687  0.00  0.00    +0.000 C 
BRANCH  11  13
ATOM     12  N   UNL     1       1.694   3.632  19.631  0.00  0.00    +0.000 N 
ATOM     13  C   UNL     1       1.740   3.496  18.241  0.00  0.00    +0.000 C 
ATOM     14  O   UNL     1       1.239   4.333  17.489  0.00  0.00    +0.000 OA
BRANCH  12  16
ATOM     15  C   UNL     1       1.777   5.955  20.540  0.00  0.00    +0.000 C 
ATOM     16  C   UNL     1       0.917   4.755  20.168  0.00  0.00    +0.000 C 
ENDBRANCH  12  16
BRANCH  12  17
ATOM     17  C   UNL     1       2.326   2.646  20.519  0.00  0.00    +0.000 C 
ATOM     18  C   UNL     1       1.803   2.514  21.938  0.00  0.00    +0.000 C 
ENDBRANCH  12  17
ENDBRANCH  11  13
ENDBRANCH   1  11
TORSDOF 6
ENDMDL
MODEL 8
REMARK VINA RESULT:      -5.8      2.804      5.731
REMARK  Name = 
REMARK  8 active torsions:
REMARK  status: ('A' for Active; 'I' for Inactive)
REMARK    1  A    between atoms: C_1  and  C_2
REMARK    2  A    between atoms: C_2  and  N_3
REMARK    3  A    between atoms: N_3  and  C_4
REMARK    4  A    between atoms: C_4  and  C_5
REMARK    5  A    between atoms: C_6  and  C_8
REMARK    6  A    between atoms: C_8  and  C_9
REMARK    7  A    between atoms: C_9  and  N_10
REMARK    8  A    between atoms: N_10  and  C_11
REMARK                            x       y       z     vdW  Elec       q    Type
REMARK                         _______ _______ _______ _____ _____    ______ ____
ROOT
ATOM      1  C   UNL     1       3.500   6.867  17.780  0.00  0.00    +0.000 C 
ENDROOT
BRANCH   1   2
ATOM      2  N   UNL     1       4.590   6.900  16.795  0.00  0.00    +0.000 N 
ATOM      3  H   UNL     1       4.876   7.849  16.552  0.00  0.00    +0.000 HD
BRANCH   2   4
ATOM      4  C   UNL     1       5.736   6.126  17.102  0.00  0.00    +0.000 A 
ATOM      5  C   UNL     1       6.370   6.207  18.347  0.00  0.00    +0.000 A 
ATOM      6  C   UNL     1       7.460   5.390  18.622  0.00  0.00    +0.000 A 
ATOM      7  N   UNL     1       7.950   4.476  17.762  0.00  0.00    +0.000 NA
ATOM      8  C   UNL     1       7.298   4.364  16.579  0.00  0.00    +0.000 A 
ATOM      9  C   UNL     1       6.204   5.141  16.216  0.00  0.00    +0.000 A 
ATOM     10 CL   UNL     1       5.473   4.896  14.670  0.00  0.00    +0.000 Cl
ENDBRANCH   2   4
ENDBRANCH   1   2
BRANCH   1  11
ATOM     11  C   UNL     1       2.906   5.468  17.891  0.00  0.00    +0.000 C 
BRANCH  11  13
ATOM     12  N   UNL     1       3.052   3.950  19.863  0.00  0.00    +0.000 N 
ATOM     13  C   UNL     1       2.581   5.161  19.347  0.00  0.00    +0.000 C 
ATOM     14  O   UNL     1       1.910   5.941  20.025  0.00  0.00    +0.000 OA
BRANCH  12  16
ATOM     15  C   UNL     1       1.287   2.836  21.232  0.00  0.00    +0.000 C 
ATOM     16  C   UNL     1       2.613   3.585  21.214  0.00  0.00    +0.000 C 
ENDBRANCH  12  16
BRANCH  12  17
ATOM     17  C   UNL     1       3.881   3.044  19.057  0.00  0.00    +0.000 C 
ATOM     18  C   UNL     1       3.197   1.912  18.311  0.00  0.00    +0.000 C 
ENDBRANCH  12  17
ENDBRANCH  11  13
ENDBRANCH   1  11
TORSDOF 6
ENDMDL
MODEL 9
REMARK VINA RESULT:      -5.8      2.333      3.250
REMARK  Name = 
REMARK  8 active torsions:
REMARK  status: ('A' for Active; 'I' for Inactive)
REMARK    1  A    between atoms: C_1  and  C_2
REMARK    2  A    between atoms: C_2  and  N_3
REMARK    3  A    between atoms: N_3  and  C_4
REMARK    4  A    between atoms: C_4  and  C_5
REMARK    5  A    between atoms: C_6  and  C_8
REMARK    6  A    between atoms: C_8  and  C_9
REMARK    7  A    between atoms: C_9  and  N_10
REMARK    8  A    between atoms: N_10  and  C_11
REMARK                            x       y       z     vdW  Elec       q    Type
REMARK                         _______ _______ _______ _____ _____    ______ ____
ROOT
ATOM      1  C   UNL     1       4.857   5.500  19.432  0.00  0.00    +0.000 C 
ENDROOT
BRANCH   1   2
ATOM      2  N   UNL     1       3.413   5.550  19.167  0.00  0.00    +0.000 N 
ATOM      3  H   UNL     1       3.194   5.584  18.170  0.00  0.00    +0.000 HD
BRANCH   2   4
ATOM      4  C   UNL     1       2.627   4.548  19.787  0.00  0.00    +0.000 A 
ATOM      5  C   UNL     1       2.780   4.222  21.140  0.00  0.00    +0.000 A 
ATOM      6  C   UNL     1       1.951   3.268  21.718  0.00  0.00    +0.000 A 
ATOM      7  N   UNL     1       0.960   2.635  21.060  0.00  0.00    +0.000 NA
ATOM      8  C   UNL     1       0.782   2.994  19.765  0.00  0.00    +0.000 A 
ATOM      9  C   UNL     1       1.565   3.933  19.103  0.00  0.00    +0.000 A 
ATOM     10 CL   UNL     1       1.230   4.290  17.447  0.00  0.00    +0.000 Cl
ENDBRANCH   2   4
ENDBRANCH   1   2
BRANCH   1  11
ATOM     11  C   UNL     1       5.501   4.312  18.728  0.00  0.00    +0.000 C 
BRANCH  11  13
ATOM     12  N   UNL     1       6.169   5.166  16.484  0.00  0.00    +0.000 N 
ATOM     13  C   UNL     1       5.258   4.410  17.228  0.00  0.00    +0.000 C 
ATOM     14  O   UNL     1       4.285   3.866  16.705  0.00  0.00    +0.000 OA
BRANCH  12  16
ATOM     15  C   UNL     1       6.666   4.506  14.129  0.00  0.00    +0.000 C 
ATOM     16  C   UNL     1       5.855   5.387  15.068  0.00  0.00    +0.000 C 
ENDBRANCH  12  16
BRANCH  12  17
ATOM     17  C   UNL     1       7.347   5.781  17.110  0.00  0.00    +0.000 C 
ATOM     18  C   UNL     1       7.343   7.283  17.334  0.00  0.00    +0.000 C 
ENDBRANCH  12  17
ENDBRANCH  11  13
ENDBRANCH   1  11
TORSDOF 6
ENDMDL
