MODEL 1
REMARK VINA RESULT:      -7.7      0.000      0.000
REMARK  Name = 
REMARK  6 active torsions:
REMARK  status: ('A' for Active; 'I' for Inactive)
REMARK    1  A    between atoms: C_1  and  C_2
REMARK    2  A    between atoms: C_5  and  C_6
REMARK    3  A    between atoms: N_15  and  C_16
REMARK    4  A    between atoms: C_16  and  C_17
REMARK    5  A    between atoms: N_19  and  C_20
REMARK    6  A    between atoms: N_19  and  C_21
REMARK                            x       y       z     vdW  Elec       q    Type
REMARK                         _______ _______ _______ _____ _____    ______ ____
ROOT
ATOM      1  C   UNL     1       3.273   5.852  18.279  0.00  0.00    +0.000 C 
ATOM      2  O   UNL     1       2.527   6.585  17.636  0.00  0.00    +0.000 OA
ATOM      3  N   UNL     1       4.664   5.881  18.036  0.00  0.00    +0.000 N 
ATOM      4  C   UNL     1       5.634   5.027  18.699  0.00  0.00    +0.000 C 
ATOM      5  C   UNL     1       7.075   5.152  18.248  0.00  0.00    +0.000 C 
ATOM      6  C   UNL     1       7.479   6.621  18.225  0.00  0.00    +0.000 C 
ATOM      7  C   UNL     1       6.439   7.512  17.555  0.00  0.00    +0.000 C 
ATOM      8  C   UNL     1       5.248   6.730  16.972  0.00  0.00    +0.000 C 
ATOM      9  C   UNL     1       5.683   5.901  15.719  0.00  0.00    +0.000 C 
ATOM     10  N   UNL     1       6.169   4.536  15.980  0.00  0.00    +0.000 NA
ATOM     11  C   UNL     1       7.282   4.417  16.919  0.00  0.00    +0.000 C 
ENDROOT
BRANCH   1  16
ATOM     12  C   UNL     1       0.991   2.167  22.281  0.00  0.00    +0.000 C 
ATOM     13  C   UNL     1       1.521   3.096  21.234  0.00  0.00    +0.000 A 
ATOM     14  C   UNL     1       2.218   4.204  21.653  0.00  0.00    +0.000 A 
ATOM     15  C   UNL     1       2.745   5.090  20.714  0.00  0.00    +0.000 A 
ATOM     16  C   UNL     1       2.654   4.924  19.325  0.00  0.00    +0.000 A 
ATOM     17  C   UNL     1       1.925   3.790  18.922  0.00  0.00    +0.000 A 
ATOM     18  F   UNL     1       1.724   3.507  17.627  0.00  0.00    +0.000 F 
ATOM     19  C   UNL     1       1.369   2.892  19.860  0.00  0.00    +0.000 A 
ENDBRANCH   1  16
BRANCH  10  20
ATOM     20  C   UNL     1       6.371   3.743  14.755  0.00  0.00    +0.000 C 
BRANCH  20  21
ATOM     21  C   UNL     1       7.038   4.504  13.593  0.00  0.00    +0.000 C 
ATOM     22  O   UNL     1       7.875   5.390  13.778  0.00  0.00    +0.000 OA
ATOM     23  N   UNL     1       6.665   4.130  12.304  0.00  0.00    +0.000 N 
ATOM     24  C   UNL     1       5.726   3.067  11.973  0.00  0.00    +0.000 C 
ATOM     25  C   UNL     1       7.367   4.734  11.184  0.00  0.00    +0.000 C 
ENDBRANCH  20  21
ENDBRANCH  10  20
TORSDOF 3
ENDMDL
MODEL 2
REMARK VINA RESULT:      -7.6      1.083      1.245
REMARK  Name = 
REMARK  6 active torsions:
REMARK  status: ('A' for Active; 'I' for Inactive)
REMARK    1  A    between atoms: C_1  and  C_2
REMARK    2  A    between atoms: C_5  and  C_6
REMARK    3  A    between atoms: N_15  and  C_16
REMARK    4  A    between atoms: C_16  and  C_17
REMARK    5  A    between atoms: N_19  and  C_20
REMARK    6  A    between atoms: N_19  and  C_21
REMARK                            x       y       z     vdW  Elec       q    Type
REMARK                         _______ _______ _______ _____ _____    ______ ____
ROOT
ATOM      1  C   UNL     1       3.753   6.216  18.156  0.00  0.00    +0.000 C 
ATOM      2  O   UNL     1       3.072   7.028  17.537  0.00  0.00    +0.000 OA
ATOM      3  N   UNL     1       5.155   6.199  17.982  0.00  0.00    +0.000 N 
ATOM      4  C   UNL     1       6.053   5.255  18.624  0.00  0.00    +0.000 C 
ATOM      5  C   UNL     1       7.520   5.348  18.252  0.00  0.00    +0.000 C 
ATOM      6  C   UNL     1       7.985   6.794  18.362  0.00  0.00    +0.000 C 
ATOM      7  C   UNL     1       7.018   7.780  17.714  0.00  0.00    +0.000 C 
ATOM      8  C   UNL     1       5.827   7.099  17.016  0.00  0.00    +0.000 C 
ATOM      9  C   UNL     1       6.290   6.346  15.726  0.00  0.00    +0.000 C 
ATOM     10  N   UNL     1       6.705   4.945  15.903  0.00  0.00    +0.000 NA
ATOM     11  C   UNL     1       7.763   4.706  16.882  0.00  0.00    +0.000 C 
ENDROOT
BRANCH   1  16
ATOM     12  C   UNL     1       1.146   2.381  21.803  0.00  0.00    +0.000 C 
ATOM     13  C   UNL     1       1.775   3.332  20.834  0.00  0.00    +0.000 A 
ATOM     14  C   UNL     1       2.015   4.616  21.260  0.00  0.00    +0.000 A 
ATOM     15  C   UNL     1       2.615   5.535  20.399  0.00  0.00    +0.000 A 
ATOM     16  C   UNL     1       3.043   5.241  19.096  0.00  0.00    +0.000 A 
ATOM     17  C   UNL     1       2.774   3.924  18.680  0.00  0.00    +0.000 A 
ATOM     18  F   UNL     1       3.096   3.497  17.450  0.00  0.00    +0.000 F 
ATOM     19  C   UNL     1       2.151   2.987  19.533  0.00  0.00    +0.000 A 
ENDBRANCH   1  16
BRANCH  10  20
ATOM     20  C   UNL     1       6.936   4.237  14.631  0.00  0.00    +0.000 C 
BRANCH  20  21
ATOM     21  C   UNL     1       5.659   3.887  13.845  0.00  0.00    +0.000 C 
ATOM     22  O   UNL     1       4.531   3.992  14.333  0.00  0.00    +0.000 OA
ATOM     23  N   UNL     1       5.831   3.459  12.530  0.00  0.00    +0.000 N 
ATOM     24  C   UNL     1       7.109   3.346  11.842  0.00  0.00    +0.000 C 
ATOM     25  C   UNL     1       4.645   3.244  11.717  0.00  0.00    +0.000 C 
ENDBRANCH  20  21
ENDBRANCH  10  20
TORSDOF 3
ENDMDL
MODEL 3
REMARK VINA RESULT:      -7.1      1.406      1.711
REMARK  Name = 
REMARK  6 active torsions:
REMARK  status: ('A' for Active; 'I' for Inactive)
REMARK    1  A    between atoms: C_1  and  C_2
REMARK    2  A    between atoms: C_5  and  C_6
REMARK    3  A    between atoms: N_15  and  C_16
REMARK    4  A    between atoms: C_16  and  C_17
REMARK    5  A    between atoms: N_19  and  C_20
REMARK    6  A    between atoms: N_19  and  C_21
REMARK                            x       y       z     vdW  Elec       q    Type
REMARK                         _______ _______ _______ _____ _____    ______ ____
ROOT
ATOM      1  C   UNL     1       3.773   6.124  18.232  0.00  0.00    +0.000 C 
ATOM      2  O   UNL     1       3.056   6.906  17.615  0.00  0.00    +0.000 OA
ATOM      3  N   UNL     1       5.171   6.147  18.029  0.00  0.00    +0.000 N 
ATOM      4  C   UNL     1       6.110   5.239  18.665  0.00  0.00    +0.000 C 
ATOM      5  C   UNL     1       7.565   5.370  18.262  0.00  0.00    +0.000 C 
ATOM      6  C   UNL     1       7.989   6.831  18.341  0.00  0.00    +0.000 C 
ATOM      7  C   UNL     1       6.981   7.777  17.699  0.00  0.00    +0.000 C 
ATOM      8  C   UNL     1       5.796   7.051  17.036  0.00  0.00    +0.000 C 
ATOM      9  C   UNL     1       6.255   6.294  15.747  0.00  0.00    +0.000 C 
ATOM     10  N   UNL     1       6.716   4.908  15.937  0.00  0.00    +0.000 NA
ATOM     11  C   UNL     1       7.799   4.714  16.897  0.00  0.00    +0.000 C 
ENDROOT
BRANCH   1  16
ATOM     12  C   UNL     1       1.090   2.363  21.901  0.00  0.00    +0.000 C 
ATOM     13  C   UNL     1       1.781   3.352  21.015  0.00  0.00    +0.000 A 
ATOM     14  C   UNL     1       2.594   2.865  20.020  0.00  0.00    +0.000 A 
ATOM     15  C   UNL     1       3.247   3.748  19.160  0.00  0.00    +0.000 A 
ATOM     16  C   UNL     1       3.112   5.143  19.201  0.00  0.00    +0.000 A 
ATOM     17  C   UNL     1       2.285   5.617  20.235  0.00  0.00    +0.000 A 
ATOM     18  F   UNL     1       2.079   6.928  20.425  0.00  0.00    +0.000 F 
ATOM     19  C   UNL     1       1.632   4.737  21.127  0.00  0.00    +0.000 A 
ENDBRANCH   1  16
BRANCH  10  20
ATOM     20  C   UNL     1       6.941   4.188  14.670  0.00  0.00    +0.000 C 
BRANCH  20  21
ATOM     21  C   UNL     1       5.663   3.860  13.876  0.00  0.00    +0.000 C 
ATOM     22  O   UNL     1       4.537   3.941  14.372  0.00  0.00    +0.000 OA
ATOM     23  N   UNL     1       5.833   3.480  12.546  0.00  0.00    +0.000 N 
ATOM     24  C   UNL     1       7.109   3.398  11.850  0.00  0.00    +0.000 C 
ATOM     25  C   UNL     1       4.645   3.288  11.730  0.00  0.00    +0.000 C 
ENDBRANCH  20  21
ENDBRANCH  10  20
TORSDOF 3
ENDMDL
MODEL 4
REMARK VINA RESULT:      -7.0      3.291      5.494
REMARK  Name = 
REMARK  6 active torsions:
REMARK  status: ('A' for Active; 'I' for Inactive)
REMARK    1  A    between atoms: C_1  and  C_2
REMARK    2  A    between atoms: C_5  and  C_6
REMARK    3  A    between atoms: N_15  and  C_16
REMARK    4  A    between atoms: C_16  and  C_17
REMARK    5  A    between atoms: N_19  and  C_20
REMARK    6  A    between atoms: N_19  and  C_21
REMARK                            x       y       z     vdW  Elec       q    Type
REMARK                         _______ _______ _______ _____ _____    ______ ____
ROOT
ATOM      1  C   UNL     1       2.239   6.206  20.196  0.00  0.00    +0.000 C 
ATOM      2  O   UNL     1       2.307   5.987  21.402  0.00  0.00    +0.000 OA
ATOM      3  N   UNL     1       2.552   5.178  19.279  0.00  0.00    +0.000 N 
ATOM      4  C   UNL     1       2.554   5.335  17.835  0.00  0.00    +0.000 C 
ATOM      5  C   UNL     1       2.992   4.136  17.018  0.00  0.00    +0.000 C 
ATOM      6  C   UNL     1       2.245   2.895  17.489  0.00  0.00    +0.000 C 
ATOM      7  C   UNL     1       2.222   2.757  19.008  0.00  0.00    +0.000 C 
ATOM      8  C   UNL     1       3.027   3.850  19.734  0.00  0.00    +0.000 C 
ATOM      9  C   UNL     1       4.562   3.658  19.508  0.00  0.00    +0.000 C 
ATOM     10  N   UNL     1       5.135   4.327  18.328  0.00  0.00    +0.000 NA
ATOM     11  C   UNL     1       4.519   4.006  17.043  0.00  0.00    +0.000 C 
ENDROOT
BRANCH   1  16
ATOM     12  C   UNL     1       0.724  11.652  18.509  0.00  0.00    +0.000 C 
ATOM     13  C   UNL     1       1.056  10.264  18.961  0.00  0.00    +0.000 A 
ATOM     14  C   UNL     1       1.787   9.470  18.111  0.00  0.00    +0.000 A 
ATOM     15  C   UNL     1       2.134   8.175  18.494  0.00  0.00    +0.000 A 
ATOM     16  C   UNL     1       1.820   7.602  19.735  0.00  0.00    +0.000 A 
ATOM     17  C   UNL     1       1.061   8.430  20.581  0.00  0.00    +0.000 A 
ATOM     18  F   UNL     1       0.656   8.016  21.791  0.00  0.00    +0.000 F 
ATOM     19  C   UNL     1       0.685   9.737  20.201  0.00  0.00    +0.000 A 
ENDBRANCH   1  16
BRANCH  10  20
ATOM     20  C   UNL     1       6.607   4.274  18.282  0.00  0.00    +0.000 C 
BRANCH  20  21
ATOM     21  C   UNL     1       7.318   5.490  18.907  0.00  0.00    +0.000 C 
ATOM     22  O   UNL     1       7.693   5.505  20.082  0.00  0.00    +0.000 OA
ATOM     23  N   UNL     1       7.542   6.582  18.071  0.00  0.00    +0.000 N 
ATOM     24  C   UNL     1       7.185   6.650  16.662  0.00  0.00    +0.000 C 
ATOM     25  C   UNL     1       8.323   7.693  18.588  0.00  0.00    +0.000 C 
ENDBRANCH  20  21
ENDBRANCH  10  20
TORSDOF 3
ENDMDL
MODEL 5
REMARK VINA RESULT:      -7.0      3.242      5.521
REMARK  Name = 
REMARK  6 active torsions:
REMARK  status: ('A' for Active; 'I' for Inactive)
REMARK    1  A    between atoms: C_1  and  C_2
REMARK    2  A    between atoms: C_5  and  C_6
REMARK    3  A    between atoms: N_15  and  C_16
REMARK    4  A    between atoms: C_16  and  C_17
REMARK    5  A    between atoms: N_19  and  C_20
REMARK    6  A    between atoms: N_19  and  C_21
REMARK                            x       y       z     vdW  Elec       q    Type
REMARK                         _______ _______ _______ _____ _____    ______ ____
ROOT
ATOM      1  C   UNL     1       2.137   6.519  20.305  0.00  0.00    +0.000 C 
ATOM      2  O   UNL     1       2.519   6.458  21.470  0.00  0.00    +0.000 OA
ATOM      3  N   UNL     1       2.244   5.381  19.473  0.00  0.00    +0.000 N 
ATOM      4  C   UNL     1       1.871   5.350  18.070  0.00  0.00    +0.000 C 
ATOM      5  C   UNL     1       2.130   4.057  17.323  0.00  0.00    +0.000 C 
ATOM      6  C   UNL     1       1.575   2.885  18.122  0.00  0.00    +0.000 C 
ATOM      7  C   UNL     1       1.945   2.945  19.600  0.00  0.00    +0.000 C 
ATOM      8  C   UNL     1       2.868   4.126  19.952  0.00  0.00    +0.000 C 
ATOM      9  C   UNL     1       4.300   3.911  19.363  0.00  0.00    +0.000 C 
ATOM     10  N   UNL     1       4.528   4.424  18.002  0.00  0.00    +0.000 NA
ATOM     11  C   UNL     1       3.616   3.936  16.970  0.00  0.00    +0.000 C 
ENDROOT
BRANCH   1  16
ATOM     12  C   UNL     1       0.001  11.695  18.450  0.00  0.00    +0.000 C 
ATOM     13  C   UNL     1       0.489  10.367  18.938  0.00  0.00    +0.000 A 
ATOM     14  C   UNL     1       1.427   9.710  18.178  0.00  0.00    +0.000 A 
ATOM     15  C   UNL     1       1.924   8.477  18.600  0.00  0.00    +0.000 A 
ATOM     16  C   UNL     1       1.563   7.841  19.797  0.00  0.00    +0.000 A 
ATOM     17  C   UNL     1       0.593   8.528  20.549  0.00  0.00    +0.000 A 
ATOM     18  F   UNL     1       0.122   8.036  21.705  0.00  0.00    +0.000 F 
ATOM     19  C   UNL     1       0.065   9.769  20.127  0.00  0.00    +0.000 A 
ENDBRANCH   1  16
BRANCH  10  20
ATOM     20  C   UNL     1       5.940   4.371  17.585  0.00  0.00    +0.000 C 
BRANCH  20  21
ATOM     21  C   UNL     1       6.529   5.717  17.123  0.00  0.00    +0.000 C 
ATOM     22  O   UNL     1       6.247   6.224  16.035  0.00  0.00    +0.000 OA
ATOM     23  N   UNL     1       7.392   6.361  18.009  0.00  0.00    +0.000 N 
ATOM     24  C   UNL     1       7.753   5.876  19.333  0.00  0.00    +0.000 C 
ATOM     25  C   UNL     1       7.864   7.691  17.663  0.00  0.00    +0.000 C 
ENDBRANCH  20  21
ENDBRANCH  10  20
TORSDOF 3
ENDMDL
MODEL 6
REMARK VINA RESULT:      -7.0      0.979      1.252
REMARK  Name = 
REMARK  6 active torsions:
REMARK  status: ('A' for Active; 'I' for Inactive)
REMARK    1  A    between atoms: C_1  and  C_2
REMARK    2  A    between atoms: C_5  and  C_6
REMARK    3  A    between atoms: N_15  and  C_16
REMARK    4  A    between atoms: C_16  and  C_17
REMARK    5  A    between atoms: N_19  and  C_20
REMARK    6  A    between atoms: N_19  and  C_21
REMARK                            x       y       z     vdW  Elec       q    Type
REMARK                         _______ _______ _______ _____ _____    ______ ____
ROOT
ATOM      1  C   UNL     1       3.497   5.807  18.253  0.00  0.00    +0.000 C 
ATOM      2  O   UNL     1       2.721   6.492  17.594  0.00  0.00    +0.000 OA
ATOM      3  N   UNL     1       4.887   5.903  18.018  0.00  0.00    +0.000 N 
ATOM      4  C   UNL     1       5.894   5.108  18.700  0.00  0.00    +0.000 C 
ATOM      5  C   UNL     1       7.330   5.299  18.256  0.00  0.00    +0.000 C 
ATOM      6  C   UNL     1       7.660   6.786  18.215  0.00  0.00    +0.000 C 
ATOM      7  C   UNL     1       6.581   7.614  17.525  0.00  0.00    +0.000 C 
ATOM      8  C   UNL     1       5.435   6.765  16.945  0.00  0.00    +0.000 C 
ATOM      9  C   UNL     1       5.920   5.941  15.708  0.00  0.00    +0.000 C 
ATOM     10  N   UNL     1       6.473   4.606  15.992  0.00  0.00    +0.000 NA
ATOM     11  C   UNL     1       7.583   4.557  16.939  0.00  0.00    +0.000 C 
ENDROOT
BRANCH   1  16
ATOM     12  C   UNL     1       1.124   2.192  22.265  0.00  0.00    +0.000 C 
ATOM     13  C   UNL     1       1.741   3.145  21.290  0.00  0.00    +0.000 A 
ATOM     14  C   UNL     1       2.454   2.618  20.241  0.00  0.00    +0.000 A 
ATOM     15  C   UNL     1       3.034   3.466  19.297  0.00  0.00    +0.000 A 
ATOM     16  C   UNL     1       2.918   4.864  19.307  0.00  0.00    +0.000 A 
ATOM     17  C   UNL     1       2.195   5.378  20.398  0.00  0.00    +0.000 A 
ATOM     18  F   UNL     1       2.020   6.698  20.565  0.00  0.00    +0.000 F 
ATOM     19  C   UNL     1       1.617   4.535  21.373  0.00  0.00    +0.000 A 
ENDBRANCH   1  16
BRANCH  10  20
ATOM     20  C   UNL     1       6.723   3.807  14.779  0.00  0.00    +0.000 C 
BRANCH  20  21
ATOM     21  C   UNL     1       7.245   4.608  13.572  0.00  0.00    +0.000 C 
ATOM     22  O   UNL     1       8.069   5.518  13.688  0.00  0.00    +0.000 OA
ATOM     23  N   UNL     1       6.756   4.243  12.319  0.00  0.00    +0.000 N 
ATOM     24  C   UNL     1       5.822   3.156  12.064  0.00  0.00    +0.000 C 
ATOM     25  C   UNL     1       7.322   4.889  11.146  0.00  0.00    +0.000 C 
ENDBRANCH  20  21
ENDBRANCH  10  20
TORSDOF 3
ENDMDL
MODEL 7
REMARK VINA RESULT:      -6.9      2.953      5.163
REMARK  Name = 
REMARK  6 active torsions:
REMARK  status: ('A' for Active; 'I' for Inactive)
REMARK    1  A    between atoms: C_1  and  C_2
REMARK    2  A    between atoms: C_5  and  C_6
REMARK    3  A    between atoms: N_15  and  C_16
REMARK    4  A    between atoms: C_16  and  C_17
REMARK    5  A    between atoms: N_19  and  C_20
REMARK    6  A    between atoms: N_19  and  C_21
REMARK                            x       y       z     vdW  Elec       q    Type
REMARK                         _______ _______ _______ _____ _____    ______ ____
ROOT
ATOM      1  C   UNL     1       2.297   5.743  20.588  0.00  0.00    +0.000 C 
ATOM      2  O   UNL     1       2.713   5.498  21.716  0.00  0.00    +0.000 OA
ATOM      3  N   UNL     1       2.433   4.777  19.565  0.00  0.00    +0.000 N 
ATOM      4  C   UNL     1       2.023   4.974  18.186  0.00  0.00    +0.000 C 
ATOM      5  C   UNL     1       2.322   3.847  17.218  0.00  0.00    +0.000 C 
ATOM      6  C   UNL     1       1.845   2.526  17.807  0.00  0.00    +0.000 C 
ATOM      7  C   UNL     1       2.253   2.344  19.265  0.00  0.00    +0.000 C 
ATOM      8  C   UNL     1       3.129   3.491  19.802  0.00  0.00    +0.000 C 
ATOM      9  C   UNL     1       4.553   3.457  19.157  0.00  0.00    +0.000 C 
ATOM     10  N   UNL     1       4.718   4.212  17.904  0.00  0.00    +0.000 NA
ATOM     11  C   UNL     1       3.802   3.867  16.819  0.00  0.00    +0.000 C 
ENDROOT
BRANCH   1  16
ATOM     12  C   UNL     1      -0.280  10.934  19.482  0.00  0.00    +0.000 C 
ATOM     13  C   UNL     1       0.425   9.642  19.752  0.00  0.00    +0.000 A 
ATOM     14  C   UNL     1      -0.023   8.871  20.798  0.00  0.00    +0.000 A 
ATOM     15  C   UNL     1       0.592   7.651  21.077  0.00  0.00    +0.000 A 
ATOM     16  C   UNL     1       1.647   7.104  20.333  0.00  0.00    +0.000 A 
ATOM     17  C   UNL     1       2.095   7.917  19.276  0.00  0.00    +0.000 A 
ATOM     18  F   UNL     1       3.116   7.546  18.489  0.00  0.00    +0.000 F 
ATOM     19  C   UNL     1       1.496   9.164  18.991  0.00  0.00    +0.000 A 
ENDBRANCH   1  16
BRANCH  10  20
ATOM     20  C   UNL     1       6.119   4.306  17.457  0.00  0.00    +0.000 C 
BRANCH  20  21
ATOM     21  C   UNL     1       6.577   5.721  17.057  0.00  0.00    +0.000 C 
ATOM     22  O   UNL     1       6.230   6.254  16.000  0.00  0.00    +0.000 OA
ATOM     23  N   UNL     1       7.396   6.394  17.961  0.00  0.00    +0.000 N 
ATOM     24  C   UNL     1       7.824   5.879  19.254  0.00  0.00    +0.000 C 
ATOM     25  C   UNL     1       7.741   7.777  17.677  0.00  0.00    +0.000 C 
ENDBRANCH  20  21
ENDBRANCH  10  20
TORSDOF 3
ENDMDL
MODEL 8
REMARK VINA RESULT:      -6.7      3.083      5.323
REMARK  Name = 
REMARK  6 active torsions:
REMARK  status: ('A' for Active; 'I' for Inactive)
REMARK    1  A    between atoms: C_1  and  C_2
REMARK    2  A    between atoms: C_5  and  C_6
REMARK    3  A    between atoms: N_15  and  C_16
REMARK    4  A    between atoms: C_16  and  C_17
REMARK    5  A    between atoms: N_19  and  C_20
REMARK    6  A    between atoms: N_19  and  C_21
REMARK                            x       y       z     vdW  Elec       q    Type
REMARK                         _______ _______ _______ _____ _____    ______ ____
ROOT
ATOM      1  C   UNL     1       2.130   6.079  20.564  0.00  0.00    +0.000 C 
ATOM      2  O   UNL     1       2.678   5.978  21.657  0.00  0.00    +0.000 OA
ATOM      3  N   UNL     1       2.025   4.947  19.725  0.00  0.00    +0.000 N 
ATOM      4  C   UNL     1       1.442   4.959  18.395  0.00  0.00    +0.000 C 
ATOM      5  C   UNL     1       1.490   3.659  17.617  0.00  0.00    +0.000 C 
ATOM      6  C   UNL     1       0.977   2.521  18.491  0.00  0.00    +0.000 C 
ATOM      7  C   UNL     1       1.571   2.537  19.895  0.00  0.00    +0.000 C 
ATOM      8  C   UNL     1       2.621   3.645  20.103  0.00  0.00    +0.000 C 
ATOM      9  C   UNL     1       3.928   3.333  19.303  0.00  0.00    +0.000 C 
ATOM     10  N   UNL     1       3.983   3.843  17.923  0.00  0.00    +0.000 NA
ATOM     11  C   UNL     1       2.892   3.435  17.041  0.00  0.00    +0.000 C 
ENDROOT
BRANCH   1  16
ATOM     12  C   UNL     1      -0.054  11.285  18.852  0.00  0.00    +0.000 C 
ATOM     13  C   UNL     1       0.553   9.983  19.272  0.00  0.00    +0.000 A 
ATOM     14  C   UNL     1       0.070   9.388  20.412  0.00  0.00    +0.000 A 
ATOM     15  C   UNL     1       0.593   8.166  20.834  0.00  0.00    +0.000 A 
ATOM     16  C   UNL     1       1.583   7.446  20.150  0.00  0.00    +0.000 A 
ATOM     17  C   UNL     1       2.069   8.083  18.993  0.00  0.00    +0.000 A 
ATOM     18  F   UNL     1       3.039   7.536  18.245  0.00  0.00    +0.000 F 
ATOM     19  C   UNL     1       1.564   9.329  18.562  0.00  0.00    +0.000 A 
ENDBRANCH   1  16
BRANCH  10  20
ATOM     20  C   UNL     1       5.308   3.694  17.296  0.00  0.00    +0.000 C 
BRANCH  20  21
ATOM     21  C   UNL     1       6.355   4.734  17.739  0.00  0.00    +0.000 C 
ATOM     22  O   UNL     1       7.224   4.482  18.576  0.00  0.00    +0.000 OA
ATOM     23  N   UNL     1       6.291   5.985  17.128  0.00  0.00    +0.000 N 
ATOM     24  C   UNL     1       5.340   6.371  16.096  0.00  0.00    +0.000 C 
ATOM     25  C   UNL     1       7.339   6.947  17.425  0.00  0.00    +0.000 C 
ENDBRANCH  20  21
ENDBRANCH  10  20
TORSDOF 3
ENDMDL
MODEL 9
REMARK VINA RESULT:      -6.6      3.141      5.213
REMARK  Name = 
REMARK  6 active torsions:
REMARK  status: ('A' for Active; 'I' for Inactive)
REMARK    1  A    between atoms: C_1  and  C_2
REMARK    2  A    between atoms: C_5  and  C_6
REMARK    3  A    between atoms: N_15  and  C_16
REMARK    4  A    between atoms: C_16  and  C_17
REMARK    5  A    between atoms: N_19  and  C_20
REMARK    6  A    between atoms: N_19  and  C_21
REMARK                            x       y       z     vdW  Elec       q    Type
REMARK                         _______ _______ _______ _____ _____    ______ ____
ROOT
ATOM      1  C   UNL     1       2.155   5.485  20.701  0.00  0.00    +0.000 C 
ATOM      2  O   UNL     1       2.397   5.123  21.849  0.00  0.00    +0.000 OA
ATOM      3  N   UNL     1       2.416   4.611  19.622  0.00  0.00    +0.000 N 
ATOM      4  C   UNL     1       2.216   4.949  18.223  0.00  0.00    +0.000 C 
ATOM      5  C   UNL     1       2.627   3.905  17.204  0.00  0.00    +0.000 C 
ATOM      6  C   UNL     1       2.038   2.554  17.590  0.00  0.00    +0.000 C 
ATOM      7  C   UNL     1       2.226   2.225  19.067  0.00  0.00    +0.000 C 
ATOM      8  C   UNL     1       3.040   3.284  19.832  0.00  0.00    +0.000 C 
ATOM      9  C   UNL     1       4.542   3.257  19.396  0.00  0.00    +0.000 C 
ATOM     10  N   UNL     1       4.904   4.117  18.257  0.00  0.00    +0.000 NA
ATOM     11  C   UNL     1       4.149   3.907  17.025  0.00  0.00    +0.000 C 
ENDROOT
BRANCH   1  16
ATOM     12  C   UNL     1      -0.124  10.842  19.747  0.00  0.00    +0.000 C 
ATOM     13  C   UNL     1       0.507   9.506  19.983  0.00  0.00    +0.000 A 
ATOM     14  C   UNL     1      -0.038   8.700  20.954  0.00  0.00    +0.000 A 
ATOM     15  C   UNL     1       0.506   7.440  21.199  0.00  0.00    +0.000 A 
ATOM     16  C   UNL     1       1.580   6.886  20.488  0.00  0.00    +0.000 A 
ATOM     17  C   UNL     1       2.128   7.734  19.509  0.00  0.00    +0.000 A 
ATOM     18  F   UNL     1       3.179   7.361  18.764  0.00  0.00    +0.000 F 
ATOM     19  C   UNL     1       1.601   9.021  19.261  0.00  0.00    +0.000 A 
ENDBRANCH   1  16
BRANCH  10  20
ATOM     20  C   UNL     1       6.358   4.200  18.027  0.00  0.00    +0.000 C 
BRANCH  20  21
ATOM     21  C   UNL     1       7.053   5.395  18.704  0.00  0.00    +0.000 C 
ATOM     22  O   UNL     1       7.340   5.401  19.904  0.00  0.00    +0.000 OA
ATOM     23  N   UNL     1       7.370   6.480  17.889  0.00  0.00    +0.000 N 
ATOM     24  C   UNL     1       7.122   6.557  16.457  0.00  0.00    +0.000 C 
ATOM     25  C   UNL     1       8.141   7.569  18.465  0.00  0.00    +0.000 C 
ENDBRANCH  20  21
ENDBRANCH  10  20
TORSDOF 3
ENDMDL
