MODEL 1
REMARK VINA RESULT:      -5.9      0.000      0.000
REMARK  Name = 
REMARK  5 active torsions:
REMARK  status: ('A' for Active; 'I' for Inactive)
REMARK    1  A    between atoms: C_1  and  C_2
REMARK    2  A    between atoms: C_6  and  C_7
REMARK    3  A    between atoms: C_7  and  O_8
REMARK    4  A    between atoms: C_7  and  C_9
REMARK    5  A    between atoms: C_9  and  O_11
REMARK                            x       y       z     vdW  Elec       q    Type
REMARK                         _______ _______ _______ _____ _____    ______ ____
ROOT
ATOM      1  C   UNL     1       1.566   2.837  18.279  0.00  0.00    +0.000 C 
ATOM      2  C   UNL     1       2.594   3.851  17.865  0.00  0.00    +0.000 A 
ATOM      3  C   UNL     1       2.445   5.197  18.205  0.00  0.00    +0.000 A 
ATOM      4  C   UNL     1       3.397   6.131  17.804  0.00  0.00    +0.000 A 
ATOM      5  C   UNL     1       4.498   5.728  17.049  0.00  0.00    +0.000 A 
ATOM      6  C   UNL     1       4.659   4.384  16.671  0.00  0.00    +0.000 A 
ATOM      7  C   UNL     1       3.708   3.450  17.107  0.00  0.00    +0.000 A 
ENDROOT
BRANCH   6   8
ATOM      8  C   UNL     1       5.876   4.002  15.856  0.00  0.00    +0.000 C 
BRANCH   8   9
ATOM      9  O   UNL     1       5.598   4.166  14.453  0.00  0.00    +0.000 OA
ATOM     10  H   UNL     1       5.979   3.387  14.003  0.00  0.00    +0.000 HD
ENDBRANCH   8   9
BRANCH   8  11
ATOM     11  C   UNL     1       7.172   4.772  16.160  0.00  0.00    +0.000 C 
ATOM     12  O   UNL     1       7.515   5.846  15.688  0.00  0.00    +0.000 OA
BRANCH  11  13
ATOM     13  O   UNL     1       7.917   4.113  17.093  0.00  0.00    +0.000 OA
ATOM     14  H   UNL     1       7.670   4.461  17.983  0.00  0.00    +0.000 HD
ENDBRANCH  11  13
ENDBRANCH   8  11
ENDBRANCH   6   8
TORSDOF 4
ENDMDL
MODEL 2
REMARK VINA RESULT:      -5.8      1.378      2.022
REMARK  Name = 
REMARK  5 active torsions:
REMARK  status: ('A' for Active; 'I' for Inactive)
REMARK    1  A    between atoms: C_1  and  C_2
REMARK    2  A    between atoms: C_6  and  C_7
REMARK    3  A    between atoms: C_7  and  O_8
REMARK    4  A    between atoms: C_7  and  C_9
REMARK    5  A    between atoms: C_9  and  O_11
REMARK                            x       y       z     vdW  Elec       q    Type
REMARK                         _______ _______ _______ _____ _____    ______ ____
ROOT
ATOM      1  C   UNL     1       2.554   2.200  17.758  0.00  0.00    +0.000 C 
ATOM      2  C   UNL     1       3.042   3.613  17.904  0.00  0.00    +0.000 A 
ATOM      3  C   UNL     1       2.145   4.684  17.872  0.00  0.00    +0.000 A 
ATOM      4  C   UNL     1       2.609   5.990  17.994  0.00  0.00    +0.000 A 
ATOM      5  C   UNL     1       3.975   6.238  18.135  0.00  0.00    +0.000 A 
ATOM      6  C   UNL     1       4.901   5.181  18.144  0.00  0.00    +0.000 A 
ATOM      7  C   UNL     1       4.416   3.868  18.051  0.00  0.00    +0.000 A 
ENDROOT
BRANCH   6   8
ATOM      8  C   UNL     1       6.370   5.507  18.305  0.00  0.00    +0.000 C 
BRANCH   8   9
ATOM      9  O   UNL     1       6.831   5.072  19.598  0.00  0.00    +0.000 OA
ATOM     10  H   UNL     1       6.373   5.631  20.257  0.00  0.00    +0.000 HD
ENDBRANCH   8   9
BRANCH   8  11
ATOM     11  C   UNL     1       7.322   4.912  17.255  0.00  0.00    +0.000 C 
ATOM     12  O   UNL     1       7.342   5.159  16.059  0.00  0.00    +0.000 OA
BRANCH  11  13
ATOM     13  O   UNL     1       8.216   4.063  17.840  0.00  0.00    +0.000 OA
ATOM     14  H   UNL     1       9.057   4.559  17.988  0.00  0.00    +0.000 HD
ENDBRANCH  11  13
ENDBRANCH   8  11
ENDBRANCH   6   8
TORSDOF 4
ENDMDL
MODEL 3
REMARK VINA RESULT:      -5.7      1.429      1.934
REMARK  Name = 
REMARK  5 active torsions:
REMARK  status: ('A' for Active; 'I' for Inactive)
REMARK    1  A    between atoms: C_1  and  C_2
REMARK    2  A    between atoms: C_6  and  C_7
REMARK    3  A    between atoms: C_7  and  O_8
REMARK    4  A    between atoms: C_7  and  C_9
REMARK    5  A    between atoms: C_9  and  O_11
REMARK                            x       y       z     vdW  Elec       q    Type
REMARK                         _______ _______ _______ _____ _____    ______ ____
ROOT
ATOM      1  C   UNL     1       2.763   2.127  17.605  0.00  0.00    +0.000 C 
ATOM      2  C   UNL     1       3.258   3.535  17.770  0.00  0.00    +0.000 A 
ATOM      3  C   UNL     1       2.363   4.606  17.818  0.00  0.00    +0.000 A 
ATOM      4  C   UNL     1       2.834   5.908  17.957  0.00  0.00    +0.000 A 
ATOM      5  C   UNL     1       4.205   6.152  18.035  0.00  0.00    +0.000 A 
ATOM      6  C   UNL     1       5.129   5.096  17.962  0.00  0.00    +0.000 A 
ATOM      7  C   UNL     1       4.639   3.786  17.853  0.00  0.00    +0.000 A 
ENDROOT
BRANCH   6   8
ATOM      8  C   UNL     1       6.605   5.418  18.057  0.00  0.00    +0.000 C 
BRANCH   8   9
ATOM      9  O   UNL     1       7.376   4.203  18.015  0.00  0.00    +0.000 OA
ATOM     10  H   UNL     1       7.136   3.752  17.183  0.00  0.00    +0.000 HD
ENDBRANCH   8   9
BRANCH   8  11
ATOM     11  C   UNL     1       7.171   6.357  16.979  0.00  0.00    +0.000 C 
ATOM     12  O   UNL     1       7.505   7.523  17.125  0.00  0.00    +0.000 OA
BRANCH  11  13
ATOM     13  O   UNL     1       7.305   5.702  15.790  0.00  0.00    +0.000 OA
ATOM     14  H   UNL     1       6.518   5.117  15.673  0.00  0.00    +0.000 HD
ENDBRANCH  11  13
ENDBRANCH   8  11
ENDBRANCH   6   8
TORSDOF 4
ENDMDL
MODEL 4
REMARK VINA RESULT:      -5.7      0.753      1.984
REMARK  Name = 
REMARK  5 active torsions:
REMARK  status: ('A' for Active; 'I' for Inactive)
REMARK    1  A    between atoms: C_1  and  C_2
REMARK    2  A    between atoms: C_6  and  C_7
REMARK    3  A    between atoms: C_7  and  O_8
REMARK    4  A    between atoms: C_7  and  C_9
REMARK    5  A    between atoms: C_9  and  O_11
REMARK                            x       y       z     vdW  Elec       q    Type
REMARK                         _______ _______ _______ _____ _____    ______ ____
ROOT
ATOM      1  C   UNL     1       2.513   7.246  18.680  0.00  0.00    +0.000 C 
ATOM      2  C   UNL     1       2.831   5.908  18.078  0.00  0.00    +0.000 A 
ATOM      3  C   UNL     1       1.919   4.853  18.159  0.00  0.00    +0.000 A 
ATOM      4  C   UNL     1       2.230   3.613  17.609  0.00  0.00    +0.000 A 
ATOM      5  C   UNL     1       3.462   3.412  16.986  0.00  0.00    +0.000 A 
ATOM      6  C   UNL     1       4.409   4.447  16.914  0.00  0.00    +0.000 A 
ATOM      7  C   UNL     1       4.069   5.701  17.445  0.00  0.00    +0.000 A 
ENDROOT
BRANCH   6   8
ATOM      8  C   UNL     1       5.727   4.176  16.221  0.00  0.00    +0.000 C 
BRANCH   8   9
ATOM      9  O   UNL     1       5.626   4.510  14.825  0.00  0.00    +0.000 OA
ATOM     10  H   UNL     1       6.372   5.111  14.630  0.00  0.00    +0.000 HD
ENDBRANCH   8   9
BRANCH   8  11
ATOM     11  C   UNL     1       6.957   4.909  16.781  0.00  0.00    +0.000 C 
ATOM     12  O   UNL     1       7.509   5.887  16.301  0.00  0.00    +0.000 OA
BRANCH  11  13
ATOM     13  O   UNL     1       7.362   4.345  17.955  0.00  0.00    +0.000 OA
ATOM     14  H   UNL     1       7.056   3.406  17.965  0.00  0.00    +0.000 HD
ENDBRANCH  11  13
ENDBRANCH   8  11
ENDBRANCH   6   8
TORSDOF 4
ENDMDL
MODEL 5
REMARK VINA RESULT:      -5.7      1.254      1.349
REMARK  Name = 
REMARK  5 active torsions:
REMARK  status: ('A' for Active; 'I' for Inactive)
REMARK    1  A    between atoms: C_1  and  C_2
REMARK    2  A    between atoms: C_6  and  C_7
REMARK    3  A    between atoms: C_7  and  O_8
REMARK    4  A    between atoms: C_7  and  C_9
REMARK    5  A    between atoms: C_9  and  O_11
REMARK                            x       y       z     vdW  Elec       q    Type
REMARK                         _______ _______ _______ _____ _____    ______ ____
ROOT
ATOM      1  C   UNL     1       3.274   1.746  18.286  0.00  0.00    +0.000 C 
ATOM      2  C   UNL     1       3.487   3.208  18.017  0.00  0.00    +0.000 A 
ATOM      3  C   UNL     1       2.696   4.172  18.646  0.00  0.00    +0.000 A 
ATOM      4  C   UNL     1       2.892   5.523  18.379  0.00  0.00    +0.000 A 
ATOM      5  C   UNL     1       3.872   5.922  17.469  0.00  0.00    +0.000 A 
ATOM      6  C   UNL     1       4.664   4.972  16.802  0.00  0.00    +0.000 A 
ATOM      7  C   UNL     1       4.476   3.615  17.104  0.00  0.00    +0.000 A 
ENDROOT
BRANCH   6   8
ATOM      8  C   UNL     1       5.716   5.461  15.830  0.00  0.00    +0.000 C 
BRANCH   8   9
ATOM      9  O   UNL     1       5.295   6.702  15.233  0.00  0.00    +0.000 OA
ATOM     10  H   UNL     1       5.913   7.387  15.554  0.00  0.00    +0.000 HD
ENDBRANCH   8   9
BRANCH   8  11
ATOM     11  C   UNL     1       7.126   5.684  16.403  0.00  0.00    +0.000 C 
ATOM     12  O   UNL     1       7.614   6.746  16.758  0.00  0.00    +0.000 OA
BRANCH  11  13
ATOM     13  O   UNL     1       7.793   4.499  16.515  0.00  0.00    +0.000 OA
ATOM     14  H   UNL     1       8.698   4.621  16.139  0.00  0.00    +0.000 HD
ENDBRANCH  11  13
ENDBRANCH   8  11
ENDBRANCH   6   8
TORSDOF 4
ENDMDL
MODEL 6
REMARK VINA RESULT:      -5.7      1.848      2.721
REMARK  Name = 
REMARK  5 active torsions:
REMARK  status: ('A' for Active; 'I' for Inactive)
REMARK    1  A    between atoms: C_1  and  C_2
REMARK    2  A    between atoms: C_6  and  C_7
REMARK    3  A    between atoms: C_7  and  O_8
REMARK    4  A    between atoms: C_7  and  C_9
REMARK    5  A    between atoms: C_9  and  O_11
REMARK                            x       y       z     vdW  Elec       q    Type
REMARK                         _______ _______ _______ _____ _____    ______ ____
ROOT
ATOM      1  C   UNL     1       2.033   2.838  21.630  0.00  0.00    +0.000 C 
ATOM      2  C   UNL     1       2.242   3.356  20.236  0.00  0.00    +0.000 A 
ATOM      3  C   UNL     1       1.176   3.430  19.336  0.00  0.00    +0.000 A 
ATOM      4  C   UNL     1       1.383   3.898  18.042  0.00  0.00    +0.000 A 
ATOM      5  C   UNL     1       2.660   4.284  17.632  0.00  0.00    +0.000 A 
ATOM      6  C   UNL     1       3.754   4.195  18.509  0.00  0.00    +0.000 A 
ATOM      7  C   UNL     1       3.525   3.750  19.820  0.00  0.00    +0.000 A 
ENDROOT
BRANCH   6   8
ATOM      8  C   UNL     1       5.116   4.633  18.014  0.00  0.00    +0.000 C 
BRANCH   8   9
ATOM      9  O   UNL     1       6.146   3.879  18.680  0.00  0.00    +0.000 OA
ATOM     10  H   UNL     1       6.545   3.298  18.003  0.00  0.00    +0.000 HD
ENDBRANCH   8   9
BRANCH   8  11
ATOM     11  C   UNL     1       5.365   4.511  16.501  0.00  0.00    +0.000 C 
ATOM     12  O   UNL     1       5.259   5.397  15.667  0.00  0.00    +0.000 OA
BRANCH  11  13
ATOM     13  O   UNL     1       5.778   3.251  16.180  0.00  0.00    +0.000 OA
ATOM     14  H   UNL     1       5.582   2.660  16.947  0.00  0.00    +0.000 HD
ENDBRANCH  11  13
ENDBRANCH   8  11
ENDBRANCH   6   8
TORSDOF 4
ENDMDL
MODEL 7
REMARK VINA RESULT:      -5.6      1.180      1.496
REMARK  Name = 
REMARK  5 active torsions:
REMARK  status: ('A' for Active; 'I' for Inactive)
REMARK    1  A    between atoms: C_1  and  C_2
REMARK    2  A    between atoms: C_6  and  C_7
REMARK    3  A    between atoms: C_7  and  O_8
REMARK    4  A    between atoms: C_7  and  C_9
REMARK    5  A    between atoms: C_9  and  O_11
REMARK                            x       y       z     vdW  Elec       q    Type
REMARK                         _______ _______ _______ _____ _____    ______ ____
ROOT
ATOM      1  C   UNL     1       1.574   3.934  18.146  0.00  0.00    +0.000 C 
ATOM      2  C   UNL     1       2.643   4.951  17.868  0.00  0.00    +0.000 A 
ATOM      3  C   UNL     1       2.387   6.316  18.025  0.00  0.00    +0.000 A 
ATOM      4  C   UNL     1       3.381   7.251  17.751  0.00  0.00    +0.000 A 
ATOM      5  C   UNL     1       4.634   6.831  17.304  0.00  0.00    +0.000 A 
ATOM      6  C   UNL     1       4.910   5.467  17.112  0.00  0.00    +0.000 A 
ATOM      7  C   UNL     1       3.909   4.534  17.421  0.00  0.00    +0.000 A 
ENDROOT
BRANCH   6   8
ATOM      8  C   UNL     1       6.288   5.067  16.631  0.00  0.00    +0.000 C 
BRANCH   8   9
ATOM      9  O   UNL     1       6.679   5.894  15.519  0.00  0.00    +0.000 OA
ATOM     10  H   UNL     1       6.815   6.793  15.878  0.00  0.00    +0.000 HD
ENDBRANCH   8   9
BRANCH   8  11
ATOM     11  C   UNL     1       7.420   5.131  17.670  0.00  0.00    +0.000 C 
ATOM     12  O   UNL     1       7.625   6.025  18.476  0.00  0.00    +0.000 OA
BRANCH  11  13
ATOM     13  O   UNL     1       8.186   4.003  17.618  0.00  0.00    +0.000 OA
ATOM     14  H   UNL     1       7.688   3.275  18.064  0.00  0.00    +0.000 HD
ENDBRANCH  11  13
ENDBRANCH   8  11
ENDBRANCH   6   8
TORSDOF 4
ENDMDL
MODEL 8
REMARK VINA RESULT:      -5.6      2.360      2.698
REMARK  Name = 
REMARK  5 active torsions:
REMARK  status: ('A' for Active; 'I' for Inactive)
REMARK    1  A    between atoms: C_1  and  C_2
REMARK    2  A    between atoms: C_6  and  C_7
REMARK    3  A    between atoms: C_7  and  O_8
REMARK    4  A    between atoms: C_7  and  C_9
REMARK    5  A    between atoms: C_9  and  O_11
REMARK                            x       y       z     vdW  Elec       q    Type
REMARK                         _______ _______ _______ _____ _____    ______ ____
ROOT
ATOM      1  C   UNL     1       1.731   5.149  20.477  0.00  0.00    +0.000 C 
ATOM      2  C   UNL     1       2.802   5.581  19.518  0.00  0.00    +0.000 A 
ATOM      3  C   UNL     1       2.527   6.516  18.516  0.00  0.00    +0.000 A 
ATOM      4  C   UNL     1       3.523   6.900  17.623  0.00  0.00    +0.000 A 
ATOM      5  C   UNL     1       4.798   6.342  17.714  0.00  0.00    +0.000 A 
ATOM      6  C   UNL     1       5.095   5.381  18.695  0.00  0.00    +0.000 A 
ATOM      7  C   UNL     1       4.090   5.026  19.608  0.00  0.00    +0.000 A 
ENDROOT
BRANCH   6   8
ATOM      8  C   UNL     1       6.497   4.813  18.752  0.00  0.00    +0.000 C 
BRANCH   8   9
ATOM      9  O   UNL     1       6.883   4.326  17.453  0.00  0.00    +0.000 OA
ATOM     10  H   UNL     1       6.076   3.953  17.047  0.00  0.00    +0.000 HD
ENDBRANCH   8   9
BRANCH   8  11
ATOM     11  C   UNL     1       7.602   5.769  19.230  0.00  0.00    +0.000 C 
ATOM     12  O   UNL     1       8.084   6.703  18.608  0.00  0.00    +0.000 OA
BRANCH  11  13
ATOM     13  O   UNL     1       7.979   5.470  20.507  0.00  0.00    +0.000 OA
ATOM     14  H   UNL     1       8.765   4.875  20.463  0.00  0.00    +0.000 HD
ENDBRANCH  11  13
ENDBRANCH   8  11
ENDBRANCH   6   8
TORSDOF 4
ENDMDL
MODEL 9
REMARK VINA RESULT:      -5.6      0.909      1.341
REMARK  Name = 
REMARK  5 active torsions:
REMARK  status: ('A' for Active; 'I' for Inactive)
REMARK    1  A    between atoms: C_1  and  C_2
REMARK    2  A    between atoms: C_6  and  C_7
REMARK    3  A    between atoms: C_7  and  O_8
REMARK    4  A    between atoms: C_7  and  C_9
REMARK    5  A    between atoms: C_9  and  O_11
REMARK                            x       y       z     vdW  Elec       q    Type
REMARK                         _______ _______ _______ _____ _____    ______ ____
ROOT
ATOM      1  C   UNL     1       2.108   4.313  19.470  0.00  0.00    +0.000 C 
ATOM      2  C   UNL     1       3.030   5.030  18.526  0.00  0.00    +0.000 A 
ATOM      3  C   UNL     1       3.001   6.422  18.420  0.00  0.00    +0.000 A 
ATOM      4  C   UNL     1       3.850   7.076  17.532  0.00  0.00    +0.000 A 
ATOM      5  C   UNL     1       4.726   6.342  16.732  0.00  0.00    +0.000 A 
ATOM      6  C   UNL     1       4.758   4.939  16.799  0.00  0.00    +0.000 A 
ATOM      7  C   UNL     1       3.918   4.295  17.721  0.00  0.00    +0.000 A 
ENDROOT
BRANCH   6   8
ATOM      8  C   UNL     1       5.732   4.193  15.912  0.00  0.00    +0.000 C 
BRANCH   8   9
ATOM      9  O   UNL     1       5.354   4.345  14.532  0.00  0.00    +0.000 OA
ATOM     10  H   UNL     1       4.408   4.590  14.530  0.00  0.00    +0.000 HD
ENDBRANCH   8   9
BRANCH   8  11
ATOM     11  C   UNL     1       7.211   4.598  16.030  0.00  0.00    +0.000 C 
ATOM     12  O   UNL     1       8.000   4.250  16.894  0.00  0.00    +0.000 OA
BRANCH  11  13
ATOM     13  O   UNL     1       7.576   5.397  14.986  0.00  0.00    +0.000 OA
ATOM     14  H   UNL     1       6.988   5.189  14.221  0.00  0.00    +0.000 HD
ENDBRANCH  11  13
ENDBRANCH   8  11
ENDBRANCH   6   8
TORSDOF 4
ENDMDL
