MODEL 1
REMARK VINA RESULT:      -7.2      0.000      0.000
REMARK  Name = 
REMARK  7 active torsions:
REMARK  status: ('A' for Active; 'I' for Inactive)
REMARK    1  A    between atoms: C_1  and  N_2
REMARK    2  A    between atoms: N_2  and  C_3
REMARK    3  A    between atoms: N_2  and  S_15
REMARK    4  A    between atoms: C_3  and  C_4
REMARK    5  A    between atoms: N_6  and  C_7
REMARK    6  A    between atoms: C_7  and  C_8
REMARK    7  A    between atoms: S_15  and  C_18
REMARK                            x       y       z     vdW  Elec       q    Type
REMARK                         _______ _______ _______ _____ _____    ______ ____
ROOT
ATOM      1  C   UNL     1       3.465   2.667  17.304  0.00  0.00    +0.000 C 
ATOM      2  O   UNL     1       2.598   3.332  16.741  0.00  0.00    +0.000 OA
ATOM      3  N   UNL     1       4.811   2.849  17.078  0.00  0.00    +0.000 N 
ATOM      4  H   UNL     1       5.484   2.413  17.697  0.00  0.00    +0.000 HD
ENDROOT
BRANCH   1   5
ATOM      5  C   UNL     1       3.101   1.560  18.288  0.00  0.00    +0.000 C 
BRANCH   5   7
ATOM      6  C   UNL     1       0.972   2.531  19.100  0.00  0.00    +0.000 C 
ATOM      7  N   UNL     1       2.304   1.999  19.466  0.00  0.00    +0.000 NA
BRANCH   7   8
ATOM      8  S   UNL     1       3.173   2.957  20.570  0.00  0.00    +0.000 S 
ATOM      9  O   UNL     1       2.796   2.553  21.910  0.00  0.00    +0.000 OA
ATOM     10  O   UNL     1       4.561   2.966  20.166  0.00  0.00    +0.000 OA
BRANCH   8  11
ATOM     11  C   UNL     1       2.624   4.646  20.393  0.00  0.00    +0.000 A 
ATOM     12  C   UNL     1       1.572   5.343  20.956  0.00  0.00    +0.000 A 
ATOM     13  C   UNL     1       1.517   6.702  20.521  0.00  0.00    +0.000 A 
ATOM     14  C   UNL     1       2.536   6.997  19.642  0.00  0.00    +0.000 A 
ATOM     15  S   UNL     1       3.551   5.647  19.357  0.00  0.00    +0.000 S 
ENDBRANCH   8  11
ENDBRANCH   7   8
ENDBRANCH   5   7
ENDBRANCH   1   5
BRANCH   3  16
ATOM     16  C   UNL     1       5.286   3.908  16.209  0.00  0.00    +0.000 C 
BRANCH  16  17
ATOM     17  C   UNL     1       6.095   4.959  16.934  0.00  0.00    +0.000 A 
ATOM     18  C   UNL     1       6.979   4.556  17.954  0.00  0.00    +0.000 A 
ATOM     19  C   UNL     1       7.797   5.477  18.614  0.00  0.00    +0.000 A 
ATOM     20  C   UNL     1       7.741   6.825  18.273  0.00  0.00    +0.000 A 
ATOM     21  C   UNL     1       6.855   7.249  17.284  0.00  0.00    +0.000 A 
ATOM     22  C   UNL     1       6.032   6.326  16.624  0.00  0.00    +0.000 A 
ATOM     23 CL   UNL     1       4.960   6.941  15.416  0.00  0.00    +0.000 Cl
ENDBRANCH  16  17
ENDBRANCH   3  16
TORSDOF 6
ENDMDL
MODEL 2
REMARK VINA RESULT:      -7.1      2.894      4.345
REMARK  Name = 
REMARK  7 active torsions:
REMARK  status: ('A' for Active; 'I' for Inactive)
REMARK    1  A    between atoms: C_1  and  N_2
REMARK    2  A    between atoms: N_2  and  C_3
REMARK    3  A    between atoms: N_2  and  S_15
REMARK    4  A    between atoms: C_3  and  C_4
REMARK    5  A    between atoms: N_6  and  C_7
REMARK    6  A    between atoms: C_7  and  C_8
REMARK    7  A    between atoms: S_15  and  C_18
REMARK                            x       y       z     vdW  Elec       q    Type
REMARK                         _______ _______ _______ _____ _____    ______ ____
ROOT
ATOM      1  C   UNL     1       5.575   6.122  17.157  0.00  0.00    +0.000 C 
ATOM      2  O   UNL     1       5.706   7.274  16.752  0.00  0.00    +0.000 OA
ATOM      3  N   UNL     1       6.261   5.057  16.616  0.00  0.00    +0.000 N 
ATOM      4  H   UNL     1       6.263   4.167  17.100  0.00  0.00    +0.000 HD
ENDROOT
BRANCH   1   5
ATOM      5  C   UNL     1       4.610   5.784  18.288  0.00  0.00    +0.000 C 
BRANCH   5   7
ATOM      6  C   UNL     1       2.365   6.749  18.693  0.00  0.00    +0.000 C 
ATOM      7  N   UNL     1       3.170   5.784  17.911  0.00  0.00    +0.000 NA
BRANCH   7   8
ATOM      8  S   UNL     1       2.490   4.230  17.784  0.00  0.00    +0.000 S 
ATOM      9  O   UNL     1       1.172   4.362  17.196  0.00  0.00    +0.000 OA
ATOM     10  O   UNL     1       3.476   3.351  17.194  0.00  0.00    +0.000 OA
BRANCH   8  11
ATOM     11  C   UNL     1       2.232   3.599  19.433  0.00  0.00    +0.000 A 
ATOM     12  C   UNL     1       1.152   3.670  20.295  0.00  0.00    +0.000 A 
ATOM     13  C   UNL     1       1.394   3.006  21.534  0.00  0.00    +0.000 A 
ATOM     14  C   UNL     1       2.652   2.444  21.575  0.00  0.00    +0.000 A 
ATOM     15  S   UNL     1       3.522   2.711  20.124  0.00  0.00    +0.000 S 
ENDBRANCH   8  11
ENDBRANCH   7   8
ENDBRANCH   5   7
ENDBRANCH   1   5
BRANCH   3  16
ATOM     16  C   UNL     1       7.251   5.256  15.576  0.00  0.00    +0.000 C 
BRANCH  16  17
ATOM     17  C   UNL     1       6.860   4.641  14.252  0.00  0.00    +0.000 A 
ATOM     18  C   UNL     1       5.736   3.795  14.198  0.00  0.00    +0.000 A 
ATOM     19  C   UNL     1       5.293   3.249  12.990  0.00  0.00    +0.000 A 
ATOM     20  C   UNL     1       5.971   3.534  11.809  0.00  0.00    +0.000 A 
ATOM     21  C   UNL     1       7.101   4.349  11.843  0.00  0.00    +0.000 A 
ATOM     22  C   UNL     1       7.548   4.894  13.055  0.00  0.00    +0.000 A 
ATOM     23 CL   UNL     1       8.960   5.889  13.004  0.00  0.00    +0.000 Cl
ENDBRANCH  16  17
ENDBRANCH   3  16
TORSDOF 6
ENDMDL
MODEL 3
REMARK VINA RESULT:      -7.1      3.283      6.269
REMARK  Name = 
REMARK  7 active torsions:
REMARK  status: ('A' for Active; 'I' for Inactive)
REMARK    1  A    between atoms: C_1  and  N_2
REMARK    2  A    between atoms: N_2  and  C_3
REMARK    3  A    between atoms: N_2  and  S_15
REMARK    4  A    between atoms: C_3  and  C_4
REMARK    5  A    between atoms: N_6  and  C_7
REMARK    6  A    between atoms: C_7  and  C_8
REMARK    7  A    between atoms: S_15  and  C_18
REMARK                            x       y       z     vdW  Elec       q    Type
REMARK                         _______ _______ _______ _____ _____    ______ ____
ROOT
ATOM      1  C   UNL     1       2.723   6.475  19.521  0.00  0.00    +0.000 C 
ATOM      2  O   UNL     1       3.174   6.847  18.440  0.00  0.00    +0.000 OA
ATOM      3  N   UNL     1       1.944   7.281  20.322  0.00  0.00    +0.000 N 
ATOM      4  H   UNL     1       1.446   6.873  21.104  0.00  0.00    +0.000 HD
ENDROOT
BRANCH   1   5
ATOM      5  C   UNL     1       3.023   5.085  20.069  0.00  0.00    +0.000 C 
BRANCH   5   7
ATOM      6  C   UNL     1       1.543   3.148  19.629  0.00  0.00    +0.000 C 
ATOM      7  N   UNL     1       2.687   3.959  19.155  0.00  0.00    +0.000 NA
BRANCH   7   8
ATOM      8  S   UNL     1       4.035   3.056  18.646  0.00  0.00    +0.000 S 
ATOM      9  O   UNL     1       4.895   2.846  19.794  0.00  0.00    +0.000 OA
ATOM     10  O   UNL     1       3.561   1.936  17.865  0.00  0.00    +0.000 OA
BRANCH   8  11
ATOM     11  C   UNL     1       4.976   4.056  17.505  0.00  0.00    +0.000 A 
ATOM     12  C   UNL     1       4.807   4.338  16.162  0.00  0.00    +0.000 A 
ATOM     13  C   UNL     1       5.818   5.206  15.652  0.00  0.00    +0.000 A 
ATOM     14  C   UNL     1       6.724   5.563  16.626  0.00  0.00    +0.000 A 
ATOM     15  S   UNL     1       6.346   4.862  18.143  0.00  0.00    +0.000 S 
ENDBRANCH   8  11
ENDBRANCH   7   8
ENDBRANCH   5   7
ENDBRANCH   1   5
BRANCH   3  16
ATOM     16  C   UNL     1       1.540   8.603  19.886  0.00  0.00    +0.000 C 
BRANCH  16  17
ATOM     17  C   UNL     1       0.684   9.331  20.896  0.00  0.00    +0.000 A 
ATOM     18  C   UNL     1       0.659   8.871  22.227  0.00  0.00    +0.000 A 
ATOM     19  C   UNL     1      -0.066   9.543  23.215  0.00  0.00    +0.000 A 
ATOM     20  C   UNL     1      -0.789  10.686  22.890  0.00  0.00    +0.000 A 
ATOM     21  C   UNL     1      -0.799  11.144  21.573  0.00  0.00    +0.000 A 
ATOM     22  C   UNL     1      -0.075  10.469  20.581  0.00  0.00    +0.000 A 
ATOM     23 CL   UNL     1      -0.148  11.104  18.975  0.00  0.00    +0.000 Cl
ENDBRANCH  16  17
ENDBRANCH   3  16
TORSDOF 6
ENDMDL
MODEL 4
REMARK VINA RESULT:      -7.0      2.794      4.329
REMARK  Name = 
REMARK  7 active torsions:
REMARK  status: ('A' for Active; 'I' for Inactive)
REMARK    1  A    between atoms: C_1  and  N_2
REMARK    2  A    between atoms: N_2  and  C_3
REMARK    3  A    between atoms: N_2  and  S_15
REMARK    4  A    between atoms: C_3  and  C_4
REMARK    5  A    between atoms: N_6  and  C_7
REMARK    6  A    between atoms: C_7  and  C_8
REMARK    7  A    between atoms: S_15  and  C_18
REMARK                            x       y       z     vdW  Elec       q    Type
REMARK                         _______ _______ _______ _____ _____    ______ ____
ROOT
ATOM      1  C   UNL     1       6.043   5.208  17.883  0.00  0.00    +0.000 C 
ATOM      2  O   UNL     1       7.018   4.674  18.408  0.00  0.00    +0.000 OA
ATOM      3  N   UNL     1       6.034   5.620  16.569  0.00  0.00    +0.000 N 
ATOM      4  H   UNL     1       5.157   5.878  16.133  0.00  0.00    +0.000 HD
ENDROOT
BRANCH   1   5
ATOM      5  C   UNL     1       4.766   5.477  18.671  0.00  0.00    +0.000 C 
BRANCH   5   7
ATOM      6  C   UNL     1       2.703   6.750  18.163  0.00  0.00    +0.000 C 
ATOM      7  N   UNL     1       3.524   5.558  17.854  0.00  0.00    +0.000 NA
BRANCH   7   8
ATOM      8  S   UNL     1       2.655   4.098  17.773  0.00  0.00    +0.000 S 
ATOM      9  O   UNL     1       1.318   4.396  17.299  0.00  0.00    +0.000 OA
ATOM     10  O   UNL     1       3.476   3.119  17.095  0.00  0.00    +0.000 OA
BRANCH   8  11
ATOM     11  C   UNL     1       2.460   3.474  19.434  0.00  0.00    +0.000 A 
ATOM     12  C   UNL     1       3.268   2.681  20.227  0.00  0.00    +0.000 A 
ATOM     13  C   UNL     1       2.701   2.432  21.513  0.00  0.00    +0.000 A 
ATOM     14  C   UNL     1       1.478   3.049  21.659  0.00  0.00    +0.000 A 
ATOM     15  S   UNL     1       1.029   3.928  20.259  0.00  0.00    +0.000 S 
ENDBRANCH   8  11
ENDBRANCH   7   8
ENDBRANCH   5   7
ENDBRANCH   1   5
BRANCH   3  16
ATOM     16  C   UNL     1       7.166   5.367  15.699  0.00  0.00    +0.000 C 
BRANCH  16  17
ATOM     17  C   UNL     1       6.782   4.715  14.391  0.00  0.00    +0.000 A 
ATOM     18  C   UNL     1       5.648   3.881  14.351  0.00  0.00    +0.000 A 
ATOM     19  C   UNL     1       5.211   3.303  13.156  0.00  0.00    +0.000 A 
ATOM     20  C   UNL     1       5.906   3.541  11.975  0.00  0.00    +0.000 A 
ATOM     21  C   UNL     1       7.046   4.343  11.996  0.00  0.00    +0.000 A 
ATOM     22  C   UNL     1       7.487   4.921  13.195  0.00  0.00    +0.000 A 
ATOM     23 CL   UNL     1       8.912   5.896  13.128  0.00  0.00    +0.000 Cl
ENDBRANCH  16  17
ENDBRANCH   3  16
TORSDOF 6
ENDMDL
MODEL 5
REMARK VINA RESULT:      -7.0      3.079      6.178
REMARK  Name = 
REMARK  7 active torsions:
REMARK  status: ('A' for Active; 'I' for Inactive)
REMARK    1  A    between atoms: C_1  and  N_2
REMARK    2  A    between atoms: N_2  and  C_3
REMARK    3  A    between atoms: N_2  and  S_15
REMARK    4  A    between atoms: C_3  and  C_4
REMARK    5  A    between atoms: N_6  and  C_7
REMARK    6  A    between atoms: C_7  and  C_8
REMARK    7  A    between atoms: S_15  and  C_18
REMARK                            x       y       z     vdW  Elec       q    Type
REMARK                         _______ _______ _______ _____ _____    ______ ____
ROOT
ATOM      1  C   UNL     1       4.045   6.957  17.450  0.00  0.00    +0.000 C 
ATOM      2  O   UNL     1       3.439   7.979  17.766  0.00  0.00    +0.000 OA
ATOM      3  N   UNL     1       3.475   5.705  17.500  0.00  0.00    +0.000 N 
ATOM      4  H   UNL     1       3.944   4.924  17.056  0.00  0.00    +0.000 HD
ENDROOT
BRANCH   1   5
ATOM      5  C   UNL     1       5.500   7.006  16.997  0.00  0.00    +0.000 C 
BRANCH   5   7
ATOM      6  C   UNL     1       7.720   7.132  18.089  0.00  0.00    +0.000 C 
ATOM      7  N   UNL     1       6.471   6.356  17.920  0.00  0.00    +0.000 NA
BRANCH   7   8
ATOM      8  S   UNL     1       6.700   4.697  17.623  0.00  0.00    +0.000 S 
ATOM      9  O   UNL     1       8.097   4.387  17.853  0.00  0.00    +0.000 OA
ATOM     10  O   UNL     1       5.660   3.966  18.313  0.00  0.00    +0.000 OA
BRANCH   8  11
ATOM     11  C   UNL     1       6.408   4.397  15.888  0.00  0.00    +0.000 A 
ATOM     12  C   UNL     1       5.388   3.746  15.218  0.00  0.00    +0.000 A 
ATOM     13  C   UNL     1       5.569   3.754  13.802  0.00  0.00    +0.000 A 
ATOM     14  C   UNL     1       6.721   4.416  13.439  0.00  0.00    +0.000 A 
ATOM     15  S   UNL     1       7.566   5.029  14.797  0.00  0.00    +0.000 S 
ENDBRANCH   8  11
ENDBRANCH   7   8
ENDBRANCH   5   7
ENDBRANCH   1   5
BRANCH   3  16
ATOM     16  C   UNL     1       2.080   5.532  17.858  0.00  0.00    +0.000 C 
BRANCH  16  17
ATOM     17  C   UNL     1       1.859   4.471  18.910  0.00  0.00    +0.000 A 
ATOM     18  C   UNL     1       1.845   3.117  18.521  0.00  0.00    +0.000 A 
ATOM     19  C   UNL     1       1.707   2.091  19.461  0.00  0.00    +0.000 A 
ATOM     20  C   UNL     1       1.571   2.400  20.810  0.00  0.00    +0.000 A 
ATOM     21  C   UNL     1       1.558   3.734  21.214  0.00  0.00    +0.000 A 
ATOM     22  C   UNL     1       1.693   4.763  20.272  0.00  0.00    +0.000 A 
ATOM     23 CL   UNL     1       1.659   6.387  20.862  0.00  0.00    +0.000 Cl
ENDBRANCH  16  17
ENDBRANCH   3  16
TORSDOF 6
ENDMDL
MODEL 6
REMARK VINA RESULT:      -6.9      2.781      5.501
REMARK  Name = 
REMARK  7 active torsions:
REMARK  status: ('A' for Active; 'I' for Inactive)
REMARK    1  A    between atoms: C_1  and  N_2
REMARK    2  A    between atoms: N_2  and  C_3
REMARK    3  A    between atoms: N_2  and  S_15
REMARK    4  A    between atoms: C_3  and  C_4
REMARK    5  A    between atoms: N_6  and  C_7
REMARK    6  A    between atoms: C_7  and  C_8
REMARK    7  A    between atoms: S_15  and  C_18
REMARK                            x       y       z     vdW  Elec       q    Type
REMARK                         _______ _______ _______ _____ _____    ______ ____
ROOT
ATOM      1  C   UNL     1       6.260   4.418  18.963  0.00  0.00    +0.000 C 
ATOM      2  O   UNL     1       6.365   5.231  19.878  0.00  0.00    +0.000 OA
ATOM      3  N   UNL     1       5.556   3.240  19.086  0.00  0.00    +0.000 N 
ATOM      4  H   UNL     1       5.342   2.698  18.258  0.00  0.00    +0.000 HD
ENDROOT
BRANCH   1   5
ATOM      5  C   UNL     1       6.934   4.650  17.615  0.00  0.00    +0.000 C 
BRANCH   5   7
ATOM      6  C   UNL     1       6.407   4.256  15.227  0.00  0.00    +0.000 C 
ATOM      7  N   UNL     1       6.007   4.928  16.484  0.00  0.00    +0.000 NA
BRANCH   7   8
ATOM      8  S   UNL     1       5.598   6.570  16.314  0.00  0.00    +0.000 S 
ATOM      9  O   UNL     1       6.634   7.360  16.950  0.00  0.00    +0.000 OA
ATOM     10  O   UNL     1       5.235   6.805  14.934  0.00  0.00    +0.000 OA
BRANCH   8  11
ATOM     11  C   UNL     1       4.107   6.872  17.246  0.00  0.00    +0.000 A 
ATOM     12  C   UNL     1       3.517   8.037  17.700  0.00  0.00    +0.000 A 
ATOM     13  C   UNL     1       2.304   7.797  18.414  0.00  0.00    +0.000 A 
ATOM     14  C   UNL     1       2.006   6.453  18.476  0.00  0.00    +0.000 A 
ATOM     15  S   UNL     1       3.178   5.497  17.670  0.00  0.00    +0.000 S 
ENDBRANCH   8  11
ENDBRANCH   7   8
ENDBRANCH   5   7
ENDBRANCH   1   5
BRANCH   3  16
ATOM     16  C   UNL     1       4.822   2.932  20.298  0.00  0.00    +0.000 C 
BRANCH  16  17
ATOM     17  C   UNL     1       3.324   2.909  20.101  0.00  0.00    +0.000 A 
ATOM     18  C   UNL     1       2.510   3.664  20.967  0.00  0.00    +0.000 A 
ATOM     19  C   UNL     1       1.125   3.729  20.792  0.00  0.00    +0.000 A 
ATOM     20  C   UNL     1       0.523   3.032  19.750  0.00  0.00    +0.000 A 
ATOM     21  C   UNL     1       1.308   2.258  18.895  0.00  0.00    +0.000 A 
ATOM     22  C   UNL     1       2.696   2.190  19.072  0.00  0.00    +0.000 A 
ATOM     23 CL   UNL     1       3.588   1.202  17.970  0.00  0.00    +0.000 Cl
ENDBRANCH  16  17
ENDBRANCH   3  16
TORSDOF 6
ENDMDL
MODEL 7
REMARK VINA RESULT:      -6.9      3.595      6.880
REMARK  Name = 
REMARK  7 active torsions:
REMARK  status: ('A' for Active; 'I' for Inactive)
REMARK    1  A    between atoms: C_1  and  N_2
REMARK    2  A    between atoms: N_2  and  C_3
REMARK    3  A    between atoms: N_2  and  S_15
REMARK    4  A    between atoms: C_3  and  C_4
REMARK    5  A    between atoms: N_6  and  C_7
REMARK    6  A    between atoms: C_7  and  C_8
REMARK    7  A    between atoms: S_15  and  C_18
REMARK                            x       y       z     vdW  Elec       q    Type
REMARK                         _______ _______ _______ _____ _____    ______ ____
ROOT
ATOM      1  C   UNL     1       6.692   4.681  18.886  0.00  0.00    +0.000 C 
ATOM      2  O   UNL     1       6.959   5.428  19.825  0.00  0.00    +0.000 OA
ATOM      3  N   UNL     1       5.588   3.856  18.879  0.00  0.00    +0.000 N 
ATOM      4  H   UNL     1       5.309   3.405  18.015  0.00  0.00    +0.000 HD
ENDROOT
BRANCH   1   5
ATOM      5  C   UNL     1       7.592   4.597  17.659  0.00  0.00    +0.000 C 
BRANCH   5   7
ATOM      6  C   UNL     1       7.387   7.015  17.164  0.00  0.00    +0.000 C 
ATOM      7  N   UNL     1       7.347   5.638  16.623  0.00  0.00    +0.000 NA
BRANCH   7   8
ATOM      8  S   UNL     1       6.018   5.308  15.614  0.00  0.00    +0.000 S 
ATOM      9  O   UNL     1       5.359   4.117  16.112  0.00  0.00    +0.000 OA
ATOM     10  O   UNL     1       5.278   6.535  15.424  0.00  0.00    +0.000 OA
BRANCH   8  11
ATOM     11  C   UNL     1       6.641   4.884  13.996  0.00  0.00    +0.000 A 
ATOM     12  C   UNL     1       7.669   5.407  13.231  0.00  0.00    +0.000 A 
ATOM     13  C   UNL     1       7.814   4.740  11.978  0.00  0.00    +0.000 A 
ATOM     14  C   UNL     1       6.894   3.725  11.830  0.00  0.00    +0.000 A 
ATOM     15  S   UNL     1       5.874   3.577  13.198  0.00  0.00    +0.000 S 
ENDBRANCH   8  11
ENDBRANCH   7   8
ENDBRANCH   5   7
ENDBRANCH   1   5
BRANCH   3  16
ATOM     16  C   UNL     1       4.624   3.887  19.961  0.00  0.00    +0.000 C 
BRANCH  16  17
ATOM     17  C   UNL     1       3.197   3.717  19.496  0.00  0.00    +0.000 A 
ATOM     18  C   UNL     1       2.836   4.183  18.216  0.00  0.00    +0.000 A 
ATOM     19  C   UNL     1       1.546   3.995  17.711  0.00  0.00    +0.000 A 
ATOM     20  C   UNL     1       0.586   3.345  18.480  0.00  0.00    +0.000 A 
ATOM     21  C   UNL     1       0.915   2.899  19.759  0.00  0.00    +0.000 A 
ATOM     22  C   UNL     1       2.207   3.089  20.268  0.00  0.00    +0.000 A 
ATOM     23 CL   UNL     1       2.524   2.509  21.865  0.00  0.00    +0.000 Cl
ENDBRANCH  16  17
ENDBRANCH   3  16
TORSDOF 6
ENDMDL
MODEL 8
REMARK VINA RESULT:      -6.9      3.031      6.175
REMARK  Name = 
REMARK  7 active torsions:
REMARK  status: ('A' for Active; 'I' for Inactive)
REMARK    1  A    between atoms: C_1  and  N_2
REMARK    2  A    between atoms: N_2  and  C_3
REMARK    3  A    between atoms: N_2  and  S_15
REMARK    4  A    between atoms: C_3  and  C_4
REMARK    5  A    between atoms: N_6  and  C_7
REMARK    6  A    between atoms: C_7  and  C_8
REMARK    7  A    between atoms: S_15  and  C_18
REMARK                            x       y       z     vdW  Elec       q    Type
REMARK                         _______ _______ _______ _____ _____    ______ ____
ROOT
ATOM      1  C   UNL     1       4.764   6.965  16.987  0.00  0.00    +0.000 C 
ATOM      2  O   UNL     1       4.188   7.360  15.976  0.00  0.00    +0.000 OA
ATOM      3  N   UNL     1       4.099   6.412  18.058  0.00  0.00    +0.000 N 
ATOM      4  H   UNL     1       4.626   5.934  18.780  0.00  0.00    +0.000 HD
ENDROOT
BRANCH   1   5
ATOM      5  C   UNL     1       6.276   7.086  17.135  0.00  0.00    +0.000 C 
BRANCH   5   7
ATOM      6  C   UNL     1       8.103   6.777  18.779  0.00  0.00    +0.000 C 
ATOM      7  N   UNL     1       6.883   6.203  18.169  0.00  0.00    +0.000 NA
BRANCH   7   8
ATOM      8  S   UNL     1       7.025   4.576  17.691  0.00  0.00    +0.000 S 
ATOM      9  O   UNL     1       8.396   4.161  17.911  0.00  0.00    +0.000 OA
ATOM     10  O   UNL     1       5.927   3.836  18.271  0.00  0.00    +0.000 OA
BRANCH   8  11
ATOM     11  C   UNL     1       6.764   4.491  15.927  0.00  0.00    +0.000 A 
ATOM     12  C   UNL     1       7.496   4.971  14.857  0.00  0.00    +0.000 A 
ATOM     13  C   UNL     1       6.899   4.659  13.599  0.00  0.00    +0.000 A 
ATOM     14  C   UNL     1       5.730   3.946  13.752  0.00  0.00    +0.000 A 
ATOM     15  S   UNL     1       5.369   3.649  15.400  0.00  0.00    +0.000 S 
ENDBRANCH   8  11
ENDBRANCH   7   8
ENDBRANCH   5   7
ENDBRANCH   1   5
BRANCH   3  16
ATOM     16  C   UNL     1       2.667   6.188  18.015  0.00  0.00    +0.000 C 
BRANCH  16  17
ATOM     17  C   UNL     1       2.262   4.807  18.474  0.00  0.00    +0.000 A 
ATOM     18  C   UNL     1       2.403   3.724  17.584  0.00  0.00    +0.000 A 
ATOM     19  C   UNL     1       2.103   2.416  17.977  0.00  0.00    +0.000 A 
ATOM     20  C   UNL     1       1.648   2.165  19.267  0.00  0.00    +0.000 A 
ATOM     21  C   UNL     1       1.478   3.226  20.156  0.00  0.00    +0.000 A 
ATOM     22  C   UNL     1       1.775   4.538  19.762  0.00  0.00    +0.000 A 
ATOM     23 CL   UNL     1       1.529   5.790  20.927  0.00  0.00    +0.000 Cl
ENDBRANCH  16  17
ENDBRANCH   3  16
TORSDOF 6
ENDMDL
MODEL 9
REMARK VINA RESULT:      -6.8      3.432      6.364
REMARK  Name = 
REMARK  7 active torsions:
REMARK  status: ('A' for Active; 'I' for Inactive)
REMARK    1  A    between atoms: C_1  and  N_2
REMARK    2  A    between atoms: N_2  and  C_3
REMARK    3  A    between atoms: N_2  and  S_15
REMARK    4  A    between atoms: C_3  and  C_4
REMARK    5  A    between atoms: N_6  and  C_7
REMARK    6  A    between atoms: C_7  and  C_8
REMARK    7  A    between atoms: S_15  and  C_18
REMARK                            x       y       z     vdW  Elec       q    Type
REMARK                         _______ _______ _______ _____ _____    ______ ____
ROOT
ATOM      1  C   UNL     1       2.549   6.735  19.416  0.00  0.00    +0.000 C 
ATOM      2  O   UNL     1       2.497   6.895  18.199  0.00  0.00    +0.000 OA
ATOM      3  N   UNL     1       2.033   7.646  20.312  0.00  0.00    +0.000 N 
ATOM      4  H   UNL     1       1.931   7.385  21.285  0.00  0.00    +0.000 HD
ENDROOT
BRANCH   1   5
ATOM      5  C   UNL     1       3.222   5.512  20.028  0.00  0.00    +0.000 C 
BRANCH   5   7
ATOM      6  C   UNL     1       1.988   3.365  20.011  0.00  0.00    +0.000 C 
ATOM      7  N   UNL     1       2.968   4.229  19.316  0.00  0.00    +0.000 NA
BRANCH   7   8
ATOM      8  S   UNL     1       4.381   3.433  18.804  0.00  0.00    +0.000 S 
ATOM      9  O   UNL     1       4.872   2.632  19.908  0.00  0.00    +0.000 OA
ATOM     10  O   UNL     1       4.119   2.830  17.515  0.00  0.00    +0.000 OA
BRANCH   8  11
ATOM     11  C   UNL     1       5.634   4.666  18.496  0.00  0.00    +0.000 A 
ATOM     12  C   UNL     1       6.675   5.143  19.270  0.00  0.00    +0.000 A 
ATOM     13  C   UNL     1       7.441   6.146  18.603  0.00  0.00    +0.000 A 
ATOM     14  C   UNL     1       6.960   6.397  17.337  0.00  0.00    +0.000 A 
ATOM     15  S   UNL     1       5.604   5.421  16.959  0.00  0.00    +0.000 S 
ENDBRANCH   8  11
ENDBRANCH   7   8
ENDBRANCH   5   7
ENDBRANCH   1   5
BRANCH   3  16
ATOM     16  C   UNL     1       1.316   8.821  19.854  0.00  0.00    +0.000 C 
BRANCH  16  17
ATOM     17  C   UNL     1       0.492   9.478  20.937  0.00  0.00    +0.000 A 
ATOM     18  C   UNL     1       0.503   8.927  22.232  0.00  0.00    +0.000 A 
ATOM     19  C   UNL     1      -0.191   9.529  23.286  0.00  0.00    +0.000 A 
ATOM     20  C   UNL     1      -0.918  10.694  23.062  0.00  0.00    +0.000 A 
ATOM     21  C   UNL     1      -0.962  11.243  21.781  0.00  0.00    +0.000 A 
ATOM     22  C   UNL     1      -0.269  10.638  20.724  0.00  0.00    +0.000 A 
ATOM     23 CL   UNL     1      -0.385  11.384  19.169  0.00  0.00    +0.000 Cl
ENDBRANCH  16  17
ENDBRANCH   3  16
TORSDOF 6
ENDMDL
