MODEL 1
REMARK VINA RESULT:      -5.5      0.000      0.000
REMARK  Name = 
REMARK  10 active torsions:
REMARK  status: ('A' for Active; 'I' for Inactive)
REMARK    1  A    between atoms: C_2  and  C_3
REMARK    2  A    between atoms: C_3  and  N_4
REMARK    3  A    between atoms: N_16  and  C_17
REMARK    4  A    between atoms: C_17  and  C_18
REMARK    5  A    between atoms: C_25  and  C_26
REMARK    6  A    between atoms: C_26  and  O_28
REMARK    7  A    between atoms: O_28  and  C_29
REMARK    8  A    between atoms: C_30  and  C_31
REMARK    9  A    between atoms: C_31  and  O_33
REMARK   10  A    between atoms: O_33  and  C_34
REMARK                            x       y       z     vdW  Elec       q    Type
REMARK                         _______ _______ _______ _____ _____    ______ ____
ROOT
ATOM      1  N   UNL     1      -0.942  14.293  19.772  0.00  0.00    +0.000 N 
ATOM      2  C   UNL     1      -0.575  13.021  19.354  0.00  0.00    +0.000 A 
ATOM      3  C   UNL     1       0.527  12.680  18.585  0.00  0.00    +0.000 A 
ATOM      4  C   UNL     1       0.723  11.343  18.257  0.00  0.00    +0.000 A 
ATOM      5  C   UNL     1      -0.210  10.375  18.665  0.00  0.00    +0.000 A 
ATOM      6  C   UNL     1      -1.334  10.719  19.436  0.00  0.00    +0.000 A 
ATOM      7  C   UNL     1      -1.496  12.037  19.821  0.00  0.00    +0.000 A 
ATOM      8  C   UNL     1      -2.613  12.733  20.628  0.00  0.00    +0.000 C 
ATOM      9  C   UNL     1      -3.805  12.832  19.670  0.00  0.00    +0.000 C 
ATOM     10  C   UNL     1      -5.020  13.481  20.281  0.00  0.00    +0.000 C 
ATOM     11  C   UNL     1      -5.438  12.793  21.550  0.00  0.00    +0.000 C 
ATOM     12  O   UNL     1      -6.621  12.599  21.811  0.00  0.00    +0.000 OA
ATOM     13  N   UNL     1      -4.405  12.588  22.451  0.00  0.00    +0.000 N 
ATOM     14  C   UNL     1      -3.080  12.403  22.076  0.00  0.00    +0.000 C 
ATOM     15  N   UNL     1      -2.269  12.273  23.075  0.00  0.00    +0.000 NA
ATOM     16  C   UNL     1      -0.959  12.541  22.767  0.00  0.00    +0.000 C 
ATOM     17  C   UNL     1      -0.798  13.763  22.181  0.00  0.00    +0.000 C 
ATOM     18  C   UNL     1      -1.769  14.033  20.948  0.00  0.00    +0.000 C 
ENDROOT
BRANCH  16  19
ATOM     19  C   UNL     1      -0.157  11.265  22.463  0.00  0.00    +0.000 C 
ATOM     20  O   UNL     1       0.923  11.194  21.904  0.00  0.00    +0.000 OA
BRANCH  19  21
ATOM     21  O   UNL     1      -0.921  10.218  22.905  0.00  0.00    +0.000 OA
ATOM     22  C   UNL     1      -0.619   8.852  22.611  0.00  0.00    +0.000 C 
ENDBRANCH  19  21
ENDBRANCH  16  19
BRANCH  17  23
ATOM     23  C   UNL     1      -1.045  14.860  23.199  0.00  0.00    +0.000 C 
ATOM     24  O   UNL     1      -0.749  14.810  24.382  0.00  0.00    +0.000 OA
BRANCH  23  25
ATOM     25  O   UNL     1      -1.719  15.883  22.613  0.00  0.00    +0.000 OA
ATOM     26  C   UNL     1      -1.310  17.224  22.905  0.00  0.00    +0.000 C 
ENDBRANCH  23  25
ENDBRANCH  17  23
BRANCH   1  27
ATOM     27  C   UNL     1      -0.152  15.497  19.635  0.00  0.00    +0.000 C 
BRANCH  27  29
ATOM     28  C   UNL     1      -0.844  17.427  18.151  0.00  0.00    +0.000 C 
ATOM     29  C   UNL     1      -1.077  16.580  19.166  0.00  0.00    +0.000 C 
ENDBRANCH  27  29
ENDBRANCH   1  27
BRANCH  13  30
ATOM     30  C   UNL     1      -4.658  13.215  23.762  0.00  0.00    +0.000 C 
BRANCH  30  31
ATOM     31  C   UNL     1      -4.655  14.699  23.837  0.00  0.00    +0.000 A 
ATOM     32  C   UNL     1      -5.336  15.674  23.131  0.00  0.00    +0.000 A 
ATOM     33  C   UNL     1      -5.130  16.888  23.823  0.00  0.00    +0.000 A 
ATOM     34  C   UNL     1      -4.318  16.582  24.889  0.00  0.00    +0.000 A 
ATOM     35  O   UNL     1      -4.020  15.257  24.904  0.00  0.00    +0.000 OA
ENDBRANCH  30  31
ENDBRANCH  13  30
TORSDOF 8
ENDMDL
MODEL 2
REMARK VINA RESULT:      -5.5      2.903      6.257
REMARK  Name = 
REMARK  10 active torsions:
REMARK  status: ('A' for Active; 'I' for Inactive)
REMARK    1  A    between atoms: C_2  and  C_3
REMARK    2  A    between atoms: C_3  and  N_4
REMARK    3  A    between atoms: N_16  and  C_17
REMARK    4  A    between atoms: C_17  and  C_18
REMARK    5  A    between atoms: C_25  and  C_26
REMARK    6  A    between atoms: C_26  and  O_28
REMARK    7  A    between atoms: O_28  and  C_29
REMARK    8  A    between atoms: C_30  and  C_31
REMARK    9  A    between atoms: C_31  and  O_33
REMARK   10  A    between atoms: O_33  and  C_34
REMARK                            x       y       z     vdW  Elec       q    Type
REMARK                         _______ _______ _______ _____ _____    ______ ____
ROOT
ATOM      1  N   UNL     1      -1.926  12.218  19.230  0.00  0.00    +0.000 N 
ATOM      2  C   UNL     1      -2.773  13.063  19.933  0.00  0.00    +0.000 A 
ATOM      3  C   UNL     1      -4.140  12.919  20.110  0.00  0.00    +0.000 A 
ATOM      4  C   UNL     1      -4.823  13.883  20.843  0.00  0.00    +0.000 A 
ATOM      5  C   UNL     1      -4.136  14.999  21.349  0.00  0.00    +0.000 A 
ATOM      6  C   UNL     1      -2.751  15.154  21.163  0.00  0.00    +0.000 A 
ATOM      7  C   UNL     1      -2.058  14.164  20.492  0.00  0.00    +0.000 A 
ATOM      8  C   UNL     1      -0.568  14.047  20.105  0.00  0.00    +0.000 C 
ATOM      9  C   UNL     1      -0.375  15.019  18.935  0.00  0.00    +0.000 C 
ATOM     10  C   UNL     1       1.037  15.063  18.411  0.00  0.00    +0.000 C 
ATOM     11  C   UNL     1       2.024  15.370  19.501  0.00  0.00    +0.000 C 
ATOM     12  O   UNL     1       2.971  16.127  19.310  0.00  0.00    +0.000 OA
ATOM     13  N   UNL     1       1.876  14.590  20.637  0.00  0.00    +0.000 N 
ATOM     14  C   UNL     1       0.662  14.063  21.058  0.00  0.00    +0.000 C 
ATOM     15  N   UNL     1       0.753  13.327  22.118  0.00  0.00    +0.000 NA
ATOM     16  C   UNL     1      -0.296  12.458  22.283  0.00  0.00    +0.000 C 
ATOM     17  C   UNL     1      -0.511  11.681  21.182  0.00  0.00    +0.000 C 
ATOM     18  C   UNL     1      -0.617  12.491  19.816  0.00  0.00    +0.000 C 
ENDROOT
BRANCH  16  19
ATOM     19  C   UNL     1      -1.366  13.008  23.241  0.00  0.00    +0.000 C 
ATOM     20  O   UNL     1      -1.303  14.027  23.903  0.00  0.00    +0.000 OA
BRANCH  19  21
ATOM     21  O   UNL     1      -2.388  12.095  23.235  0.00  0.00    +0.000 OA
ATOM     22  C   UNL     1      -3.613  12.291  23.945  0.00  0.00    +0.000 C 
ENDBRANCH  19  21
ENDBRANCH  16  19
BRANCH  17  23
ATOM     23  C   UNL     1       0.620  10.682  21.027  0.00  0.00    +0.000 C 
ATOM     24  O   UNL     1       1.109  10.017  21.928  0.00  0.00    +0.000 OA
BRANCH  23  25
ATOM     25  O   UNL     1       1.064  10.690  19.744  0.00  0.00    +0.000 OA
ATOM     26  C   UNL     1       1.281   9.434  19.090  0.00  0.00    +0.000 C 
ENDBRANCH  23  25
ENDBRANCH  17  23
BRANCH   1  27
ATOM     27  C   UNL     1      -2.273  10.922  18.687  0.00  0.00    +0.000 C 
BRANCH  27  29
ATOM     28  C   UNL     1      -2.481  10.200  16.271  0.00  0.00    +0.000 C 
ATOM     29  C   UNL     1      -2.595  11.124  17.237  0.00  0.00    +0.000 C 
ENDBRANCH  27  29
ENDBRANCH   1  27
BRANCH  13  30
ATOM     30  C   UNL     1       3.098  13.833  20.973  0.00  0.00    +0.000 C 
BRANCH  30  31
ATOM     31  C   UNL     1       4.108  14.492  21.842  0.00  0.00    +0.000 A 
ATOM     32  C   UNL     1       5.384  14.968  21.600  0.00  0.00    +0.000 A 
ATOM     33  C   UNL     1       5.749  15.728  22.733  0.00  0.00    +0.000 A 
ATOM     34  C   UNL     1       4.687  15.646  23.602  0.00  0.00    +0.000 A 
ATOM     35  O   UNL     1       3.688  14.894  23.072  0.00  0.00    +0.000 OA
ENDBRANCH  30  31
ENDBRANCH  13  30
TORSDOF 8
ENDMDL
MODEL 3
REMARK VINA RESULT:      -5.5      2.901      6.319
REMARK  Name = 
REMARK  10 active torsions:
REMARK  status: ('A' for Active; 'I' for Inactive)
REMARK    1  A    between atoms: C_2  and  C_3
REMARK    2  A    between atoms: C_3  and  N_4
REMARK    3  A    between atoms: N_16  and  C_17
REMARK    4  A    between atoms: C_17  and  C_18
REMARK    5  A    between atoms: C_25  and  C_26
REMARK    6  A    between atoms: C_26  and  O_28
REMARK    7  A    between atoms: O_28  and  C_29
REMARK    8  A    between atoms: C_30  and  C_31
REMARK    9  A    between atoms: C_31  and  O_33
REMARK   10  A    between atoms: O_33  and  C_34
REMARK                            x       y       z     vdW  Elec       q    Type
REMARK                         _______ _______ _______ _____ _____    ______ ____
ROOT
ATOM      1  N   UNL     1      -1.965  12.020  18.917  0.00  0.00    +0.000 N 
ATOM      2  C   UNL     1      -2.837  12.737  19.725  0.00  0.00    +0.000 A 
ATOM      3  C   UNL     1      -4.190  12.500  19.911  0.00  0.00    +0.000 A 
ATOM      4  C   UNL     1      -4.904  13.340  20.757  0.00  0.00    +0.000 A 
ATOM      5  C   UNL     1      -4.264  14.430  21.370  0.00  0.00    +0.000 A 
ATOM      6  C   UNL     1      -2.894  14.680  21.176  0.00  0.00    +0.000 A 
ATOM      7  C   UNL     1      -2.167  13.808  20.388  0.00  0.00    +0.000 A 
ATOM      8  C   UNL     1      -0.683  13.815  19.962  0.00  0.00    +0.000 C 
ATOM      9  C   UNL     1      -0.570  14.918  18.903  0.00  0.00    +0.000 C 
ATOM     10  C   UNL     1       0.825  15.095  18.361  0.00  0.00    +0.000 C 
ATOM     11  C   UNL     1       1.821  15.336  19.459  0.00  0.00    +0.000 C 
ATOM     12  O   UNL     1       2.722  16.159  19.334  0.00  0.00    +0.000 OA
ATOM     13  N   UNL     1       1.742  14.430  20.505  0.00  0.00    +0.000 N 
ATOM     14  C   UNL     1       0.567  13.794  20.888  0.00  0.00    +0.000 C 
ATOM     15  N   UNL     1       0.723  12.953  21.859  0.00  0.00    +0.000 NA
ATOM     16  C   UNL     1      -0.274  12.016  21.947  0.00  0.00    +0.000 C 
ATOM     17  C   UNL     1      -0.476  11.353  20.772  0.00  0.00    +0.000 C 
ATOM     18  C   UNL     1      -0.657  12.300  19.505  0.00  0.00    +0.000 C 
ENDROOT
BRANCH  16  19
ATOM     19  C   UNL     1      -1.349  12.399  22.979  0.00  0.00    +0.000 C 
ATOM     20  O   UNL     1      -2.445  11.889  23.119  0.00  0.00    +0.000 OA
BRANCH  19  21
ATOM     21  O   UNL     1      -0.843  13.462  23.680  0.00  0.00    +0.000 OA
ATOM     22  C   UNL     1      -1.666  14.467  24.277  0.00  0.00    +0.000 C 
ENDBRANCH  19  21
ENDBRANCH  16  19
BRANCH  17  23
ATOM     23  C   UNL     1       0.701  10.439  20.487  0.00  0.00    +0.000 C 
ATOM     24  O   UNL     1       1.325  10.390  19.438  0.00  0.00    +0.000 OA
BRANCH  23  25
ATOM     25  O   UNL     1       0.915   9.624  21.551  0.00  0.00    +0.000 OA
ATOM     26  C   UNL     1       1.233   8.250  21.304  0.00  0.00    +0.000 C 
ENDBRANCH  23  25
ENDBRANCH  17  23
BRANCH   1  27
ATOM     27  C   UNL     1      -2.257  10.774  18.242  0.00  0.00    +0.000 C 
BRANCH  27  29
ATOM     28  C   UNL     1      -2.896  10.253  15.849  0.00  0.00    +0.000 C 
ATOM     29  C   UNL     1      -2.430  11.092  16.787  0.00  0.00    +0.000 C 
ENDBRANCH  27  29
ENDBRANCH   1  27
BRANCH  13  30
ATOM     30  C   UNL     1       3.009  13.709  20.733  0.00  0.00    +0.000 C 
BRANCH  30  31
ATOM     31  C   UNL     1       4.010  14.329  21.640  0.00  0.00    +0.000 A 
ATOM     32  C   UNL     1       5.323  14.723  21.458  0.00  0.00    +0.000 A 
ATOM     33  C   UNL     1       5.673  15.489  22.591  0.00  0.00    +0.000 A 
ATOM     34  C   UNL     1       4.563  15.492  23.402  0.00  0.00    +0.000 A 
ATOM     35  O   UNL     1       3.550  14.787  22.836  0.00  0.00    +0.000 OA
ENDBRANCH  30  31
ENDBRANCH  13  30
TORSDOF 8
ENDMDL
MODEL 4
REMARK VINA RESULT:      -5.4      2.503      4.284
REMARK  Name = 
REMARK  10 active torsions:
REMARK  status: ('A' for Active; 'I' for Inactive)
REMARK    1  A    between atoms: C_2  and  C_3
REMARK    2  A    between atoms: C_3  and  N_4
REMARK    3  A    between atoms: N_16  and  C_17
REMARK    4  A    between atoms: C_17  and  C_18
REMARK    5  A    between atoms: C_25  and  C_26
REMARK    6  A    between atoms: C_26  and  O_28
REMARK    7  A    between atoms: O_28  and  C_29
REMARK    8  A    between atoms: C_30  and  C_31
REMARK    9  A    between atoms: C_31  and  O_33
REMARK   10  A    between atoms: O_33  and  C_34
REMARK                            x       y       z     vdW  Elec       q    Type
REMARK                         _______ _______ _______ _____ _____    ______ ____
ROOT
ATOM      1  N   UNL     1      -0.042  16.316  19.163  0.00  0.00    +0.000 N 
ATOM      2  C   UNL     1       1.247  16.113  18.691  0.00  0.00    +0.000 A 
ATOM      3  C   UNL     1       2.118  17.074  18.200  0.00  0.00    +0.000 A 
ATOM      4  C   UNL     1       3.374  16.672  17.760  0.00  0.00    +0.000 A 
ATOM      5  C   UNL     1       3.723  15.312  17.777  0.00  0.00    +0.000 A 
ATOM      6  C   UNL     1       2.840  14.333  18.265  0.00  0.00    +0.000 A 
ATOM      7  C   UNL     1       1.616  14.737  18.765  0.00  0.00    +0.000 A 
ATOM      8  C   UNL     1       0.431  13.928  19.336  0.00  0.00    +0.000 C 
ATOM      9  C   UNL     1      -0.242  13.280  18.121  0.00  0.00    +0.000 C 
ATOM     10  C   UNL     1      -1.432  12.425  18.473  0.00  0.00    +0.000 C 
ATOM     11  C   UNL     1      -1.079  11.372  19.485  0.00  0.00    +0.000 C 
ATOM     12  O   UNL     1      -1.520  10.230  19.398  0.00  0.00    +0.000 OA
ATOM     13  N   UNL     1      -0.394  11.854  20.589  0.00  0.00    +0.000 N 
ATOM     14  C   UNL     1       0.447  12.959  20.554  0.00  0.00    +0.000 C 
ATOM     15  N   UNL     1       0.953  13.266  21.705  0.00  0.00    +0.000 NA
ATOM     16  C   UNL     1       1.395  14.562  21.789  0.00  0.00    +0.000 C 
ATOM     17  C   UNL     1       0.439  15.467  21.433  0.00  0.00    +0.000 C 
ATOM     18  C   UNL     1      -0.264  15.166  20.036  0.00  0.00    +0.000 C 
ENDROOT
BRANCH  16  19
ATOM     19  C   UNL     1       2.908  14.680  21.539  0.00  0.00    +0.000 C 
ATOM     20  O   UNL     1       3.714  13.770  21.476  0.00  0.00    +0.000 OA
BRANCH  19  21
ATOM     21  O   UNL     1       3.176  16.021  21.447  0.00  0.00    +0.000 OA
ATOM     22  C   UNL     1       4.497  16.544  21.291  0.00  0.00    +0.000 C 
ENDBRANCH  19  21
ENDBRANCH  16  19
BRANCH  17  23
ATOM     23  C   UNL     1      -0.652  15.506  22.487  0.00  0.00    +0.000 C 
ATOM     24  O   UNL     1      -1.848  15.620  22.268  0.00  0.00    +0.000 OA
BRANCH  23  25
ATOM     25  O   UNL     1      -0.093  15.473  23.724  0.00  0.00    +0.000 OA
ATOM     26  C   UNL     1      -0.156  16.653  24.532  0.00  0.00    +0.000 C 
ENDBRANCH  23  25
ENDBRANCH  17  23
BRANCH   1  27
ATOM     27  C   UNL     1      -0.673  17.597  19.399  0.00  0.00    +0.000 C 
BRANCH  27  29
ATOM     28  C   UNL     1      -3.154  17.845  19.830  0.00  0.00    +0.000 C 
ATOM     29  C   UNL     1      -2.126  17.439  19.068  0.00  0.00    +0.000 C 
ENDBRANCH  27  29
ENDBRANCH   1  27
BRANCH  13  30
ATOM     30  C   UNL     1      -1.089  11.570  21.860  0.00  0.00    +0.000 C 
BRANCH  30  31
ATOM     31  C   UNL     1      -2.350  12.305  22.143  0.00  0.00    +0.000 A 
ATOM     32  C   UNL     1      -3.416  12.679  21.345  0.00  0.00    +0.000 A 
ATOM     33  C   UNL     1      -4.437  13.113  22.219  0.00  0.00    +0.000 A 
ATOM     34  C   UNL     1      -3.922  13.001  23.488  0.00  0.00    +0.000 A 
ATOM     35  O   UNL     1      -2.653  12.516  23.453  0.00  0.00    +0.000 OA
ENDBRANCH  30  31
ENDBRANCH  13  30
TORSDOF 8
ENDMDL
MODEL 5
REMARK VINA RESULT:      -5.4      2.003      6.300
REMARK  Name = 
REMARK  10 active torsions:
REMARK  status: ('A' for Active; 'I' for Inactive)
REMARK    1  A    between atoms: C_2  and  C_3
REMARK    2  A    between atoms: C_3  and  N_4
REMARK    3  A    between atoms: N_16  and  C_17
REMARK    4  A    between atoms: C_17  and  C_18
REMARK    5  A    between atoms: C_25  and  C_26
REMARK    6  A    between atoms: C_26  and  O_28
REMARK    7  A    between atoms: O_28  and  C_29
REMARK    8  A    between atoms: C_30  and  C_31
REMARK    9  A    between atoms: C_31  and  O_33
REMARK   10  A    between atoms: O_33  and  C_34
REMARK                            x       y       z     vdW  Elec       q    Type
REMARK                         _______ _______ _______ _____ _____    ______ ____
ROOT
ATOM      1  N   UNL     1      -4.699  15.992  21.044  0.00  0.00    +0.000 N 
ATOM      2  C   UNL     1      -4.690  16.299  22.398  0.00  0.00    +0.000 A 
ATOM      3  C   UNL     1      -5.605  17.083  23.083  0.00  0.00    +0.000 A 
ATOM      4  C   UNL     1      -5.421  17.287  24.445  0.00  0.00    +0.000 A 
ATOM      5  C   UNL     1      -4.301  16.740  25.092  0.00  0.00    +0.000 A 
ATOM      6  C   UNL     1      -3.365  15.953  24.400  0.00  0.00    +0.000 A 
ATOM      7  C   UNL     1      -3.581  15.693  23.059  0.00  0.00    +0.000 A 
ATOM      8  C   UNL     1      -2.747  14.905  22.026  0.00  0.00    +0.000 C 
ATOM      9  C   UNL     1      -1.555  15.809  21.692  0.00  0.00    +0.000 C 
ATOM     10  C   UNL     1      -0.599  15.206  20.695  0.00  0.00    +0.000 C 
ATOM     11  C   UNL     1      -0.111  13.857  21.139  0.00  0.00    +0.000 C 
ATOM     12  O   UNL     1       1.060  13.521  20.988  0.00  0.00    +0.000 OA
ATOM     13  N   UNL     1      -1.117  12.992  21.537  0.00  0.00    +0.000 N 
ATOM     14  C   UNL     1      -2.318  13.411  22.098  0.00  0.00    +0.000 C 
ATOM     15  N   UNL     1      -3.138  12.444  22.357  0.00  0.00    +0.000 NA
ATOM     16  C   UNL     1      -4.445  12.841  22.474  0.00  0.00    +0.000 C 
ATOM     17  C   UNL     1      -4.876  13.553  21.392  0.00  0.00    +0.000 C 
ATOM     18  C   UNL     1      -3.922  14.757  20.975  0.00  0.00    +0.000 C 
ENDROOT
BRANCH  16  19
ATOM     19  C   UNL     1      -4.863  13.056  23.938  0.00  0.00    +0.000 C 
ATOM     20  O   UNL     1      -4.208  12.800  24.933  0.00  0.00    +0.000 OA
BRANCH  19  21
ATOM     21  O   UNL     1      -6.139  13.552  23.903  0.00  0.00    +0.000 OA
ATOM     22  C   UNL     1      -7.301  12.723  23.972  0.00  0.00    +0.000 C 
ENDBRANCH  19  21
ENDBRANCH  16  19
BRANCH  17  23
ATOM     23  C   UNL     1      -4.999  12.638  20.189  0.00  0.00    +0.000 C 
ATOM     24  O   UNL     1      -4.221  12.591  19.249  0.00  0.00    +0.000 OA
BRANCH  23  25
ATOM     25  O   UNL     1      -6.152  11.926  20.273  0.00  0.00    +0.000 OA
ATOM     26  C   UNL     1      -7.396  12.629  20.181  0.00  0.00    +0.000 C 
ENDBRANCH  23  25
ENDBRANCH  17  23
BRANCH   1  27
ATOM     27  C   UNL     1      -5.764  16.286  20.109  0.00  0.00    +0.000 C 
BRANCH  27  29
ATOM     28  C   UNL     1      -4.241  18.043  19.110  0.00  0.00    +0.000 C 
ATOM     29  C   UNL     1      -5.454  17.618  19.494  0.00  0.00    +0.000 C 
ENDBRANCH  27  29
ENDBRANCH   1  27
BRANCH  13  30
ATOM     30  C   UNL     1      -1.134  11.738  20.759  0.00  0.00    +0.000 C 
BRANCH  30  31
ATOM     31  C   UNL     1      -0.484  10.541  21.354  0.00  0.00    +0.000 A 
ATOM     32  C   UNL     1      -0.030   9.353  20.810  0.00  0.00    +0.000 A 
ATOM     33  C   UNL     1       0.734   8.719  21.814  0.00  0.00    +0.000 A 
ATOM     34  C   UNL     1       0.677   9.545  22.911  0.00  0.00    +0.000 A 
ATOM     35  O   UNL     1      -0.063  10.651  22.644  0.00  0.00    +0.000 OA
ENDBRANCH  30  31
ENDBRANCH  13  30
TORSDOF 8
ENDMDL
MODEL 6
REMARK VINA RESULT:      -5.3      2.615      4.249
REMARK  Name = 
REMARK  10 active torsions:
REMARK  status: ('A' for Active; 'I' for Inactive)
REMARK    1  A    between atoms: C_2  and  C_3
REMARK    2  A    between atoms: C_3  and  N_4
REMARK    3  A    between atoms: N_16  and  C_17
REMARK    4  A    between atoms: C_17  and  C_18
REMARK    5  A    between atoms: C_25  and  C_26
REMARK    6  A    between atoms: C_26  and  O_28
REMARK    7  A    between atoms: O_28  and  C_29
REMARK    8  A    between atoms: C_30  and  C_31
REMARK    9  A    between atoms: C_31  and  O_33
REMARK   10  A    between atoms: O_33  and  C_34
REMARK                            x       y       z     vdW  Elec       q    Type
REMARK                         _______ _______ _______ _____ _____    ______ ____
ROOT
ATOM      1  N   UNL     1       0.062  16.436  19.191  0.00  0.00    +0.000 N 
ATOM      2  C   UNL     1       1.325  16.251  18.646  0.00  0.00    +0.000 A 
ATOM      3  C   UNL     1       2.121  17.207  18.036  0.00  0.00    +0.000 A 
ATOM      4  C   UNL     1       3.361  16.825  17.539  0.00  0.00    +0.000 A 
ATOM      5  C   UNL     1       3.768  15.483  17.620  0.00  0.00    +0.000 A 
ATOM      6  C   UNL     1       2.960  14.507  18.230  0.00  0.00    +0.000 A 
ATOM      7  C   UNL     1       1.755  14.897  18.784  0.00  0.00    +0.000 A 
ATOM      8  C   UNL     1       0.645  14.085  19.486  0.00  0.00    +0.000 C 
ATOM      9  C   UNL     1      -0.078  13.331  18.364  0.00  0.00    +0.000 C 
ATOM     10  C   UNL     1      -1.205  12.458  18.851  0.00  0.00    +0.000 C 
ATOM     11  C   UNL     1      -0.743  11.490  19.903  0.00  0.00    +0.000 C 
ATOM     12  O   UNL     1      -1.141  10.329  19.921  0.00  0.00    +0.000 OA
ATOM     13  N   UNL     1      -0.009  12.070  20.924  0.00  0.00    +0.000 N 
ATOM     14  C   UNL     1       0.782  13.202  20.760  0.00  0.00    +0.000 C 
ATOM     15  N   UNL     1       1.348  13.605  21.852  0.00  0.00    +0.000 NA
ATOM     16  C   UNL     1       1.740  14.919  21.821  0.00  0.00    +0.000 C 
ATOM     17  C   UNL     1       0.725  15.761  21.473  0.00  0.00    +0.000 C 
ATOM     18  C   UNL     1      -0.054  15.341  20.150  0.00  0.00    +0.000 C 
ENDROOT
BRANCH  16  19
ATOM     19  C   UNL     1       3.227  15.077  21.462  0.00  0.00    +0.000 C 
ATOM     20  O   UNL     1       3.775  16.077  21.034  0.00  0.00    +0.000 OA
BRANCH  19  21
ATOM     21  O   UNL     1       3.804  13.853  21.676  0.00  0.00    +0.000 OA
ATOM     22  C   UNL     1       5.056  13.688  22.346  0.00  0.00    +0.000 C 
ENDBRANCH  19  21
ENDBRANCH  16  19
BRANCH  17  23
ATOM     23  C   UNL     1      -0.295  15.831  22.593  0.00  0.00    +0.000 C 
ATOM     24  O   UNL     1      -0.045  15.768  23.787  0.00  0.00    +0.000 OA
BRANCH  23  25
ATOM     25  O   UNL     1      -1.546  15.897  22.069  0.00  0.00    +0.000 OA
ATOM     26  C   UNL     1      -2.476  16.824  22.640  0.00  0.00    +0.000 C 
ENDBRANCH  23  25
ENDBRANCH  17  23
BRANCH   1  27
ATOM     27  C   UNL     1      -0.605  17.705  19.385  0.00  0.00    +0.000 C 
BRANCH  27  29
ATOM     28  C   UNL     1      -2.999  18.450  19.038  0.00  0.00    +0.000 C 
ATOM     29  C   UNL     1      -2.033  17.521  18.967  0.00  0.00    +0.000 C 
ENDBRANCH  27  29
ENDBRANCH   1  27
BRANCH  13  30
ATOM     30  C   UNL     1      -0.607  11.848  22.255  0.00  0.00    +0.000 C 
BRANCH  30  31
ATOM     31  C   UNL     1      -1.884  12.540  22.569  0.00  0.00    +0.000 A 
ATOM     32  C   UNL     1      -3.095  12.619  21.905  0.00  0.00    +0.000 A 
ATOM     33  C   UNL     1      -4.013  13.190  22.813  0.00  0.00    +0.000 A 
ATOM     34  C   UNL     1      -3.301  13.446  23.960  0.00  0.00    +0.000 A 
ATOM     35  O   UNL     1      -2.007  13.059  23.821  0.00  0.00    +0.000 OA
ENDBRANCH  30  31
ENDBRANCH  13  30
TORSDOF 8
ENDMDL
MODEL 7
REMARK VINA RESULT:      -5.3      2.183      6.538
REMARK  Name = 
REMARK  10 active torsions:
REMARK  status: ('A' for Active; 'I' for Inactive)
REMARK    1  A    between atoms: C_2  and  C_3
REMARK    2  A    between atoms: C_3  and  N_4
REMARK    3  A    between atoms: N_16  and  C_17
REMARK    4  A    between atoms: C_17  and  C_18
REMARK    5  A    between atoms: C_25  and  C_26
REMARK    6  A    between atoms: C_26  and  O_28
REMARK    7  A    between atoms: O_28  and  C_29
REMARK    8  A    between atoms: C_30  and  C_31
REMARK    9  A    between atoms: C_31  and  O_33
REMARK   10  A    between atoms: O_33  and  C_34
REMARK                            x       y       z     vdW  Elec       q    Type
REMARK                         _______ _______ _______ _____ _____    ______ ____
ROOT
ATOM      1  N   UNL     1      -5.779  15.590  20.302  0.00  0.00    +0.000 N 
ATOM      2  C   UNL     1      -5.912  16.062  21.600  0.00  0.00    +0.000 A 
ATOM      3  C   UNL     1      -6.972  16.786  22.122  0.00  0.00    +0.000 A 
ATOM      4  C   UNL     1      -6.918  17.182  23.453  0.00  0.00    +0.000 A 
ATOM      5  C   UNL     1      -5.786  16.886  24.229  0.00  0.00    +0.000 A 
ATOM      6  C   UNL     1      -4.704  16.159  23.702  0.00  0.00    +0.000 A 
ATOM      7  C   UNL     1      -4.783  15.707  22.398  0.00  0.00    +0.000 A 
ATOM      8  C   UNL     1      -3.777  14.923  21.528  0.00  0.00    +0.000 C 
ATOM      9  C   UNL     1      -2.695  15.939  21.144  0.00  0.00    +0.000 C 
ATOM     10  C   UNL     1      -1.596  15.359  20.291  0.00  0.00    +0.000 C 
ATOM     11  C   UNL     1      -0.966  14.160  20.938  0.00  0.00    +0.000 C 
ATOM     12  O   UNL     1       0.248  13.977  20.900  0.00  0.00    +0.000 OA
ATOM     13  N   UNL     1      -1.874  13.216  21.391  0.00  0.00    +0.000 N 
ATOM     14  C   UNL     1      -3.158  13.527  21.823  0.00  0.00    +0.000 C 
ATOM     15  N   UNL     1      -3.858  12.493  22.163  0.00  0.00    +0.000 NA
ATOM     16  C   UNL     1      -5.212  12.710  22.152  0.00  0.00    +0.000 C 
ATOM     17  C   UNL     1      -5.652  13.213  20.962  0.00  0.00    +0.000 C 
ATOM     18  C   UNL     1      -4.840  14.479  20.442  0.00  0.00    +0.000 C 
ENDROOT
BRANCH  16  19
ATOM     19  C   UNL     1      -5.762  13.045  23.549  0.00  0.00    +0.000 C 
ATOM     20  O   UNL     1      -5.174  12.949  24.610  0.00  0.00    +0.000 OA
BRANCH  19  21
ATOM     21  O   UNL     1      -7.064  13.428  23.364  0.00  0.00    +0.000 OA
ATOM     22  C   UNL     1      -7.915  13.841  24.436  0.00  0.00    +0.000 C 
ENDBRANCH  19  21
ENDBRANCH  16  19
BRANCH  17  23
ATOM     23  C   UNL     1      -5.562  12.147  19.887  0.00  0.00    +0.000 C 
ATOM     24  O   UNL     1      -6.174  11.090  19.882  0.00  0.00    +0.000 OA
BRANCH  23  25
ATOM     25  O   UNL     1      -4.637  12.509  18.962  0.00  0.00    +0.000 OA
ATOM     26  C   UNL     1      -4.250  11.548  17.973  0.00  0.00    +0.000 C 
ENDBRANCH  23  25
ENDBRANCH  17  23
BRANCH   1  27
ATOM     27  C   UNL     1      -6.801  15.611  19.277  0.00  0.00    +0.000 C 
BRANCH  27  29
ATOM     28  C   UNL     1      -6.914  16.881  17.091  0.00  0.00    +0.000 C 
ATOM     29  C   UNL     1      -6.475  16.744  18.353  0.00  0.00    +0.000 C 
ENDBRANCH  27  29
ENDBRANCH   1  27
BRANCH  13  30
ATOM     30  C   UNL     1      -1.664  11.886  20.789  0.00  0.00    +0.000 C 
BRANCH  30  31
ATOM     31  C   UNL     1      -0.888  10.884  21.565  0.00  0.00    +0.000 A 
ATOM     32  C   UNL     1      -0.739  10.660  22.922  0.00  0.00    +0.000 A 
ATOM     33  C   UNL     1      -0.099   9.408  23.054  0.00  0.00    +0.000 A 
ATOM     34  C   UNL     1       0.125   8.961  21.774  0.00  0.00    +0.000 A 
ATOM     35  O   UNL     1      -0.346   9.852  20.863  0.00  0.00    +0.000 OA
ENDBRANCH  30  31
ENDBRANCH  13  30
TORSDOF 8
ENDMDL
MODEL 8
REMARK VINA RESULT:      -5.3      0.741      1.018
REMARK  Name = 
REMARK  10 active torsions:
REMARK  status: ('A' for Active; 'I' for Inactive)
REMARK    1  A    between atoms: C_2  and  C_3
REMARK    2  A    between atoms: C_3  and  N_4
REMARK    3  A    between atoms: N_16  and  C_17
REMARK    4  A    between atoms: C_17  and  C_18
REMARK    5  A    between atoms: C_25  and  C_26
REMARK    6  A    between atoms: C_26  and  O_28
REMARK    7  A    between atoms: O_28  and  C_29
REMARK    8  A    between atoms: C_30  and  C_31
REMARK    9  A    between atoms: C_31  and  O_33
REMARK   10  A    between atoms: O_33  and  C_34
REMARK                            x       y       z     vdW  Elec       q    Type
REMARK                         _______ _______ _______ _____ _____    ______ ____
ROOT
ATOM      1  N   UNL     1      -0.927  14.179  19.594  0.00  0.00    +0.000 N 
ATOM      2  C   UNL     1      -0.542  12.888  19.261  0.00  0.00    +0.000 A 
ATOM      3  C   UNL     1       0.574  12.511  18.529  0.00  0.00    +0.000 A 
ATOM      4  C   UNL     1       0.787  11.159  18.288  0.00  0.00    +0.000 A 
ATOM      5  C   UNL     1      -0.141  10.208  18.743  0.00  0.00    +0.000 A 
ATOM      6  C   UNL     1      -1.279  10.587  19.477  0.00  0.00    +0.000 A 
ATOM      7  C   UNL     1      -1.459  11.924  19.776  0.00  0.00    +0.000 A 
ATOM      8  C   UNL     1      -2.593  12.657  20.525  0.00  0.00    +0.000 C 
ATOM      9  C   UNL     1      -3.774  12.684  19.548  0.00  0.00    +0.000 C 
ATOM     10  C   UNL     1      -5.003  13.356  20.101  0.00  0.00    +0.000 C 
ATOM     11  C   UNL     1      -5.431  12.745  21.405  0.00  0.00    +0.000 C 
ATOM     12  O   UNL     1      -6.616  12.554  21.662  0.00  0.00    +0.000 OA
ATOM     13  N   UNL     1      -4.408  12.607  22.330  0.00  0.00    +0.000 N 
ATOM     14  C   UNL     1      -3.076  12.414  21.984  0.00  0.00    +0.000 C 
ATOM     15  N   UNL     1      -2.277  12.355  23.000  0.00  0.00    +0.000 NA
ATOM     16  C   UNL     1      -0.967  12.617  22.692  0.00  0.00    +0.000 C 
ATOM     17  C   UNL     1      -0.810  13.802  22.032  0.00  0.00    +0.000 C 
ATOM     18  C   UNL     1      -1.767  13.985  20.774  0.00  0.00    +0.000 C 
ENDROOT
BRANCH  16  19
ATOM     19  C   UNL     1      -0.147  11.334  22.478  0.00  0.00    +0.000 C 
ATOM     20  O   UNL     1       0.920  11.233  21.900  0.00  0.00    +0.000 OA
BRANCH  19  21
ATOM     21  O   UNL     1      -0.880  10.316  23.029  0.00  0.00    +0.000 OA
ATOM     22  C   UNL     1      -0.614   8.935  22.774  0.00  0.00    +0.000 C 
ENDBRANCH  19  21
ENDBRANCH  16  19
BRANCH  17  23
ATOM     23  C   UNL     1      -1.081  14.957  22.977  0.00  0.00    +0.000 C 
ATOM     24  O   UNL     1      -1.374  16.095  22.642  0.00  0.00    +0.000 OA
BRANCH  23  25
ATOM     25  O   UNL     1      -0.875  14.559  24.258  0.00  0.00    +0.000 OA
ATOM     26  C   UNL     1      -1.550  15.261  25.308  0.00  0.00    +0.000 C 
ENDBRANCH  23  25
ENDBRANCH  17  23
BRANCH   1  27
ATOM     27  C   UNL     1      -0.147  15.381  19.392  0.00  0.00    +0.000 C 
BRANCH  27  29
ATOM     28  C   UNL     1      -0.940  17.535  18.326  0.00  0.00    +0.000 C 
ATOM     29  C   UNL     1      -1.117  16.501  19.163  0.00  0.00    +0.000 C 
ENDBRANCH  27  29
ENDBRANCH   1  27
BRANCH  13  30
ATOM     30  C   UNL     1      -4.685  13.312  23.596  0.00  0.00    +0.000 C 
BRANCH  30  31
ATOM     31  C   UNL     1      -5.131  14.728  23.522  0.00  0.00    +0.000 A 
ATOM     32  C   UNL     1      -4.607  15.844  22.896  0.00  0.00    +0.000 A 
ATOM     33  C   UNL     1      -5.605  16.842  22.954  0.00  0.00    +0.000 A 
ATOM     34  C   UNL     1      -6.661  16.281  23.633  0.00  0.00    +0.000 A 
ATOM     35  O   UNL     1      -6.381  15.000  23.986  0.00  0.00    +0.000 OA
ENDBRANCH  30  31
ENDBRANCH  13  30
TORSDOF 8
ENDMDL
MODEL 9
REMARK VINA RESULT:      -5.2      2.178      4.754
REMARK  Name = 
REMARK  10 active torsions:
REMARK  status: ('A' for Active; 'I' for Inactive)
REMARK    1  A    between atoms: C_2  and  C_3
REMARK    2  A    between atoms: C_3  and  N_4
REMARK    3  A    between atoms: N_16  and  C_17
REMARK    4  A    between atoms: C_17  and  C_18
REMARK    5  A    between atoms: C_25  and  C_26
REMARK    6  A    between atoms: C_26  and  O_28
REMARK    7  A    between atoms: O_28  and  C_29
REMARK    8  A    between atoms: C_30  and  C_31
REMARK    9  A    between atoms: C_31  and  O_33
REMARK   10  A    between atoms: O_33  and  C_34
REMARK                            x       y       z     vdW  Elec       q    Type
REMARK                         _______ _______ _______ _____ _____    ______ ____
ROOT
ATOM      1  N   UNL     1      -0.690  16.199  22.468  0.00  0.00    +0.000 N 
ATOM      2  C   UNL     1      -0.194  16.537  21.217  0.00  0.00    +0.000 A 
ATOM      3  C   UNL     1       1.042  17.093  20.929  0.00  0.00    +0.000 A 
ATOM      4  C   UNL     1       1.356  17.373  19.604  0.00  0.00    +0.000 A 
ATOM      5  C   UNL     1       0.411  17.133  18.593  0.00  0.00    +0.000 A 
ATOM      6  C   UNL     1      -0.848  16.578  18.881  0.00  0.00    +0.000 A 
ATOM      7  C   UNL     1      -1.138  16.237  20.189  0.00  0.00    +0.000 A 
ATOM      8  C   UNL     1      -2.412  15.648  20.830  0.00  0.00    +0.000 C 
ATOM      9  C   UNL     1      -3.417  16.805  20.875  0.00  0.00    +0.000 C 
ATOM     10  C   UNL     1      -4.751  16.426  21.465  0.00  0.00    +0.000 C 
ATOM     11  C   UNL     1      -5.357  15.249  20.755  0.00  0.00    +0.000 C 
ATOM     12  O   UNL     1      -6.557  15.203  20.505  0.00  0.00    +0.000 OA
ATOM     13  N   UNL     1      -4.494  14.176  20.596  0.00  0.00    +0.000 N 
ATOM     14  C   UNL     1      -3.116  14.306  20.475  0.00  0.00    +0.000 C 
ATOM     15  N   UNL     1      -2.492  13.176  20.381  0.00  0.00    +0.000 NA
ATOM     16  C   UNL     1      -1.163  13.245  20.711  0.00  0.00    +0.000 C 
ATOM     17  C   UNL     1      -0.956  13.801  21.940  0.00  0.00    +0.000 C 
ATOM     18  C   UNL     1      -1.701  15.189  22.168  0.00  0.00    +0.000 C 
ENDROOT
BRANCH  16  19
ATOM     19  C   UNL     1      -0.260  13.393  19.475  0.00  0.00    +0.000 C 
ATOM     20  O   UNL     1      -0.604  13.356  18.307  0.00  0.00    +0.000 OA
BRANCH  19  21
ATOM     21  O   UNL     1       1.018  13.528  19.949  0.00  0.00    +0.000 OA
ATOM     22  C   UNL     1       2.136  13.822  19.108  0.00  0.00    +0.000 C 
ENDBRANCH  19  21
ENDBRANCH  16  19
BRANCH  17  23
ATOM     23  C   UNL     1      -1.433  12.850  23.022  0.00  0.00    +0.000 C 
ATOM     24  O   UNL     1      -2.423  13.007  23.719  0.00  0.00    +0.000 OA
BRANCH  23  25
ATOM     25  O   UNL     1      -0.548  11.829  23.155  0.00  0.00    +0.000 OA
ATOM     26  C   UNL     1      -1.049  10.488  23.151  0.00  0.00    +0.000 C 
ENDBRANCH  23  25
ENDBRANCH  17  23
BRANCH   1  27
ATOM     27  C   UNL     1       0.055  16.199  23.709  0.00  0.00    +0.000 C 
BRANCH  27  29
ATOM     28  C   UNL     1      -1.207  15.625  25.827  0.00  0.00    +0.000 C 
ATOM     29  C   UNL     1      -0.927  16.458  24.812  0.00  0.00    +0.000 C 
ENDBRANCH  27  29
ENDBRANCH   1  27
BRANCH  13  30
ATOM     30  C   UNL     1      -5.008  12.935  21.207  0.00  0.00    +0.000 C 
BRANCH  30  31
ATOM     31  C   UNL     1      -5.843  12.038  20.366  0.00  0.00    +0.000 A 
ATOM     32  C   UNL     1      -5.784  11.682  19.031  0.00  0.00    +0.000 A 
ATOM     33  C   UNL     1      -6.672  10.596  18.867  0.00  0.00    +0.000 A 
ATOM     34  C   UNL     1      -7.234  10.376  20.101  0.00  0.00    +0.000 A 
ATOM     35  O   UNL     1      -6.741  11.250  21.018  0.00  0.00    +0.000 OA
ENDBRANCH  30  31
ENDBRANCH  13  30
TORSDOF 8
ENDMDL
