MODEL 1
REMARK VINA RESULT:      -6.3      0.000      0.000
REMARK  Name = 
REMARK  6 active torsions:
REMARK  status: ('A' for Active; 'I' for Inactive)
REMARK    1  A    between atoms: C_1  and  C_2
REMARK    2  A    between atoms: C_2  and  O_3
REMARK    3  A    between atoms: O_3  and  C_4
REMARK    4  A    between atoms: C_10  and  C_12
REMARK    5  A    between atoms: C_12  and  S_13
REMARK    6  A    between atoms: S_13  and  C_14
REMARK                            x       y       z     vdW  Elec       q    Type
REMARK                         _______ _______ _______ _____ _____    ______ ____
ROOT
ATOM      1  C   UNL     1       1.344   8.749  20.106  0.00  0.00    +0.000 C 
ATOM      2  O   UNL     1       1.094   9.844  19.617  0.00  0.00    +0.000 OA
ATOM      3  N   UNL     1       2.032   7.753  19.446  0.00  0.00    +0.000 N 
ATOM      4  C   UNL     1       2.326   7.915  18.024  0.00  0.00    +0.000 C 
ATOM      5  C   UNL     1       3.744   7.454  17.695  0.00  0.00    +0.000 C 
ATOM      6  N   UNL     1       3.972   6.085  18.178  0.00  0.00    +0.000 N 
ATOM      7  C   UNL     1       4.509   5.153  17.300  0.00  0.00    +0.000 C 
ATOM      8  O   UNL     1       4.672   5.438  16.108  0.00  0.00    +0.000 OA
ATOM      9  C   UNL     1       3.711   5.904  19.612  0.00  0.00    +0.000 C 
ATOM     10  C   UNL     1       2.323   6.437  20.021  0.00  0.00    +0.000 C 
ENDROOT
BRANCH   1  11
ATOM     11  O   UNL     1       1.028   8.397  21.379  0.00  0.00    +0.000 OA
BRANCH  11  13
ATOM     12  C   UNL     1      -0.191   9.630  23.009  0.00  0.00    +0.000 C 
ATOM     13  C   UNL     1      -0.303   8.724  21.796  0.00  0.00    +0.000 C 
ENDBRANCH  11  13
ENDBRANCH   1  11
BRANCH   7  14
ATOM     14  C   UNL     1       4.820   3.751  17.822  0.00  0.00    +0.000 C 
BRANCH  14  15
ATOM     15  S   UNL     1       3.456   2.585  17.509  0.00  0.00    +0.000 S 
BRANCH  15  16
ATOM     16  C   UNL     1       2.652   2.697  19.087  0.00  0.00    +0.000 A 
ATOM     17  N   UNL     1       1.334   2.975  19.101  0.00  0.00    +0.000 NA
ATOM     18  C   UNL     1       0.762   3.073  20.314  0.00  0.00    +0.000 A 
ATOM     19  C   UNL     1       1.449   2.906  21.493  0.00  0.00    +0.000 A 
ATOM     20  C   UNL     1       2.783   2.609  21.365  0.00  0.00    +0.000 A 
ATOM     21  N   UNL     1       3.405   2.485  20.177  0.00  0.00    +0.000 NA
ENDBRANCH  15  16
ENDBRANCH  14  15
ENDBRANCH   7  14
TORSDOF 5
ENDMDL
MODEL 2
REMARK VINA RESULT:      -6.2      0.314      1.074
REMARK  Name = 
REMARK  6 active torsions:
REMARK  status: ('A' for Active; 'I' for Inactive)
REMARK    1  A    between atoms: C_1  and  C_2
REMARK    2  A    between atoms: C_2  and  O_3
REMARK    3  A    between atoms: O_3  and  C_4
REMARK    4  A    between atoms: C_10  and  C_12
REMARK    5  A    between atoms: C_12  and  S_13
REMARK    6  A    between atoms: S_13  and  C_14
REMARK                            x       y       z     vdW  Elec       q    Type
REMARK                         _______ _______ _______ _____ _____    ______ ____
ROOT
ATOM      1  C   UNL     1       1.413   8.911  19.680  0.00  0.00    +0.000 C 
ATOM      2  O   UNL     1       1.207   9.973  19.105  0.00  0.00    +0.000 OA
ATOM      3  N   UNL     1       2.107   7.859  19.122  0.00  0.00    +0.000 N 
ATOM      4  C   UNL     1       2.464   7.914  17.706  0.00  0.00    +0.000 C 
ATOM      5  C   UNL     1       3.885   7.406  17.474  0.00  0.00    +0.000 C 
ATOM      6  N   UNL     1       4.064   6.070  18.061  0.00  0.00    +0.000 N 
ATOM      7  C   UNL     1       4.617   5.068  17.274  0.00  0.00    +0.000 C 
ATOM      8  O   UNL     1       4.837   5.265  16.074  0.00  0.00    +0.000 OA
ATOM      9  C   UNL     1       3.738   5.996  19.491  0.00  0.00    +0.000 C 
ATOM     10  C   UNL     1       2.345   6.582  19.800  0.00  0.00    +0.000 C 
ENDROOT
BRANCH   1  11
ATOM     11  O   UNL     1       1.036   8.657  20.960  0.00  0.00    +0.000 OA
BRANCH  11  13
ATOM     12  C   UNL     1      -0.189   9.244  22.914  0.00  0.00    +0.000 C 
ATOM     13  C   UNL     1      -0.149   9.333  21.398  0.00  0.00    +0.000 C 
ENDBRANCH  11  13
ENDBRANCH   1  11
BRANCH   7  14
ATOM     14  C   UNL     1       4.876   3.702  17.907  0.00  0.00    +0.000 C 
BRANCH  14  15
ATOM     15  S   UNL     1       3.511   2.535  17.599  0.00  0.00    +0.000 S 
BRANCH  15  16
ATOM     16  C   UNL     1       2.655   2.724  19.142  0.00  0.00    +0.000 A 
ATOM     17  N   UNL     1       3.356   2.530  20.276  0.00  0.00    +0.000 NA
ATOM     18  C   UNL     1       2.671   2.661  21.425  0.00  0.00    +0.000 A 
ATOM     19  C   UNL     1       1.334   2.973  21.481  0.00  0.00    +0.000 A 
ATOM     20  C   UNL     1       0.719   3.166  20.268  0.00  0.00    +0.000 A 
ATOM     21  N   UNL     1       1.357   3.061  19.088  0.00  0.00    +0.000 NA
ENDBRANCH  15  16
ENDBRANCH  14  15
ENDBRANCH   7  14
TORSDOF 5
ENDMDL
MODEL 3
REMARK VINA RESULT:      -5.9      3.311      5.551
REMARK  Name = 
REMARK  6 active torsions:
REMARK  status: ('A' for Active; 'I' for Inactive)
REMARK    1  A    between atoms: C_1  and  C_2
REMARK    2  A    between atoms: C_2  and  O_3
REMARK    3  A    between atoms: O_3  and  C_4
REMARK    4  A    between atoms: C_10  and  C_12
REMARK    5  A    between atoms: C_12  and  S_13
REMARK    6  A    between atoms: S_13  and  C_14
REMARK                            x       y       z     vdW  Elec       q    Type
REMARK                         _______ _______ _______ _____ _____    ______ ____
ROOT
ATOM      1  C   UNL     1       1.674   3.053  19.131  0.00  0.00    +0.000 C 
ATOM      2  O   UNL     1       0.520   3.200  18.750  0.00  0.00    +0.000 OA
ATOM      3  N   UNL     1       2.733   3.816  18.686  0.00  0.00    +0.000 N 
ATOM      4  C   UNL     1       2.528   4.727  17.563  0.00  0.00    +0.000 C 
ATOM      5  C   UNL     1       3.225   6.065  17.801  0.00  0.00    +0.000 C 
ATOM      6  N   UNL     1       4.644   5.863  18.128  0.00  0.00    +0.000 N 
ATOM      7  C   UNL     1       5.595   6.597  17.432  0.00  0.00    +0.000 C 
ATOM      8  O   UNL     1       5.261   7.308  16.478  0.00  0.00    +0.000 OA
ATOM      9  C   UNL     1       4.874   4.972  19.273  0.00  0.00    +0.000 C 
ATOM     10  C   UNL     1       4.118   3.636  19.130  0.00  0.00    +0.000 C 
ENDROOT
BRANCH   1  11
ATOM     11  O   UNL     1       2.050   2.161  20.085  0.00  0.00    +0.000 OA
BRANCH  11  13
ATOM     12  C   UNL     1       2.193   3.626  21.955  0.00  0.00    +0.000 C 
ATOM     13  C   UNL     1       1.510   2.392  21.392  0.00  0.00    +0.000 C 
ENDBRANCH  11  13
ENDBRANCH   1  11
BRANCH   7  14
ATOM     14  C   UNL     1       7.064   6.447  17.825  0.00  0.00    +0.000 C 
BRANCH  14  15
ATOM     15  S   UNL     1       7.671   4.749  17.568  0.00  0.00    +0.000 S 
BRANCH  15  16
ATOM     16  C   UNL     1       7.090   4.514  15.908  0.00  0.00    +0.000 A 
ATOM     17  N   UNL     1       6.061   3.666  15.718  0.00  0.00    +0.000 NA
ATOM     18  C   UNL     1       5.660   3.496  14.446  0.00  0.00    +0.000 A 
ATOM     19  C   UNL     1       6.242   4.131  13.376  0.00  0.00    +0.000 A 
ATOM     20  C   UNL     1       7.272   4.987  13.682  0.00  0.00    +0.000 A 
ATOM     21  N   UNL     1       7.705   5.206  14.937  0.00  0.00    +0.000 NA
ENDBRANCH  15  16
ENDBRANCH  14  15
ENDBRANCH   7  14
TORSDOF 5
ENDMDL
MODEL 4
REMARK VINA RESULT:      -5.9      3.159      5.321
REMARK  Name = 
REMARK  6 active torsions:
REMARK  status: ('A' for Active; 'I' for Inactive)
REMARK    1  A    between atoms: C_1  and  C_2
REMARK    2  A    between atoms: C_2  and  O_3
REMARK    3  A    between atoms: O_3  and  C_4
REMARK    4  A    between atoms: C_10  and  C_12
REMARK    5  A    between atoms: C_12  and  S_13
REMARK    6  A    between atoms: S_13  and  C_14
REMARK                            x       y       z     vdW  Elec       q    Type
REMARK                         _______ _______ _______ _____ _____    ______ ____
ROOT
ATOM      1  C   UNL     1       7.223   6.436  17.160  0.00  0.00    +0.000 C 
ATOM      2  O   UNL     1       7.666   6.428  16.018  0.00  0.00    +0.000 OA
ATOM      3  N   UNL     1       6.224   5.595  17.603  0.00  0.00    +0.000 N 
ATOM      4  C   UNL     1       5.508   4.771  16.632  0.00  0.00    +0.000 C 
ATOM      5  C   UNL     1       5.280   3.359  17.165  0.00  0.00    +0.000 C 
ATOM      6  N   UNL     1       4.626   3.398  18.482  0.00  0.00    +0.000 N 
ATOM      7  C   UNL     1       3.501   2.610  18.687  0.00  0.00    +0.000 C 
ATOM      8  O   UNL     1       2.993   1.989  17.747  0.00  0.00    +0.000 OA
ATOM      9  C   UNL     1       5.343   4.198  19.483  0.00  0.00    +0.000 C 
ATOM     10  C   UNL     1       5.682   5.610  18.964  0.00  0.00    +0.000 C 
ENDROOT
BRANCH   1  11
ATOM     11  O   UNL     1       7.700   7.233  18.152  0.00  0.00    +0.000 OA
BRANCH  11  13
ATOM     12  C   UNL     1       8.815   9.232  18.805  0.00  0.00    +0.000 C 
ATOM     13  C   UNL     1       7.840   8.619  17.815  0.00  0.00    +0.000 C 
ENDBRANCH  11  13
ENDBRANCH   1  11
BRANCH   7  14
ATOM     14  C   UNL     1       2.867   2.590  20.077  0.00  0.00    +0.000 C 
BRANCH  14  15
ATOM     15  S   UNL     1       1.223   3.373  20.091  0.00  0.00    +0.000 S 
BRANCH  15  16
ATOM     16  C   UNL     1       1.704   4.996  19.558  0.00  0.00    +0.000 A 
ATOM     17  N   UNL     1       1.889   5.194  18.239  0.00  0.00    +0.000 NA
ATOM     18  C   UNL     1       2.274   6.429  17.873  0.00  0.00    +0.000 A 
ATOM     19  C   UNL     1       2.478   7.456  18.764  0.00  0.00    +0.000 A 
ATOM     20  C   UNL     1       2.245   7.152  20.083  0.00  0.00    +0.000 A 
ATOM     21  N   UNL     1       1.846   5.938  20.504  0.00  0.00    +0.000 NA
ENDBRANCH  15  16
ENDBRANCH  14  15
ENDBRANCH   7  14
TORSDOF 5
ENDMDL
MODEL 5
REMARK VINA RESULT:      -5.7      3.698      6.651
REMARK  Name = 
REMARK  6 active torsions:
REMARK  status: ('A' for Active; 'I' for Inactive)
REMARK    1  A    between atoms: C_1  and  C_2
REMARK    2  A    between atoms: C_2  and  O_3
REMARK    3  A    between atoms: O_3  and  C_4
REMARK    4  A    between atoms: C_10  and  C_12
REMARK    5  A    between atoms: C_12  and  S_13
REMARK    6  A    between atoms: S_13  and  C_14
REMARK                            x       y       z     vdW  Elec       q    Type
REMARK                         _______ _______ _______ _____ _____    ______ ____
ROOT
ATOM      1  C   UNL     1       6.157   4.004  13.271  0.00  0.00    +0.000 C 
ATOM      2  O   UNL     1       7.064   4.368  12.531  0.00  0.00    +0.000 OA
ATOM      3  N   UNL     1       6.132   4.244  14.628  0.00  0.00    +0.000 N 
ATOM      4  C   UNL     1       7.321   4.792  15.275  0.00  0.00    +0.000 C 
ATOM      5  C   UNL     1       6.952   5.867  16.294  0.00  0.00    +0.000 C 
ATOM      6  N   UNL     1       5.959   5.359  17.252  0.00  0.00    +0.000 N 
ATOM      7  C   UNL     1       6.197   5.529  18.609  0.00  0.00    +0.000 C 
ATOM      8  O   UNL     1       7.277   5.985  19.001  0.00  0.00    +0.000 OA
ATOM      9  C   UNL     1       4.740   4.829  16.625  0.00  0.00    +0.000 C 
ATOM     10  C   UNL     1       5.056   3.802  15.519  0.00  0.00    +0.000 C 
ENDROOT
BRANCH   1  11
ATOM     11  O   UNL     1       5.035   3.372  12.840  0.00  0.00    +0.000 OA
BRANCH  11  13
ATOM     12  C   UNL     1       3.777   3.230  10.825  0.00  0.00    +0.000 C 
ATOM     13  C   UNL     1       5.088   2.868  11.499  0.00  0.00    +0.000 C 
ENDBRANCH  11  13
ENDBRANCH   1  11
BRANCH   7  14
ATOM     14  C   UNL     1       5.130   5.072  19.601  0.00  0.00    +0.000 C 
BRANCH  14  15
ATOM     15  S   UNL     1       3.563   5.976  19.385  0.00  0.00    +0.000 S 
BRANCH  15  16
ATOM     16  C   UNL     1       2.444   4.632  19.690  0.00  0.00    +0.000 A 
ATOM     17  N   UNL     1       2.333   4.183  20.955  0.00  0.00    +0.000 NA
ATOM     18  C   UNL     1       1.493   3.151  21.146  0.00  0.00    +0.000 A 
ATOM     19  C   UNL     1       0.773   2.561  20.134  0.00  0.00    +0.000 A 
ATOM     20  C   UNL     1       0.948   3.105  18.886  0.00  0.00    +0.000 A 
ATOM     21  N   UNL     1       1.765   4.147  18.639  0.00  0.00    +0.000 NA
ENDBRANCH  15  16
ENDBRANCH  14  15
ENDBRANCH   7  14
TORSDOF 5
ENDMDL
MODEL 6
REMARK VINA RESULT:      -5.7      3.479      5.835
REMARK  Name = 
REMARK  6 active torsions:
REMARK  status: ('A' for Active; 'I' for Inactive)
REMARK    1  A    between atoms: C_1  and  C_2
REMARK    2  A    between atoms: C_2  and  O_3
REMARK    3  A    between atoms: O_3  and  C_4
REMARK    4  A    between atoms: C_10  and  C_12
REMARK    5  A    between atoms: C_12  and  S_13
REMARK    6  A    between atoms: S_13  and  C_14
REMARK                            x       y       z     vdW  Elec       q    Type
REMARK                         _______ _______ _______ _____ _____    ______ ____
ROOT
ATOM      1  C   UNL     1       1.809   4.560  20.446  0.00  0.00    +0.000 C 
ATOM      2  O   UNL     1       0.634   4.901  20.382  0.00  0.00    +0.000 OA
ATOM      3  N   UNL     1       2.768   4.935  19.530  0.00  0.00    +0.000 N 
ATOM      4  C   UNL     1       2.353   5.618  18.306  0.00  0.00    +0.000 C 
ATOM      5  C   UNL     1       3.299   6.766  17.965  0.00  0.00    +0.000 C 
ATOM      6  N   UNL     1       4.693   6.298  17.919  0.00  0.00    +0.000 N 
ATOM      7  C   UNL     1       5.464   6.620  16.811  0.00  0.00    +0.000 C 
ATOM      8  O   UNL     1       4.953   7.179  15.834  0.00  0.00    +0.000 OA
ATOM      9  C   UNL     1       5.142   5.634  19.150  0.00  0.00    +0.000 C 
ATOM     10  C   UNL     1       4.172   4.521  19.595  0.00  0.00    +0.000 C 
ENDROOT
BRANCH   1  11
ATOM     11  O   UNL     1       2.329   3.820  21.460  0.00  0.00    +0.000 OA
BRANCH  11  13
ATOM     12  C   UNL     1       1.455   2.094  20.072  0.00  0.00    +0.000 C 
ATOM     13  C   UNL     1       1.958   2.436  21.464  0.00  0.00    +0.000 C 
ENDBRANCH  11  13
ENDBRANCH   1  11
BRANCH   7  14
ATOM     14  C   UNL     1       6.934   6.203  16.798  0.00  0.00    +0.000 C 
BRANCH  14  15
ATOM     15  S   UNL     1       7.136   4.419  16.488  0.00  0.00    +0.000 S 
BRANCH  15  16
ATOM     16  C   UNL     1       7.087   4.457  14.714  0.00  0.00    +0.000 A 
ATOM     17  N   UNL     1       6.238   3.616  14.092  0.00  0.00    +0.000 NA
ATOM     18  C   UNL     1       6.242   3.657  12.748  0.00  0.00    +0.000 A 
ATOM     19  C   UNL     1       7.052   4.492  12.017  0.00  0.00    +0.000 A 
ATOM     20  C   UNL     1       7.867   5.319  12.749  0.00  0.00    +0.000 A 
ATOM     21  N   UNL     1       7.895   5.331  14.095  0.00  0.00    +0.000 NA
ENDBRANCH  15  16
ENDBRANCH  14  15
ENDBRANCH   7  14
TORSDOF 5
ENDMDL
MODEL 7
REMARK VINA RESULT:      -5.7      3.923      6.807
REMARK  Name = 
REMARK  6 active torsions:
REMARK  status: ('A' for Active; 'I' for Inactive)
REMARK    1  A    between atoms: C_1  and  C_2
REMARK    2  A    between atoms: C_2  and  O_3
REMARK    3  A    between atoms: O_3  and  C_4
REMARK    4  A    between atoms: C_10  and  C_12
REMARK    5  A    between atoms: C_12  and  S_13
REMARK    6  A    between atoms: S_13  and  C_14
REMARK                            x       y       z     vdW  Elec       q    Type
REMARK                         _______ _______ _______ _____ _____    ______ ____
ROOT
ATOM      1  C   UNL     1       6.368   3.696  12.921  0.00  0.00    +0.000 C 
ATOM      2  O   UNL     1       7.085   4.227  12.082  0.00  0.00    +0.000 OA
ATOM      3  N   UNL     1       6.384   4.021  14.261  0.00  0.00    +0.000 N 
ATOM      4  C   UNL     1       7.431   4.907  14.764  0.00  0.00    +0.000 C 
ATOM      5  C   UNL     1       6.868   5.920  15.757  0.00  0.00    +0.000 C 
ATOM      6  N   UNL     1       6.122   5.243  16.829  0.00  0.00    +0.000 N 
ATOM      7  C   UNL     1       6.411   5.570  18.146  0.00  0.00    +0.000 C 
ATOM      8  O   UNL     1       7.356   6.320  18.412  0.00  0.00    +0.000 OA
ATOM      9  C   UNL     1       5.045   4.368  16.347  0.00  0.00    +0.000 C 
ATOM     10  C   UNL     1       5.537   3.380  15.270  0.00  0.00    +0.000 C 
ENDROOT
BRANCH   1  11
ATOM     11  O   UNL     1       5.425   2.762  12.630  0.00  0.00    +0.000 OA
BRANCH  11  13
ATOM     12  C   UNL     1       3.760   3.322  11.025  0.00  0.00    +0.000 C 
ATOM     13  C   UNL     1       5.095   2.631  11.242  0.00  0.00    +0.000 C 
ENDBRANCH  11  13
ENDBRANCH   1  11
BRANCH   7  14
ATOM     14  C   UNL     1       5.583   4.925  19.257  0.00  0.00    +0.000 C 
BRANCH  14  15
ATOM     15  S   UNL     1       3.949   5.712  19.438  0.00  0.00    +0.000 S 
BRANCH  15  16
ATOM     16  C   UNL     1       2.940   4.271  19.199  0.00  0.00    +0.000 A 
ATOM     17  N   UNL     1       1.713   4.445  18.672  0.00  0.00    +0.000 NA
ATOM     18  C   UNL     1       0.969   3.336  18.525  0.00  0.00    +0.000 A 
ATOM     19  C   UNL     1       1.399   2.080  18.881  0.00  0.00    +0.000 A 
ATOM     20  C   UNL     1       2.671   2.012  19.393  0.00  0.00    +0.000 A 
ATOM     21  N   UNL     1       3.466   3.087  19.550  0.00  0.00    +0.000 NA
ENDBRANCH  15  16
ENDBRANCH  14  15
ENDBRANCH   7  14
TORSDOF 5
ENDMDL
MODEL 8
REMARK VINA RESULT:      -5.7      3.391      5.745
REMARK  Name = 
REMARK  6 active torsions:
REMARK  status: ('A' for Active; 'I' for Inactive)
REMARK    1  A    between atoms: C_1  and  C_2
REMARK    2  A    between atoms: C_2  and  O_3
REMARK    3  A    between atoms: O_3  and  C_4
REMARK    4  A    between atoms: C_10  and  C_12
REMARK    5  A    between atoms: C_12  and  S_13
REMARK    6  A    between atoms: S_13  and  C_14
REMARK                            x       y       z     vdW  Elec       q    Type
REMARK                         _______ _______ _______ _____ _____    ______ ____
ROOT
ATOM      1  C   UNL     1       1.755   2.589  19.151  0.00  0.00    +0.000 C 
ATOM      2  O   UNL     1       0.588   2.610  18.778  0.00  0.00    +0.000 OA
ATOM      3  N   UNL     1       2.723   3.457  18.692  0.00  0.00    +0.000 N 
ATOM      4  C   UNL     1       2.414   4.334  17.564  0.00  0.00    +0.000 C 
ATOM      5  C   UNL     1       2.965   5.739  17.788  0.00  0.00    +0.000 C 
ATOM      6  N   UNL     1       4.401   5.692  18.104  0.00  0.00    +0.000 N 
ATOM      7  C   UNL     1       5.263   6.518  17.395  0.00  0.00    +0.000 C 
ATOM      8  O   UNL     1       4.848   7.183  16.440  0.00  0.00    +0.000 OA
ATOM      9  C   UNL     1       4.733   4.839  19.253  0.00  0.00    +0.000 C 
ATOM     10  C   UNL     1       4.122   3.429  19.124  0.00  0.00    +0.000 C 
ENDROOT
BRANCH   1  11
ATOM     11  O   UNL     1       2.231   1.749  20.106  0.00  0.00    +0.000 OA
BRANCH  11  13
ATOM     12  C   UNL     1       1.265   2.858  21.978  0.00  0.00    +0.000 C 
ATOM     13  C   UNL     1       2.560   2.363  21.358  0.00  0.00    +0.000 C 
ENDBRANCH  11  13
ENDBRANCH   1  11
BRANCH   7  14
ATOM     14  C   UNL     1       6.743   6.528  17.776  0.00  0.00    +0.000 C 
BRANCH  14  15
ATOM     15  S   UNL     1       7.510   4.887  17.581  0.00  0.00    +0.000 S 
BRANCH  15  16
ATOM     16  C   UNL     1       7.044   4.582  15.896  0.00  0.00    +0.000 A 
ATOM     17  N   UNL     1       7.696   5.260  14.932  0.00  0.00    +0.000 NA
ATOM     18  C   UNL     1       7.303   5.019  13.669  0.00  0.00    +0.000 A 
ATOM     19  C   UNL     1       6.299   4.140  13.341  0.00  0.00    +0.000 A 
ATOM     20  C   UNL     1       5.712   3.489  14.398  0.00  0.00    +0.000 A 
ATOM     21  N   UNL     1       6.074   3.681  15.680  0.00  0.00    +0.000 NA
ENDBRANCH  15  16
ENDBRANCH  14  15
ENDBRANCH   7  14
TORSDOF 5
ENDMDL
MODEL 9
REMARK VINA RESULT:      -5.7      4.425      7.160
REMARK  Name = 
REMARK  6 active torsions:
REMARK  status: ('A' for Active; 'I' for Inactive)
REMARK    1  A    between atoms: C_1  and  C_2
REMARK    2  A    between atoms: C_2  and  O_3
REMARK    3  A    between atoms: O_3  and  C_4
REMARK    4  A    between atoms: C_10  and  C_12
REMARK    5  A    between atoms: C_12  and  S_13
REMARK    6  A    between atoms: S_13  and  C_14
REMARK                            x       y       z     vdW  Elec       q    Type
REMARK                         _______ _______ _______ _____ _____    ______ ____
ROOT
ATOM      1  C   UNL     1       2.289   3.633  17.910  0.00  0.00    +0.000 C 
ATOM      2  O   UNL     1       2.142   2.564  17.331  0.00  0.00    +0.000 OA
ATOM      3  N   UNL     1       3.398   4.438  17.765  0.00  0.00    +0.000 N 
ATOM      4  C   UNL     1       4.557   3.926  17.037  0.00  0.00    +0.000 C 
ATOM      5  C   UNL     1       5.151   4.993  16.121  0.00  0.00    +0.000 C 
ATOM      6  N   UNL     1       5.441   6.223  16.873  0.00  0.00    +0.000 N 
ATOM      7  C   UNL     1       6.698   6.798  16.744  0.00  0.00    +0.000 C 
ATOM      8  O   UNL     1       7.588   6.220  16.112  0.00  0.00    +0.000 OA
ATOM      9  C   UNL     1       4.283   6.773  17.591  0.00  0.00    +0.000 C 
ATOM     10  C   UNL     1       3.585   5.712  18.465  0.00  0.00    +0.000 C 
ENDROOT
BRANCH   1  11
ATOM     11  O   UNL     1       1.353   4.190  18.721  0.00  0.00    +0.000 OA
BRANCH  11  13
ATOM     12  C   UNL     1       1.626   3.667  21.027  0.00  0.00    +0.000 C 
ATOM     13  C   UNL     1       0.854   3.340  19.761  0.00  0.00    +0.000 C 
ENDBRANCH  11  13
ENDBRANCH   1  11
BRANCH   7  14
ATOM     14  C   UNL     1       6.975   8.118  17.463  0.00  0.00    +0.000 C 
BRANCH  14  15
ATOM     15  S   UNL     1       8.436   8.015  18.545  0.00  0.00    +0.000 S 
BRANCH  15  16
ATOM     16  C   UNL     1       8.777   9.752  18.686  0.00  0.00    +0.000 A 
ATOM     17  N   UNL     1       8.421  10.546  17.658  0.00  0.00    +0.000 NA
ATOM     18  C   UNL     1       8.712  11.852  17.790  0.00  0.00    +0.000 A 
ATOM     19  C   UNL     1       9.338  12.382  18.892  0.00  0.00    +0.000 A 
ATOM     20  C   UNL     1       9.643  11.488  19.889  0.00  0.00    +0.000 A 
ATOM     21  N   UNL     1       9.362  10.174  19.817  0.00  0.00    +0.000 NA
ENDBRANCH  15  16
ENDBRANCH  14  15
ENDBRANCH   7  14
TORSDOF 5
ENDMDL
