MODEL 1
REMARK VINA RESULT:      -8.0      0.000      0.000
REMARK  Name = 
REMARK  10 active torsions:
REMARK  status: ('A' for Active; 'I' for Inactive)
REMARK    1  A    between atoms: C_1  and  O_2
REMARK    2  A    between atoms: O_2  and  C_3
REMARK    3  A    between atoms: C_8  and  C_9
REMARK    4  A    between atoms: C_10  and  N_11
REMARK    5  A    between atoms: C_18  and  N_19
REMARK    6  A    between atoms: N_19  and  C_27
REMARK    7  A    between atoms: C_23  and  C_24
REMARK    8  A    between atoms: C_27  and  C_28
REMARK    9  A    between atoms: C_27  and  C_29
REMARK   10  A    between atoms: N_31  and  C_32
REMARK                            x       y       z     vdW  Elec       q    Type
REMARK                         _______ _______ _______ _____ _____    ______ ____
ROOT
ATOM      1  N   UNL     1       3.172   6.635  18.543  0.00  0.00    +0.000 N 
ATOM      2  C   UNL     1       2.361   7.363  19.365  0.00  0.00    +0.000 A 
ATOM      3  N   UNL     1       1.832   7.006  20.504  0.00  0.00    +0.000 NA
ATOM      4  C   UNL     1       1.079   8.068  20.917  0.00  0.00    +0.000 A 
ATOM      5  C   UNL     1       0.295   8.100  22.080  0.00  0.00    +0.000 A 
ATOM      6  C   UNL     1      -0.379   9.260  22.401  0.00  0.00    +0.000 A 
ATOM      7  C   UNL     1      -0.280  10.364  21.560  0.00  0.00    +0.000 A 
ATOM      8  C   UNL     1       0.422  10.387  20.308  0.00  0.00    +0.000 A 
ATOM      9  C   UNL     1       1.136   9.166  20.034  0.00  0.00    +0.000 A 
ATOM     10  N   UNL     1       1.930   8.640  19.011  0.00  0.00    +0.000 N 
ATOM     11  C   UNL     1       2.184   9.147  17.685  0.00  0.00    +0.000 C 
ATOM     12  H   UNL     1       4.078   7.052  18.334  0.00  0.00    +0.000 HD
ENDROOT
BRANCH   1  20
ATOM     13  C   UNL     1       4.516   4.680  19.197  0.00  0.00    +0.000 A 
ATOM     14  C   UNL     1       4.690   3.294  19.313  0.00  0.00    +0.000 A 
ATOM     15  C   UNL     1       3.733   2.426  18.799  0.00  0.00    +0.000 A 
ATOM     16 CL   UNL     1       3.975   0.727  18.892  0.00  0.00    +0.000 Cl
ATOM     17  C   UNL     1       2.590   2.930  18.183  0.00  0.00    +0.000 A 
ATOM     18  C   UNL     1       2.382   4.318  18.074  0.00  0.00    +0.000 A 
ATOM     19  C   UNL     1       1.145   4.778  17.351  0.00  0.00    +0.000 C 
ATOM     20  C   UNL     1       3.332   5.215  18.616  0.00  0.00    +0.000 A 
BRANCH  13  22
ATOM     21  C   UNL     1       6.732   5.498  19.009  0.00  0.00    +0.000 C 
ATOM     22  O   UNL     1       5.453   5.591  19.640  0.00  0.00    +0.000 OA
ENDBRANCH  13  22
ENDBRANCH   1  20
BRANCH   8  23
ATOM     23  N   UNL     1       0.328  11.577  19.506  0.00  0.00    +0.000 N 
ATOM     24  C   UNL     1       1.204  12.689  19.502  0.00  0.00    +0.000 A 
ATOM     25  C   UNL     1       1.942  13.039  20.633  0.00  0.00    +0.000 A 
ATOM     26  C   UNL     1       2.897  14.062  20.554  0.00  0.00    +0.000 A 
ATOM     27  C   UNL     1       3.090  14.732  19.352  0.00  0.00    +0.000 A 
ATOM     28  C   UNL     1       4.141  15.773  19.159  0.00  0.00    +0.000 C 
ATOM     29  C   UNL     1       2.272  14.374  18.295  0.00  0.00    +0.000 A 
ATOM     30  N   UNL     1       1.355  13.390  18.359  0.00  0.00    +0.000 NA
BRANCH  23  31
ATOM     31  C   UNL     1      -0.945  11.814  18.732  0.00  0.00    +0.000 C 
ATOM     32  C   UNL     1      -1.432  10.531  18.038  0.00  0.00    +0.000 C 
ATOM     33  C   UNL     1      -2.074  12.482  19.525  0.00  0.00    +0.000 C 
ENDBRANCH  23  31
ENDBRANCH   8  23
TORSDOF 4
ENDMDL
MODEL 2
REMARK VINA RESULT:      -6.5      1.328      3.353
REMARK  Name = 
REMARK  10 active torsions:
REMARK  status: ('A' for Active; 'I' for Inactive)
REMARK    1  A    between atoms: C_1  and  O_2
REMARK    2  A    between atoms: O_2  and  C_3
REMARK    3  A    between atoms: C_8  and  C_9
REMARK    4  A    between atoms: C_10  and  N_11
REMARK    5  A    between atoms: C_18  and  N_19
REMARK    6  A    between atoms: N_19  and  C_27
REMARK    7  A    between atoms: C_23  and  C_24
REMARK    8  A    between atoms: C_27  and  C_28
REMARK    9  A    between atoms: C_27  and  C_29
REMARK   10  A    between atoms: N_31  and  C_32
REMARK                            x       y       z     vdW  Elec       q    Type
REMARK                         _______ _______ _______ _____ _____    ______ ____
ROOT
ATOM      1  N   UNL     1       3.215   6.359  18.543  0.00  0.00    +0.000 N 
ATOM      2  C   UNL     1       2.477   7.153  19.373  0.00  0.00    +0.000 A 
ATOM      3  N   UNL     1       2.199   6.967  20.635  0.00  0.00    +0.000 NA
ATOM      4  C   UNL     1       1.407   8.017  21.004  0.00  0.00    +0.000 A 
ATOM      5  C   UNL     1       0.837   8.194  22.273  0.00  0.00    +0.000 A 
ATOM      6  C   UNL     1       0.095   9.330  22.522  0.00  0.00    +0.000 A 
ATOM      7  C   UNL     1      -0.086  10.264  21.507  0.00  0.00    +0.000 A 
ATOM      8  C   UNL     1       0.382  10.117  20.158  0.00  0.00    +0.000 A 
ATOM      9  C   UNL     1       1.179   8.934  19.957  0.00  0.00    +0.000 A 
ATOM     10  N   UNL     1       1.841   8.300  18.903  0.00  0.00    +0.000 N 
ATOM     11  C   UNL     1       1.800   8.574  17.487  0.00  0.00    +0.000 C 
ATOM     12  H   UNL     1       4.016   6.808  18.099  0.00  0.00    +0.000 HD
ENDROOT
BRANCH   1  20
ATOM     13  C   UNL     1       4.839   4.697  19.351  0.00  0.00    +0.000 A 
ATOM     14  C   UNL     1       5.191   3.376  19.662  0.00  0.00    +0.000 A 
ATOM     15  C   UNL     1       4.309   2.336  19.386  0.00  0.00    +0.000 A 
ATOM     16 CL   UNL     1       4.765   0.712  19.715  0.00  0.00    +0.000 Cl
ATOM     17  C   UNL     1       3.067   2.605  18.817  0.00  0.00    +0.000 A 
ATOM     18  C   UNL     1       2.680   3.925  18.518  0.00  0.00    +0.000 A 
ATOM     19  C   UNL     1       1.342   4.123  17.860  0.00  0.00    +0.000 C 
ATOM     20  C   UNL     1       3.555   4.997  18.817  0.00  0.00    +0.000 A 
BRANCH  13  22
ATOM     21  C   UNL     1       6.900   5.724  18.793  0.00  0.00    +0.000 C 
ATOM     22  O   UNL     1       5.690   5.764  19.553  0.00  0.00    +0.000 OA
ENDBRANCH  13  22
ENDBRANCH   1  20
BRANCH   8  23
ATOM     23  N   UNL     1       0.009  11.127  19.203  0.00  0.00    +0.000 N 
ATOM     24  C   UNL     1      -0.924  11.014  18.145  0.00  0.00    +0.000 A 
ATOM     25  C   UNL     1      -1.194   9.786  17.539  0.00  0.00    +0.000 A 
ATOM     26  C   UNL     1      -2.218   9.687  16.588  0.00  0.00    +0.000 A 
ATOM     27  C   UNL     1      -2.947  10.819  16.241  0.00  0.00    +0.000 A 
ATOM     28  C   UNL     1      -4.106  10.786  15.303  0.00  0.00    +0.000 C 
ATOM     29  C   UNL     1      -2.574  12.012  16.834  0.00  0.00    +0.000 A 
ATOM     30  N   UNL     1      -1.595  12.117  17.753  0.00  0.00    +0.000 NA
BRANCH  23  31
ATOM     31  C   UNL     1       0.837  12.386  19.140  0.00  0.00    +0.000 C 
ATOM     32  C   UNL     1       1.021  13.012  20.533  0.00  0.00    +0.000 C 
ATOM     33  C   UNL     1       2.178  12.248  18.409  0.00  0.00    +0.000 C 
ENDBRANCH  23  31
ENDBRANCH   8  23
TORSDOF 4
ENDMDL
MODEL 3
REMARK VINA RESULT:      -6.1      1.533      1.587
REMARK  Name = 
REMARK  10 active torsions:
REMARK  status: ('A' for Active; 'I' for Inactive)
REMARK    1  A    between atoms: C_1  and  O_2
REMARK    2  A    between atoms: O_2  and  C_3
REMARK    3  A    between atoms: C_8  and  C_9
REMARK    4  A    between atoms: C_10  and  N_11
REMARK    5  A    between atoms: C_18  and  N_19
REMARK    6  A    between atoms: N_19  and  C_27
REMARK    7  A    between atoms: C_23  and  C_24
REMARK    8  A    between atoms: C_27  and  C_28
REMARK    9  A    between atoms: C_27  and  C_29
REMARK   10  A    between atoms: N_31  and  C_32
REMARK                            x       y       z     vdW  Elec       q    Type
REMARK                         _______ _______ _______ _____ _____    ______ ____
ROOT
ATOM      1  N   UNL     1       2.658   7.408  19.008  0.00  0.00    +0.000 N 
ATOM      2  C   UNL     1       1.885   8.139  19.865  0.00  0.00    +0.000 A 
ATOM      3  N   UNL     1       1.617   7.898  21.120  0.00  0.00    +0.000 NA
ATOM      4  C   UNL     1       0.778   8.898  21.523  0.00  0.00    +0.000 A 
ATOM      5  C   UNL     1       0.202   9.007  22.797  0.00  0.00    +0.000 A 
ATOM      6  C   UNL     1      -0.589  10.099  23.083  0.00  0.00    +0.000 A 
ATOM      7  C   UNL     1      -0.813  11.058  22.101  0.00  0.00    +0.000 A 
ATOM      8  C   UNL     1      -0.340  10.978  20.747  0.00  0.00    +0.000 A 
ATOM      9  C   UNL     1       0.509   9.839  20.507  0.00  0.00    +0.000 A 
ATOM     10  N   UNL     1       1.198   9.272  19.433  0.00  0.00    +0.000 N 
ATOM     11  C   UNL     1       1.143   9.591  18.027  0.00  0.00    +0.000 C 
ATOM     12  H   UNL     1       3.436   7.907  18.581  0.00  0.00    +0.000 HD
ENDROOT
BRANCH   1  20
ATOM     13  C   UNL     1       4.346   5.630  18.807  0.00  0.00    +0.000 A 
ATOM     14  C   UNL     1       4.782   4.319  19.044  0.00  0.00    +0.000 A 
ATOM     15  C   UNL     1       3.929   3.398  19.645  0.00  0.00    +0.000 A 
ATOM     16 CL   UNL     1       4.444   1.777  19.883  0.00  0.00    +0.000 Cl
ATOM     17  C   UNL     1       2.646   3.781  20.028  0.00  0.00    +0.000 A 
ATOM     18  C   UNL     1       2.193   5.098  19.821  0.00  0.00    +0.000 A 
ATOM     19  C   UNL     1       0.777   5.415  20.221  0.00  0.00    +0.000 C 
ATOM     20  C   UNL     1       3.058   6.054  19.237  0.00  0.00    +0.000 A 
BRANCH  13  22
ATOM     21  C   UNL     1       5.991   6.056  17.156  0.00  0.00    +0.000 C 
ATOM     22  O   UNL     1       5.126   6.573  18.169  0.00  0.00    +0.000 OA
ENDBRANCH  13  22
ENDBRANCH   1  20
BRANCH   8  23
ATOM     23  N   UNL     1      -0.759  12.002  19.827  0.00  0.00    +0.000 N 
ATOM     24  C   UNL     1      -0.233  13.308  19.688  0.00  0.00    +0.000 A 
ATOM     25  C   UNL     1       0.366  13.970  20.761  0.00  0.00    +0.000 A 
ATOM     26  C   UNL     1       0.994  15.206  20.555  0.00  0.00    +0.000 A 
ATOM     27  C   UNL     1       1.001  15.772  19.286  0.00  0.00    +0.000 A 
ATOM     28  C   UNL     1       1.717  17.040  18.963  0.00  0.00    +0.000 C 
ATOM     29  C   UNL     1       0.328  15.088  18.290  0.00  0.00    +0.000 A 
ATOM     30  N   UNL     1      -0.275  13.897  18.475  0.00  0.00    +0.000 NA
BRANCH  23  31
ATOM     31  C   UNL     1      -2.040  11.787  19.059  0.00  0.00    +0.000 C 
ATOM     32  C   UNL     1      -2.149  10.345  18.533  0.00  0.00    +0.000 C 
ATOM     33  C   UNL     1      -3.318  12.210  19.793  0.00  0.00    +0.000 C 
ENDBRANCH  23  31
ENDBRANCH   8  23
TORSDOF 4
ENDMDL
MODEL 4
REMARK VINA RESULT:      -6.1      3.826      8.649
REMARK  Name = 
REMARK  10 active torsions:
REMARK  status: ('A' for Active; 'I' for Inactive)
REMARK    1  A    between atoms: C_1  and  O_2
REMARK    2  A    between atoms: O_2  and  C_3
REMARK    3  A    between atoms: C_8  and  C_9
REMARK    4  A    between atoms: C_10  and  N_11
REMARK    5  A    between atoms: C_18  and  N_19
REMARK    6  A    between atoms: N_19  and  C_27
REMARK    7  A    between atoms: C_23  and  C_24
REMARK    8  A    between atoms: C_27  and  C_28
REMARK    9  A    between atoms: C_27  and  C_29
REMARK   10  A    between atoms: N_31  and  C_32
REMARK                            x       y       z     vdW  Elec       q    Type
REMARK                         _______ _______ _______ _____ _____    ______ ____
ROOT
ATOM      1  N   UNL     1       1.192   9.712  17.930  0.00  0.00    +0.000 N 
ATOM      2  C   UNL     1       1.715   8.545  18.408  0.00  0.00    +0.000 A 
ATOM      3  N   UNL     1       1.227   7.755  19.325  0.00  0.00    +0.000 NA
ATOM      4  C   UNL     1       2.133   6.742  19.468  0.00  0.00    +0.000 A 
ATOM      5  C   UNL     1       2.030   5.688  20.388  0.00  0.00    +0.000 A 
ATOM      6  C   UNL     1       2.996   4.704  20.390  0.00  0.00    +0.000 A 
ATOM      7  C   UNL     1       4.058   4.786  19.495  0.00  0.00    +0.000 A 
ATOM      8  C   UNL     1       4.289   5.874  18.587  0.00  0.00    +0.000 A 
ATOM      9  C   UNL     1       3.237   6.858  18.598  0.00  0.00    +0.000 A 
ATOM     10  N   UNL     1       2.953   8.075  17.973  0.00  0.00    +0.000 N 
ATOM     11  C   UNL     1       3.792   8.906  17.145  0.00  0.00    +0.000 C 
ATOM     12  H   UNL     1       1.025   9.743  16.925  0.00  0.00    +0.000 HD
ENDROOT
BRANCH   1  20
ATOM     13  C   UNL     1      -1.168  10.386  18.095  0.00  0.00    +0.000 A 
ATOM     14  C   UNL     1      -2.203  11.085  18.732  0.00  0.00    +0.000 A 
ATOM     15  C   UNL     1      -1.922  11.918  19.810  0.00  0.00    +0.000 A 
ATOM     16 CL   UNL     1      -3.182  12.819  20.553  0.00  0.00    +0.000 Cl
ATOM     17  C   UNL     1      -0.614  12.047  20.271  0.00  0.00    +0.000 A 
ATOM     18  C   UNL     1       0.439  11.337  19.663  0.00  0.00    +0.000 A 
ATOM     19  C   UNL     1       1.828  11.571  20.193  0.00  0.00    +0.000 C 
ATOM     20  C   UNL     1       0.166  10.465  18.583  0.00  0.00    +0.000 A 
BRANCH  13  22
ATOM     21  C   UNL     1      -2.559   9.882  16.245  0.00  0.00    +0.000 C 
ATOM     22  O   UNL     1      -1.376   9.586  16.990  0.00  0.00    +0.000 OA
ENDBRANCH  13  22
ENDBRANCH   1  20
BRANCH   8  23
ATOM     23  N   UNL     1       5.500   5.856  17.810  0.00  0.00    +0.000 N 
ATOM     24  C   UNL     1       5.734   5.180  16.589  0.00  0.00    +0.000 A 
ATOM     25  C   UNL     1       5.039   4.016  16.256  0.00  0.00    +0.000 A 
ATOM     26  C   UNL     1       5.198   3.449  14.984  0.00  0.00    +0.000 A 
ATOM     27  C   UNL     1       6.061   4.041  14.070  0.00  0.00    +0.000 A 
ATOM     28  C   UNL     1       6.225   3.551  12.670  0.00  0.00    +0.000 C 
ATOM     29  C   UNL     1       6.765   5.152  14.498  0.00  0.00    +0.000 A 
ATOM     30  N   UNL     1       6.616   5.708  15.716  0.00  0.00    +0.000 NA
BRANCH  23  31
ATOM     31  C   UNL     1       6.753   6.418  18.434  0.00  0.00    +0.000 C 
ATOM     32  C   UNL     1       7.755   5.306  18.790  0.00  0.00    +0.000 C 
ATOM     33  C   UNL     1       7.428   7.543  17.640  0.00  0.00    +0.000 C 
ENDBRANCH  23  31
ENDBRANCH   8  23
TORSDOF 4
ENDMDL
MODEL 5
REMARK VINA RESULT:      -5.9      4.874      7.703
REMARK  Name = 
REMARK  10 active torsions:
REMARK  status: ('A' for Active; 'I' for Inactive)
REMARK    1  A    between atoms: C_1  and  O_2
REMARK    2  A    between atoms: O_2  and  C_3
REMARK    3  A    between atoms: C_8  and  C_9
REMARK    4  A    between atoms: C_10  and  N_11
REMARK    5  A    between atoms: C_18  and  N_19
REMARK    6  A    between atoms: N_19  and  C_27
REMARK    7  A    between atoms: C_23  and  C_24
REMARK    8  A    between atoms: C_27  and  C_28
REMARK    9  A    between atoms: C_27  and  C_29
REMARK   10  A    between atoms: N_31  and  C_32
REMARK                            x       y       z     vdW  Elec       q    Type
REMARK                         _______ _______ _______ _____ _____    ______ ____
ROOT
ATOM      1  N   UNL     1      -0.984  11.254  21.236  0.00  0.00    +0.000 N 
ATOM      2  C   UNL     1      -0.596  12.501  21.633  0.00  0.00    +0.000 A 
ATOM      3  N   UNL     1       0.544  13.101  21.418  0.00  0.00    +0.000 NA
ATOM      4  C   UNL     1       0.454  14.313  22.043  0.00  0.00    +0.000 A 
ATOM      5  C   UNL     1       1.478  15.269  22.105  0.00  0.00    +0.000 A 
ATOM      6  C   UNL     1       1.231  16.474  22.730  0.00  0.00    +0.000 A 
ATOM      7  C   UNL     1      -0.017  16.708  23.298  0.00  0.00    +0.000 A 
ATOM      8  C   UNL     1      -1.087  15.752  23.361  0.00  0.00    +0.000 A 
ATOM      9  C   UNL     1      -0.794  14.524  22.666  0.00  0.00    +0.000 A 
ATOM     10  N   UNL     1      -1.419  13.298  22.426  0.00  0.00    +0.000 N 
ATOM     11  C   UNL     1      -2.624  12.747  22.997  0.00  0.00    +0.000 C 
ATOM     12  H   UNL     1      -1.829  11.214  20.669  0.00  0.00    +0.000 HD
ENDROOT
BRANCH   1  20
ATOM     13  C   UNL     1       0.180  10.112  19.393  0.00  0.00    +0.000 A 
ATOM     14  C   UNL     1       1.078   9.144  18.921  0.00  0.00    +0.000 A 
ATOM     15  C   UNL     1       1.666   8.247  19.807  0.00  0.00    +0.000 A 
ATOM     16 CL   UNL     1       2.722   7.026  19.221  0.00  0.00    +0.000 Cl
ATOM     17  C   UNL     1       1.378   8.319  21.168  0.00  0.00    +0.000 A 
ATOM     18  C   UNL     1       0.497   9.297  21.670  0.00  0.00    +0.000 A 
ATOM     19  C   UNL     1       0.204   9.273  23.145  0.00  0.00    +0.000 C 
ATOM     20  C   UNL     1      -0.088  10.234  20.785  0.00  0.00    +0.000 A 
BRANCH  13  22
ATOM     21  C   UNL     1      -1.515  10.419  17.766  0.00  0.00    +0.000 C 
ATOM     22  O   UNL     1      -0.474  10.995  18.558  0.00  0.00    +0.000 OA
ENDBRANCH  13  22
ENDBRANCH   1  20
BRANCH   8  23
ATOM     23  N   UNL     1      -2.274  16.117  24.086  0.00  0.00    +0.000 N 
ATOM     24  C   UNL     1      -3.572  16.336  23.566  0.00  0.00    +0.000 A 
ATOM     25  C   UNL     1      -3.768  16.769  22.254  0.00  0.00    +0.000 A 
ATOM     26  C   UNL     1      -5.066  16.847  21.732  0.00  0.00    +0.000 A 
ATOM     27  C   UNL     1      -6.151  16.509  22.531  0.00  0.00    +0.000 A 
ATOM     28  C   UNL     1      -7.556  16.483  22.031  0.00  0.00    +0.000 C 
ATOM     29  C   UNL     1      -5.880  16.155  23.841  0.00  0.00    +0.000 A 
ATOM     30  N   UNL     1      -4.636  16.072  24.352  0.00  0.00    +0.000 NA
BRANCH  23  31
ATOM     31  C   UNL     1      -2.124  16.545  25.525  0.00  0.00    +0.000 C 
ATOM     32  C   UNL     1      -1.064  15.705  26.257  0.00  0.00    +0.000 C 
ATOM     33  C   UNL     1      -1.892  18.045  25.738  0.00  0.00    +0.000 C 
ENDBRANCH  23  31
ENDBRANCH   8  23
TORSDOF 4
ENDMDL
MODEL 6
REMARK VINA RESULT:      -5.8      5.346      8.814
REMARK  Name = 
REMARK  10 active torsions:
REMARK  status: ('A' for Active; 'I' for Inactive)
REMARK    1  A    between atoms: C_1  and  O_2
REMARK    2  A    between atoms: O_2  and  C_3
REMARK    3  A    between atoms: C_8  and  C_9
REMARK    4  A    between atoms: C_10  and  N_11
REMARK    5  A    between atoms: C_18  and  N_19
REMARK    6  A    between atoms: N_19  and  C_27
REMARK    7  A    between atoms: C_23  and  C_24
REMARK    8  A    between atoms: C_27  and  C_28
REMARK    9  A    between atoms: C_27  and  C_29
REMARK   10  A    between atoms: N_31  and  C_32
REMARK                            x       y       z     vdW  Elec       q    Type
REMARK                         _______ _______ _______ _____ _____    ______ ____
ROOT
ATOM      1  N   UNL     1       1.509  13.196  20.161  0.00  0.00    +0.000 N 
ATOM      2  C   UNL     1       2.560  13.822  20.768  0.00  0.00    +0.000 A 
ATOM      3  N   UNL     1       2.641  14.262  21.995  0.00  0.00    +0.000 NA
ATOM      4  C   UNL     1       3.876  14.835  22.107  0.00  0.00    +0.000 A 
ATOM      5  C   UNL     1       4.369  15.478  23.252  0.00  0.00    +0.000 A 
ATOM      6  C   UNL     1       5.657  15.971  23.241  0.00  0.00    +0.000 A 
ATOM      7  C   UNL     1       6.432  15.834  22.094  0.00  0.00    +0.000 A 
ATOM      8  C   UNL     1       5.977  15.274  20.853  0.00  0.00    +0.000 A 
ATOM      9  C   UNL     1       4.639  14.744  20.924  0.00  0.00    +0.000 A 
ATOM     10  N   UNL     1       3.722  14.134  20.065  0.00  0.00    +0.000 N 
ATOM     11  C   UNL     1       3.766  13.968  18.633  0.00  0.00    +0.000 C 
ATOM     12  H   UNL     1       1.708  12.275  19.773  0.00  0.00    +0.000 HD
ENDROOT
BRANCH   1  20
ATOM     13  C   UNL     1      -0.257  12.136  21.506  0.00  0.00    +0.000 A 
ATOM     14  C   UNL     1      -1.553  12.125  22.039  0.00  0.00    +0.000 A 
ATOM     15  C   UNL     1      -2.460  13.121  21.691  0.00  0.00    +0.000 A 
ATOM     16 CL   UNL     1      -4.066  13.074  22.300  0.00  0.00    +0.000 Cl
ATOM     17  C   UNL     1      -2.077  14.142  20.825  0.00  0.00    +0.000 A 
ATOM     18  C   UNL     1      -0.773  14.189  20.294  0.00  0.00    +0.000 A 
ATOM     19  C   UNL     1      -0.457  15.299  19.329  0.00  0.00    +0.000 C 
ATOM     20  C   UNL     1       0.169  13.198  20.661  0.00  0.00    +0.000 A 
BRANCH  13  22
ATOM     21  C   UNL     1       0.307   9.842  21.323  0.00  0.00    +0.000 C 
ATOM     22  O   UNL     1       0.670  11.149  21.773  0.00  0.00    +0.000 OA
ENDBRANCH  13  22
ENDBRANCH   1  20
BRANCH   8  23
ATOM     23  N   UNL     1       6.873  15.313  19.728  0.00  0.00    +0.000 N 
ATOM     24  C   UNL     1       7.919  14.410  19.424  0.00  0.00    +0.000 A 
ATOM     25  C   UNL     1       8.581  13.697  20.425  0.00  0.00    +0.000 A 
ATOM     26  C   UNL     1       9.518  12.715  20.080  0.00  0.00    +0.000 A 
ATOM     27  C   UNL     1       9.794  12.468  18.740  0.00  0.00    +0.000 A 
ATOM     28  C   UNL     1      10.713  11.386  18.283  0.00  0.00    +0.000 C 
ATOM     29  C   UNL     1       9.149  13.262  17.809  0.00  0.00    +0.000 A 
ATOM     30  N   UNL     1       8.243  14.206  18.131  0.00  0.00    +0.000 NA
BRANCH  23  31
ATOM     31  C   UNL     1       6.887  16.556  18.873  0.00  0.00    +0.000 C 
ATOM     32  C   UNL     1       5.489  17.189  18.773  0.00  0.00    +0.000 C 
ATOM     33  C   UNL     1       7.945  17.598  19.255  0.00  0.00    +0.000 C 
ENDBRANCH  23  31
ENDBRANCH   8  23
TORSDOF 4
ENDMDL
MODEL 7
REMARK VINA RESULT:      -5.8      7.534     11.391
REMARK  Name = 
REMARK  10 active torsions:
REMARK  status: ('A' for Active; 'I' for Inactive)
REMARK    1  A    between atoms: C_1  and  O_2
REMARK    2  A    between atoms: O_2  and  C_3
REMARK    3  A    between atoms: C_8  and  C_9
REMARK    4  A    between atoms: C_10  and  N_11
REMARK    5  A    between atoms: C_18  and  N_19
REMARK    6  A    between atoms: N_19  and  C_27
REMARK    7  A    between atoms: C_23  and  C_24
REMARK    8  A    between atoms: C_27  and  C_28
REMARK    9  A    between atoms: C_27  and  C_29
REMARK   10  A    between atoms: N_31  and  C_32
REMARK                            x       y       z     vdW  Elec       q    Type
REMARK                         _______ _______ _______ _____ _____    ______ ____
ROOT
ATOM      1  N   UNL     1       3.892  15.668  18.815  0.00  0.00    +0.000 N 
ATOM      2  C   UNL     1       5.104  16.198  19.158  0.00  0.00    +0.000 A 
ATOM      3  N   UNL     1       5.349  17.292  19.827  0.00  0.00    +0.000 NA
ATOM      4  C   UNL     1       6.710  17.403  19.878  0.00  0.00    +0.000 A 
ATOM      5  C   UNL     1       7.413  18.464  20.467  0.00  0.00    +0.000 A 
ATOM      6  C   UNL     1       8.791  18.423  20.489  0.00  0.00    +0.000 A 
ATOM      7  C   UNL     1       9.453  17.343  19.914  0.00  0.00    +0.000 A 
ATOM      8  C   UNL     1       8.816  16.265  19.211  0.00  0.00    +0.000 A 
ATOM      9  C   UNL     1       7.378  16.335  19.245  0.00  0.00    +0.000 A 
ATOM     10  N   UNL     1       6.295  15.610  18.739  0.00  0.00    +0.000 N 
ATOM     11  C   UNL     1       6.272  14.532  17.781  0.00  0.00    +0.000 C 
ATOM     12  H   UNL     1       3.718  14.718  19.140  0.00  0.00    +0.000 HD
ENDROOT
BRANCH   1  20
ATOM     13  C   UNL     1       1.848  16.333  20.011  0.00  0.00    +0.000 A 
ATOM     14  C   UNL     1       0.648  17.054  20.084  0.00  0.00    +0.000 A 
ATOM     15  C   UNL     1       0.204  17.781  18.985  0.00  0.00    +0.000 A 
ATOM     16 CL   UNL     1      -1.295  18.619  19.055  0.00  0.00    +0.000 Cl
ATOM     17  C   UNL     1       0.959  17.810  17.814  0.00  0.00    +0.000 A 
ATOM     18  C   UNL     1       2.179  17.112  17.725  0.00  0.00    +0.000 A 
ATOM     19  C   UNL     1       2.907  17.156  16.408  0.00  0.00    +0.000 C 
ATOM     20  C   UNL     1       2.658  16.390  18.843  0.00  0.00    +0.000 A 
BRANCH  13  22
ATOM     21  C   UNL     1       2.497  16.240  22.288  0.00  0.00    +0.000 C 
ATOM     22  O   UNL     1       2.314  15.552  21.049  0.00  0.00    +0.000 OA
ENDBRANCH  13  22
ENDBRANCH   1  20
BRANCH   8  23
ATOM     23  N   UNL     1       9.658  15.286  18.577  0.00  0.00    +0.000 N 
ATOM     24  C   UNL     1       9.640  13.882  18.759  0.00  0.00    +0.000 A 
ATOM     25  C   UNL     1       9.207  13.308  19.954  0.00  0.00    +0.000 A 
ATOM     26  C   UNL     1       9.076  11.916  20.053  0.00  0.00    +0.000 A 
ATOM     27  C   UNL     1       9.396  11.116  18.962  0.00  0.00    +0.000 A 
ATOM     28  C   UNL     1       9.207   9.637  18.954  0.00  0.00    +0.000 C 
ATOM     29  C   UNL     1       9.884  11.755  17.836  0.00  0.00    +0.000 A 
ATOM     30  N   UNL     1      10.009  13.092  17.729  0.00  0.00    +0.000 NA
BRANCH  23  31
ATOM     31  C   UNL     1      10.853  15.774  17.796  0.00  0.00    +0.000 C 
ATOM     32  C   UNL     1      10.525  17.050  17.001  0.00  0.00    +0.000 C 
ATOM     33  C   UNL     1      12.140  15.940  18.611  0.00  0.00    +0.000 C 
ENDBRANCH  23  31
ENDBRANCH   8  23
TORSDOF 4
ENDMDL
MODEL 8
REMARK VINA RESULT:      -5.7      5.606      9.290
REMARK  Name = 
REMARK  10 active torsions:
REMARK  status: ('A' for Active; 'I' for Inactive)
REMARK    1  A    between atoms: C_1  and  O_2
REMARK    2  A    between atoms: O_2  and  C_3
REMARK    3  A    between atoms: C_8  and  C_9
REMARK    4  A    between atoms: C_10  and  N_11
REMARK    5  A    between atoms: C_18  and  N_19
REMARK    6  A    between atoms: N_19  and  C_27
REMARK    7  A    between atoms: C_23  and  C_24
REMARK    8  A    between atoms: C_27  and  C_28
REMARK    9  A    between atoms: C_27  and  C_29
REMARK   10  A    between atoms: N_31  and  C_32
REMARK                            x       y       z     vdW  Elec       q    Type
REMARK                         _______ _______ _______ _____ _____    ______ ____
ROOT
ATOM      1  N   UNL     1       5.434  15.050  19.844  0.00  0.00    +0.000 N 
ATOM      2  C   UNL     1       4.114  15.317  19.615  0.00  0.00    +0.000 A 
ATOM      3  N   UNL     1       3.593  16.114  18.722  0.00  0.00    +0.000 NA
ATOM      4  C   UNL     1       2.242  16.063  18.917  0.00  0.00    +0.000 A 
ATOM      5  C   UNL     1       1.292  16.807  18.201  0.00  0.00    +0.000 A 
ATOM      6  C   UNL     1      -0.047  16.619  18.470  0.00  0.00    +0.000 A 
ATOM      7  C   UNL     1      -0.427  15.712  19.454  0.00  0.00    +0.000 A 
ATOM      8  C   UNL     1       0.479  14.980  20.295  0.00  0.00    +0.000 A 
ATOM      9  C   UNL     1       1.864  15.184  19.953  0.00  0.00    +0.000 A 
ATOM     10  N   UNL     1       3.115  14.771  20.417  0.00  0.00    +0.000 N 
ATOM     11  C   UNL     1       3.464  14.056  21.621  0.00  0.00    +0.000 C 
ATOM     12  H   UNL     1       5.703  14.069  19.780  0.00  0.00    +0.000 HD
ENDROOT
BRANCH   1  20
ATOM     13  C   UNL     1       7.304  15.368  18.277  0.00  0.00    +0.000 A 
ATOM     14  C   UNL     1       8.351  16.141  17.758  0.00  0.00    +0.000 A 
ATOM     15  C   UNL     1       8.674  17.361  18.343  0.00  0.00    +0.000 A 
ATOM     16 CL   UNL     1       9.994  18.282  17.741  0.00  0.00    +0.000 Cl
ATOM     17  C   UNL     1       7.946  17.827  19.435  0.00  0.00    +0.000 A 
ATOM     18  C   UNL     1       6.875  17.080  19.961  0.00  0.00    +0.000 A 
ATOM     19  C   UNL     1       6.173  17.632  21.172  0.00  0.00    +0.000 C 
ATOM     20  C   UNL     1       6.516  15.850  19.360  0.00  0.00    +0.000 A 
BRANCH  13  22
ATOM     21  C   UNL     1       8.067  13.227  17.609  0.00  0.00    +0.000 C 
ATOM     22  O   UNL     1       6.970  14.127  17.774  0.00  0.00    +0.000 OA
ENDBRANCH  13  22
ENDBRANCH   1  20
BRANCH   8  23
ATOM     23  N   UNL     1      -0.082  14.168  21.342  0.00  0.00    +0.000 N 
ATOM     24  C   UNL     1      -0.264  12.765  21.344  0.00  0.00    +0.000 A 
ATOM     25  C   UNL     1      -0.445  12.051  20.158  0.00  0.00    +0.000 A 
ATOM     26  C   UNL     1      -0.488  10.651  20.186  0.00  0.00    +0.000 A 
ATOM     27  C   UNL     1      -0.368   9.983  21.399  0.00  0.00    +0.000 A 
ATOM     28  C   UNL     1      -0.320   8.496  21.509  0.00  0.00    +0.000 C 
ATOM     29  C   UNL     1      -0.261  10.762  22.537  0.00  0.00    +0.000 A 
ATOM     30  N   UNL     1      -0.213  12.108  22.521  0.00  0.00    +0.000 NA
BRANCH  23  31
ATOM     31  C   UNL     1      -0.772  14.864  22.489  0.00  0.00    +0.000 C 
ATOM     32  C   UNL     1       0.013  16.104  22.953  0.00  0.00    +0.000 C 
ATOM     33  C   UNL     1      -2.250  15.196  22.256  0.00  0.00    +0.000 C 
ENDBRANCH  23  31
ENDBRANCH   8  23
TORSDOF 4
ENDMDL
MODEL 9
REMARK VINA RESULT:      -5.7      0.869      1.931
REMARK  Name = 
REMARK  10 active torsions:
REMARK  status: ('A' for Active; 'I' for Inactive)
REMARK    1  A    between atoms: C_1  and  O_2
REMARK    2  A    between atoms: O_2  and  C_3
REMARK    3  A    between atoms: C_8  and  C_9
REMARK    4  A    between atoms: C_10  and  N_11
REMARK    5  A    between atoms: C_18  and  N_19
REMARK    6  A    between atoms: N_19  and  C_27
REMARK    7  A    between atoms: C_23  and  C_24
REMARK    8  A    between atoms: C_27  and  C_28
REMARK    9  A    between atoms: C_27  and  C_29
REMARK   10  A    between atoms: N_31  and  C_32
REMARK                            x       y       z     vdW  Elec       q    Type
REMARK                         _______ _______ _______ _____ _____    ______ ____
ROOT
ATOM      1  N   UNL     1       3.410   6.694  18.392  0.00  0.00    +0.000 N 
ATOM      2  C   UNL     1       2.560   7.374  19.216  0.00  0.00    +0.000 A 
ATOM      3  N   UNL     1       2.038   6.978  20.345  0.00  0.00    +0.000 NA
ATOM      4  C   UNL     1       1.235   8.000  20.765  0.00  0.00    +0.000 A 
ATOM      5  C   UNL     1       0.440   7.982  21.921  0.00  0.00    +0.000 A 
ATOM      6  C   UNL     1      -0.287   9.106  22.252  0.00  0.00    +0.000 A 
ATOM      7  C   UNL     1      -0.231  10.224  21.426  0.00  0.00    +0.000 A 
ATOM      8  C   UNL     1       0.480  10.296  20.181  0.00  0.00    +0.000 A 
ATOM      9  C   UNL     1       1.250   9.111  19.897  0.00  0.00    +0.000 A 
ATOM     10  N   UNL     1       2.075   8.635  18.875  0.00  0.00    +0.000 N 
ATOM     11  C   UNL     1       2.317   9.170  17.557  0.00  0.00    +0.000 C 
ATOM     12  H   UNL     1       4.298   7.154  18.197  0.00  0.00    +0.000 HD
ENDROOT
BRANCH   1  20
ATOM     13  C   UNL     1       2.579   4.399  18.085  0.00  0.00    +0.000 A 
ATOM     14  C   UNL     1       2.774   3.011  18.098  0.00  0.00    +0.000 A 
ATOM     15  C   UNL     1       3.985   2.481  18.533  0.00  0.00    +0.000 A 
ATOM     16 CL   UNL     1       4.204   0.778  18.603  0.00  0.00    +0.000 Cl
ATOM     17  C   UNL     1       5.013   3.329  18.940  0.00  0.00    +0.000 A 
ATOM     18  C   UNL     1       4.849   4.727  18.914  0.00  0.00    +0.000 A 
ATOM     19  C   UNL     1       5.991   5.568  19.416  0.00  0.00    +0.000 C 
ATOM     20  C   UNL     1       3.633   5.282  18.448  0.00  0.00    +0.000 A 
BRANCH  13  22
ATOM     21  C   UNL     1       0.423   4.085  17.154  0.00  0.00    +0.000 C 
ATOM     22  O   UNL     1       1.384   4.982  17.714  0.00  0.00    +0.000 OA
ENDBRANCH  13  22
ENDBRANCH   1  20
BRANCH   8  23
ATOM     23  N   UNL     1       0.340  11.491  19.393  0.00  0.00    +0.000 N 
ATOM     24  C   UNL     1       1.158  12.645  19.420  0.00  0.00    +0.000 A 
ATOM     25  C   UNL     1       1.859  13.016  20.568  0.00  0.00    +0.000 A 
ATOM     26  C   UNL     1       2.762  14.086  20.520  0.00  0.00    +0.000 A 
ATOM     27  C   UNL     1       2.940  14.783  19.331  0.00  0.00    +0.000 A 
ATOM     28  C   UNL     1       3.941  15.878  19.170  0.00  0.00    +0.000 C 
ATOM     29  C   UNL     1       2.160  14.399  18.255  0.00  0.00    +0.000 A 
ATOM     30  N   UNL     1       1.292  13.369  18.289  0.00  0.00    +0.000 NA
BRANCH  23  31
ATOM     31  C   UNL     1      -0.931  11.675  18.601  0.00  0.00    +0.000 C 
ATOM     32  C   UNL     1      -1.382  10.360  17.943  0.00  0.00    +0.000 C 
ATOM     33  C   UNL     1      -2.083  12.342  19.362  0.00  0.00    +0.000 C 
ENDBRANCH  23  31
ENDBRANCH   8  23
TORSDOF 4
ENDMDL
