MODEL 1
REMARK VINA RESULT:      -8.2      0.000      0.000
REMARK  Name = 
REMARK  4 active torsions:
REMARK  status: ('A' for Active; 'I' for Inactive)
REMARK    1  A    between atoms: C_5  and  C_6
REMARK    2  A    between atoms: C_11  and  C_12
REMARK    3  A    between atoms: C_20  and  C_21
REMARK    4  A    between atoms: C_24  and  C_25
REMARK                            x       y       z     vdW  Elec       q    Type
REMARK                         _______ _______ _______ _____ _____    ______ ____
ROOT
ATOM      1  C   UNL     1      -0.596  12.993  18.684  0.00  0.00    +0.000 A 
ATOM      2  N   UNL     1      -0.524  14.362  18.568  0.00  0.00    +0.000 NA
ATOM      3  C   UNL     1       0.732  14.678  18.801  0.00  0.00    +0.000 A 
ATOM      4  C   UNL     1       1.382  15.938  18.853  0.00  0.00    +0.000 A 
ATOM      5  C   UNL     1       2.690  16.022  19.146  0.00  0.00    +0.000 A 
ATOM      6  C   UNL     1       3.495  14.831  19.397  0.00  0.00    +0.000 A 
ATOM      7  C   UNL     1       2.889  13.632  19.293  0.00  0.00    +0.000 A 
ATOM      8  N   UNL     1       1.513  13.545  19.027  0.00  0.00    +0.000 N 
ATOM      9  C   UNL     1       0.659  12.437  18.948  0.00  0.00    +0.000 A 
ENDROOT
BRANCH   1  14
ATOM     10  F   UNL     1      -5.566  10.550  17.869  0.00  0.00    +0.000 F 
ATOM     11  C   UNL     1      -4.361  11.093  18.086  0.00  0.00    +0.000 A 
ATOM     12  C   UNL     1      -4.142  11.852  19.229  0.00  0.00    +0.000 A 
ATOM     13  C   UNL     1      -2.894  12.450  19.435  0.00  0.00    +0.000 A 
ATOM     14  C   UNL     1      -1.859  12.280  18.501  0.00  0.00    +0.000 A 
ATOM     15  C   UNL     1      -2.088  11.448  17.392  0.00  0.00    +0.000 A 
ATOM     16  C   UNL     1      -3.346  10.888  17.163  0.00  0.00    +0.000 A 
ENDBRANCH   1  14
BRANCH   6  17
ATOM     17  C   UNL     1       4.915  14.869  19.787  0.00  0.00    +0.000 A 
ATOM     18  C   UNL     1       5.922  14.962  18.819  0.00  0.00    +0.000 A 
ATOM     19  C   UNL     1       7.264  14.985  19.203  0.00  0.00    +0.000 A 
ATOM     20  C   UNL     1       7.611  14.915  20.552  0.00  0.00    +0.000 A 
ATOM     21  C   UNL     1       6.614  14.824  21.523  0.00  0.00    +0.000 A 
ATOM     22  C   UNL     1       5.271  14.802  21.141  0.00  0.00    +0.000 A 
ENDBRANCH   6  17
BRANCH   9  23
ATOM     23  C   UNL     1       1.098  11.039  19.085  0.00  0.00    +0.000 A 
ATOM     24  C   UNL     1       1.810  10.410  18.065  0.00  0.00    +0.000 A 
ATOM     25  C   UNL     1       2.111   9.053  18.136  0.00  0.00    +0.000 A 
ATOM     26  C   UNL     1       1.842   8.296  19.287  0.00  0.00    +0.000 A 
ATOM     27  C   UNL     1       1.241   8.960  20.362  0.00  0.00    +0.000 A 
ATOM     28  C   UNL     1       0.829  10.294  20.242  0.00  0.00    +0.000 A 
BRANCH  26  29
ATOM     29  C   UNL     1       2.147   6.852  19.310  0.00  0.00    +0.000 A 
ATOM     30  C   UNL     1       2.633   6.201  18.160  0.00  0.00    +0.000 A 
ATOM     31  C   UNL     1       2.786   4.816  18.112  0.00  0.00    +0.000 A 
ATOM     32  C   UNL     1       2.491   4.051  19.231  0.00  0.00    +0.000 A 
ATOM     33  C   UNL     1       2.058   4.670  20.402  0.00  0.00    +0.000 A 
ATOM     34  C   UNL     1       1.886   6.058  20.440  0.00  0.00    +0.000 A 
ENDBRANCH  26  29
ENDBRANCH   9  23
TORSDOF 4
ENDMDL
MODEL 2
REMARK VINA RESULT:      -8.2      0.188      1.183
REMARK  Name = 
REMARK  4 active torsions:
REMARK  status: ('A' for Active; 'I' for Inactive)
REMARK    1  A    between atoms: C_5  and  C_6
REMARK    2  A    between atoms: C_11  and  C_12
REMARK    3  A    between atoms: C_20  and  C_21
REMARK    4  A    between atoms: C_24  and  C_25
REMARK                            x       y       z     vdW  Elec       q    Type
REMARK                         _______ _______ _______ _____ _____    ______ ____
ROOT
ATOM      1  C   UNL     1      -0.604  12.915  18.661  0.00  0.00    +0.000 A 
ATOM      2  N   UNL     1      -0.548  14.285  18.548  0.00  0.00    +0.000 NA
ATOM      3  C   UNL     1       0.708  14.613  18.763  0.00  0.00    +0.000 A 
ATOM      4  C   UNL     1       1.346  15.879  18.808  0.00  0.00    +0.000 A 
ATOM      5  C   UNL     1       2.657  15.977  19.082  0.00  0.00    +0.000 A 
ATOM      6  C   UNL     1       3.478  14.793  19.317  0.00  0.00    +0.000 A 
ATOM      7  C   UNL     1       2.883  13.588  19.220  0.00  0.00    +0.000 A 
ATOM      8  N   UNL     1       1.504  13.488  18.975  0.00  0.00    +0.000 N 
ATOM      9  C   UNL     1       0.660  12.371  18.905  0.00  0.00    +0.000 A 
ENDROOT
BRANCH   1  14
ATOM     10  F   UNL     1      -5.550  10.411  17.880  0.00  0.00    +0.000 F 
ATOM     11  C   UNL     1      -4.351  10.971  18.093  0.00  0.00    +0.000 A 
ATOM     12  C   UNL     1      -4.174  11.834  19.168  0.00  0.00    +0.000 A 
ATOM     13  C   UNL     1      -2.933  12.448  19.367  0.00  0.00    +0.000 A 
ATOM     14  C   UNL     1      -1.863  12.189  18.496  0.00  0.00    +0.000 A 
ATOM     15  C   UNL     1      -2.051  11.257  17.461  0.00  0.00    +0.000 A 
ATOM     16  C   UNL     1      -3.301  10.679  17.236  0.00  0.00    +0.000 A 
ENDBRANCH   1  14
BRANCH   6  17
ATOM     17  C   UNL     1       4.903  14.845  19.687  0.00  0.00    +0.000 A 
ATOM     18  C   UNL     1       5.296  14.834  21.031  0.00  0.00    +0.000 A 
ATOM     19  C   UNL     1       6.650  14.895  21.366  0.00  0.00    +0.000 A 
ATOM     20  C   UNL     1       7.619  14.967  20.366  0.00  0.00    +0.000 A 
ATOM     21  C   UNL     1       7.237  14.977  19.025  0.00  0.00    +0.000 A 
ATOM     22  C   UNL     1       5.884  14.915  18.687  0.00  0.00    +0.000 A 
ENDBRANCH   6  17
BRANCH   9  23
ATOM     23  C   UNL     1       1.116  10.977  19.032  0.00  0.00    +0.000 A 
ATOM     24  C   UNL     1       1.818  10.358  17.998  0.00  0.00    +0.000 A 
ATOM     25  C   UNL     1       2.134   9.004  18.062  0.00  0.00    +0.000 A 
ATOM     26  C   UNL     1       1.892   8.241  19.215  0.00  0.00    +0.000 A 
ATOM     27  C   UNL     1       1.301   8.897  20.301  0.00  0.00    +0.000 A 
ATOM     28  C   UNL     1       0.873  10.226  20.191  0.00  0.00    +0.000 A 
BRANCH  26  29
ATOM     29  C   UNL     1       2.212   6.801  19.230  0.00  0.00    +0.000 A 
ATOM     30  C   UNL     1       1.944   6.016  20.368  0.00  0.00    +0.000 A 
ATOM     31  C   UNL     1       2.371   4.693  20.463  0.00  0.00    +0.000 A 
ATOM     32  C   UNL     1       3.048   4.110  19.401  0.00  0.00    +0.000 A 
ATOM     33  C   UNL     1       3.282   4.842  18.239  0.00  0.00    +0.000 A 
ATOM     34  C   UNL     1       2.870   6.178  18.156  0.00  0.00    +0.000 A 
ENDBRANCH  26  29
ENDBRANCH   9  23
TORSDOF 4
ENDMDL
MODEL 3
REMARK VINA RESULT:      -8.1      3.428      8.101
REMARK  Name = 
REMARK  4 active torsions:
REMARK  status: ('A' for Active; 'I' for Inactive)
REMARK    1  A    between atoms: C_5  and  C_6
REMARK    2  A    between atoms: C_11  and  C_12
REMARK    3  A    between atoms: C_20  and  C_21
REMARK    4  A    between atoms: C_24  and  C_25
REMARK                            x       y       z     vdW  Elec       q    Type
REMARK                         _______ _______ _______ _____ _____    ______ ____
ROOT
ATOM      1  C   UNL     1      -1.360  11.956  22.860  0.00  0.00    +0.000 A 
ATOM      2  N   UNL     1      -1.324  10.719  23.462  0.00  0.00    +0.000 NA
ATOM      3  C   UNL     1      -0.572   9.964  22.690  0.00  0.00    +0.000 A 
ATOM      4  C   UNL     1      -0.213   8.595  22.790  0.00  0.00    +0.000 A 
ATOM      5  C   UNL     1       0.552   8.017  21.851  0.00  0.00    +0.000 A 
ATOM      6  C   UNL     1       1.063   8.773  20.712  0.00  0.00    +0.000 A 
ATOM      7  C   UNL     1       0.767  10.085  20.646  0.00  0.00    +0.000 A 
ATOM      8  N   UNL     1      -0.067  10.680  21.606  0.00  0.00    +0.000 N 
ATOM      9  C   UNL     1      -0.569  11.985  21.708  0.00  0.00    +0.000 A 
ENDROOT
BRANCH   1  14
ATOM     10  F   UNL     1      -4.274  16.337  24.770  0.00  0.00    +0.000 F 
ATOM     11  C   UNL     1      -3.574  15.271  24.359  0.00  0.00    +0.000 A 
ATOM     12  C   UNL     1      -2.191  15.353  24.252  0.00  0.00    +0.000 A 
ATOM     13  C   UNL     1      -1.465  14.251  23.786  0.00  0.00    +0.000 A 
ATOM     14  C   UNL     1      -2.123  13.061  23.438  0.00  0.00    +0.000 A 
ATOM     15  C   UNL     1      -3.514  12.984  23.625  0.00  0.00    +0.000 A 
ATOM     16  C   UNL     1      -4.243  14.097  24.048  0.00  0.00    +0.000 A 
ENDBRANCH   1  14
BRANCH   6  17
ATOM     17  C   UNL     1       1.850   8.175  19.619  0.00  0.00    +0.000 A 
ATOM     18  C   UNL     1       2.373   6.881  19.737  0.00  0.00    +0.000 A 
ATOM     19  C   UNL     1       3.126   6.332  18.698  0.00  0.00    +0.000 A 
ATOM     20  C   UNL     1       3.364   7.067  17.537  0.00  0.00    +0.000 A 
ATOM     21  C   UNL     1       2.846   8.356  17.410  0.00  0.00    +0.000 A 
ATOM     22  C   UNL     1       2.091   8.906  18.447  0.00  0.00    +0.000 A 
ENDBRANCH   6  17
BRANCH   9  23
ATOM     23  C   UNL     1      -0.238  13.077  20.777  0.00  0.00    +0.000 A 
ATOM     24  C   UNL     1       0.805  13.959  21.053  0.00  0.00    +0.000 A 
ATOM     25  C   UNL     1       1.034  15.068  20.243  0.00  0.00    +0.000 A 
ATOM     26  C   UNL     1       0.328  15.268  19.047  0.00  0.00    +0.000 A 
ATOM     27  C   UNL     1      -0.634  14.311  18.705  0.00  0.00    +0.000 A 
ATOM     28  C   UNL     1      -0.947  13.263  19.582  0.00  0.00    +0.000 A 
BRANCH  26  29
ATOM     29  C   UNL     1       0.578  16.474  18.233  0.00  0.00    +0.000 A 
ATOM     30  C   UNL     1      -0.490  17.276  17.789  0.00  0.00    +0.000 A 
ATOM     31  C   UNL     1      -0.293  18.330  16.899  0.00  0.00    +0.000 A 
ATOM     32  C   UNL     1       0.988  18.631  16.459  0.00  0.00    +0.000 A 
ATOM     33  C   UNL     1       2.073  17.889  16.920  0.00  0.00    +0.000 A 
ATOM     34  C   UNL     1       1.869  16.818  17.797  0.00  0.00    +0.000 A 
ENDBRANCH  26  29
ENDBRANCH   9  23
TORSDOF 4
ENDMDL
MODEL 4
REMARK VINA RESULT:      -8.1      0.669      1.126
REMARK  Name = 
REMARK  4 active torsions:
REMARK  status: ('A' for Active; 'I' for Inactive)
REMARK    1  A    between atoms: C_5  and  C_6
REMARK    2  A    between atoms: C_11  and  C_12
REMARK    3  A    between atoms: C_20  and  C_21
REMARK    4  A    between atoms: C_24  and  C_25
REMARK                            x       y       z     vdW  Elec       q    Type
REMARK                         _______ _______ _______ _____ _____    ______ ____
ROOT
ATOM      1  C   UNL     1      -0.771  12.926  19.016  0.00  0.00    +0.000 A 
ATOM      2  N   UNL     1      -0.688  14.298  19.078  0.00  0.00    +0.000 NA
ATOM      3  C   UNL     1       0.538  14.568  19.470  0.00  0.00    +0.000 A 
ATOM      4  C   UNL     1       1.180  15.804  19.741  0.00  0.00    +0.000 A 
ATOM      5  C   UNL     1       2.451  15.837  20.170  0.00  0.00    +0.000 A 
ATOM      6  C   UNL     1       3.228  14.614  20.349  0.00  0.00    +0.000 A 
ATOM      7  C   UNL     1       2.637  13.444  20.038  0.00  0.00    +0.000 A 
ATOM      8  N   UNL     1       1.294  13.407  19.630  0.00  0.00    +0.000 N 
ATOM      9  C   UNL     1       0.452  12.327  19.331  0.00  0.00    +0.000 A 
ENDROOT
BRANCH   1  14
ATOM     10  F   UNL     1      -5.629  10.658  17.407  0.00  0.00    +0.000 F 
ATOM     11  C   UNL     1      -4.454  11.157  17.812  0.00  0.00    +0.000 A 
ATOM     12  C   UNL     1      -4.366  11.808  19.036  0.00  0.00    +0.000 A 
ATOM     13  C   UNL     1      -3.146  12.363  19.440  0.00  0.00    +0.000 A 
ATOM     14  C   UNL     1      -2.009  12.256  18.623  0.00  0.00    +0.000 A 
ATOM     15  C   UNL     1      -2.112  11.529  17.424  0.00  0.00    +0.000 A 
ATOM     16  C   UNL     1      -3.338  11.014  17.000  0.00  0.00    +0.000 A 
ENDBRANCH   1  14
BRANCH   6  17
ATOM     17  C   UNL     1       4.603  14.587  20.878  0.00  0.00    +0.000 A 
ATOM     18  C   UNL     1       5.679  15.035  20.102  0.00  0.00    +0.000 A 
ATOM     19  C   UNL     1       6.978  14.993  20.613  0.00  0.00    +0.000 A 
ATOM     20  C   UNL     1       7.212  14.504  21.898  0.00  0.00    +0.000 A 
ATOM     21  C   UNL     1       6.146  14.057  22.678  0.00  0.00    +0.000 A 
ATOM     22  C   UNL     1       4.847  14.100  22.170  0.00  0.00    +0.000 A 
ENDBRANCH   6  17
BRANCH   9  23
ATOM     23  C   UNL     1       0.877  10.917  19.336  0.00  0.00    +0.000 A 
ATOM     24  C   UNL     1       0.630  10.101  20.439  0.00  0.00    +0.000 A 
ATOM     25  C   UNL     1       1.145   8.810  20.500  0.00  0.00    +0.000 A 
ATOM     26  C   UNL     1       1.807   8.225  19.409  0.00  0.00    +0.000 A 
ATOM     27  C   UNL     1       1.944   9.004  18.254  0.00  0.00    +0.000 A 
ATOM     28  C   UNL     1       1.532  10.343  18.238  0.00  0.00    +0.000 A 
BRANCH  26  29
ATOM     29  C   UNL     1       2.368   6.865  19.525  0.00  0.00    +0.000 A 
ATOM     30  C   UNL     1       3.308   6.392  18.589  0.00  0.00    +0.000 A 
ATOM     31  C   UNL     1       3.738   5.066  18.590  0.00  0.00    +0.000 A 
ATOM     32  C   UNL     1       3.263   4.188  19.554  0.00  0.00    +0.000 A 
ATOM     33  C   UNL     1       2.373   4.638  20.526  0.00  0.00    +0.000 A 
ATOM     34  C   UNL     1       1.927   5.965  20.510  0.00  0.00    +0.000 A 
ENDBRANCH  26  29
ENDBRANCH   9  23
TORSDOF 4
ENDMDL
MODEL 5
REMARK VINA RESULT:      -8.1      0.600      1.052
REMARK  Name = 
REMARK  4 active torsions:
REMARK  status: ('A' for Active; 'I' for Inactive)
REMARK    1  A    between atoms: C_5  and  C_6
REMARK    2  A    between atoms: C_11  and  C_12
REMARK    3  A    between atoms: C_20  and  C_21
REMARK    4  A    between atoms: C_24  and  C_25
REMARK                            x       y       z     vdW  Elec       q    Type
REMARK                         _______ _______ _______ _____ _____    ______ ____
ROOT
ATOM      1  C   UNL     1      -0.595  12.957  18.689  0.00  0.00    +0.000 A 
ATOM      2  N   UNL     1      -0.510  14.325  18.574  0.00  0.00    +0.000 NA
ATOM      3  C   UNL     1       0.774  14.611  18.616  0.00  0.00    +0.000 A 
ATOM      4  C   UNL     1       1.453  15.856  18.578  0.00  0.00    +0.000 A 
ATOM      5  C   UNL     1       2.791  15.909  18.669  0.00  0.00    +0.000 A 
ATOM      6  C   UNL     1       3.597  14.698  18.784  0.00  0.00    +0.000 A 
ATOM      7  C   UNL     1       2.955  13.513  18.765  0.00  0.00    +0.000 A 
ATOM      8  N   UNL     1       1.554  13.459  18.711  0.00  0.00    +0.000 N 
ATOM      9  C   UNL     1       0.672  12.370  18.754  0.00  0.00    +0.000 A 
ENDROOT
BRANCH   1  14
ATOM     10  F   UNL     1      -5.677  10.612  18.565  0.00  0.00    +0.000 F 
ATOM     11  C   UNL     1      -4.445  11.134  18.622  0.00  0.00    +0.000 A 
ATOM     12  C   UNL     1      -4.126  12.042  19.624  0.00  0.00    +0.000 A 
ATOM     13  C   UNL     1      -2.850  12.616  19.658  0.00  0.00    +0.000 A 
ATOM     14  C   UNL     1      -1.888  12.273  18.695  0.00  0.00    +0.000 A 
ATOM     15  C   UNL     1      -2.216  11.298  17.738  0.00  0.00    +0.000 A 
ATOM     16  C   UNL     1      -3.502  10.759  17.676  0.00  0.00    +0.000 A 
ENDBRANCH   1  14
BRANCH   6  17
ATOM     17  C   UNL     1       5.061  14.700  18.954  0.00  0.00    +0.000 A 
ATOM     18  C   UNL     1       5.910  14.506  17.857  0.00  0.00    +0.000 A 
ATOM     19  C   UNL     1       7.295  14.500  18.035  0.00  0.00    +0.000 A 
ATOM     20  C   UNL     1       7.841  14.686  19.304  0.00  0.00    +0.000 A 
ATOM     21  C   UNL     1       7.004  14.881  20.402  0.00  0.00    +0.000 A 
ATOM     22  C   UNL     1       5.619  14.889  20.226  0.00  0.00    +0.000 A 
ENDBRANCH   6  17
BRANCH   9  23
ATOM     23  C   UNL     1       1.095  10.962  18.811  0.00  0.00    +0.000 A 
ATOM     24  C   UNL     1       0.797  10.171  19.920  0.00  0.00    +0.000 A 
ATOM     25  C   UNL     1       1.308   8.881  20.034  0.00  0.00    +0.000 A 
ATOM     26  C   UNL     1       2.019   8.272  18.988  0.00  0.00    +0.000 A 
ATOM     27  C   UNL     1       2.209   9.024  17.823  0.00  0.00    +0.000 A 
ATOM     28  C   UNL     1       1.800  10.362  17.758  0.00  0.00    +0.000 A 
BRANCH  26  29
ATOM     29  C   UNL     1       2.572   6.915  19.162  0.00  0.00    +0.000 A 
ATOM     30  C   UNL     1       3.503   6.395  18.242  0.00  0.00    +0.000 A 
ATOM     31  C   UNL     1       3.926   5.068  18.299  0.00  0.00    +0.000 A 
ATOM     32  C   UNL     1       3.453   4.237  19.304  0.00  0.00    +0.000 A 
ATOM     33  C   UNL     1       2.571   4.735  20.261  0.00  0.00    +0.000 A 
ATOM     34  C   UNL     1       2.132   6.062  20.188  0.00  0.00    +0.000 A 
ENDBRANCH  26  29
ENDBRANCH   9  23
TORSDOF 4
ENDMDL
MODEL 6
REMARK VINA RESULT:      -8.0      0.673      1.593
REMARK  Name = 
REMARK  4 active torsions:
REMARK  status: ('A' for Active; 'I' for Inactive)
REMARK    1  A    between atoms: C_5  and  C_6
REMARK    2  A    between atoms: C_11  and  C_12
REMARK    3  A    between atoms: C_20  and  C_21
REMARK    4  A    between atoms: C_24  and  C_25
REMARK                            x       y       z     vdW  Elec       q    Type
REMARK                         _______ _______ _______ _____ _____    ______ ____
ROOT
ATOM      1  C   UNL     1      -0.575  13.220  18.843  0.00  0.00    +0.000 A 
ATOM      2  N   UNL     1      -0.453  14.588  18.758  0.00  0.00    +0.000 NA
ATOM      3  C   UNL     1       0.839  14.835  18.767  0.00  0.00    +0.000 A 
ATOM      4  C   UNL     1       1.553  16.061  18.738  0.00  0.00    +0.000 A 
ATOM      5  C   UNL     1       2.895  16.074  18.790  0.00  0.00    +0.000 A 
ATOM      6  C   UNL     1       3.668  14.837  18.852  0.00  0.00    +0.000 A 
ATOM      7  C   UNL     1       2.991  13.673  18.824  0.00  0.00    +0.000 A 
ATOM      8  N   UNL     1       1.588  13.660  18.812  0.00  0.00    +0.000 N 
ATOM      9  C   UNL     1       0.676  12.596  18.856  0.00  0.00    +0.000 A 
ENDROOT
BRANCH   1  14
ATOM     10  F   UNL     1      -5.728  11.033  18.843  0.00  0.00    +0.000 F 
ATOM     11  C   UNL     1      -4.479  11.515  18.865  0.00  0.00    +0.000 A 
ATOM     12  C   UNL     1      -4.067  12.316  19.922  0.00  0.00    +0.000 A 
ATOM     13  C   UNL     1      -2.773  12.850  19.925  0.00  0.00    +0.000 A 
ATOM     14  C   UNL     1      -1.886  12.574  18.873  0.00  0.00    +0.000 A 
ATOM     15  C   UNL     1      -2.307  11.702  17.853  0.00  0.00    +0.000 A 
ATOM     16  C   UNL     1      -3.611  11.205  17.828  0.00  0.00    +0.000 A 
ENDBRANCH   1  14
BRANCH   6  17
ATOM     17  C   UNL     1       5.135  14.794  18.978  0.00  0.00    +0.000 A 
ATOM     18  C   UNL     1       5.755  14.992  20.218  0.00  0.00    +0.000 A 
ATOM     19  C   UNL     1       7.147  14.959  20.320  0.00  0.00    +0.000 A 
ATOM     20  C   UNL     1       7.929  14.731  19.189  0.00  0.00    +0.000 A 
ATOM     21  C   UNL     1       7.321  14.533  17.949  0.00  0.00    +0.000 A 
ATOM     22  C   UNL     1       5.929  14.563  17.845  0.00  0.00    +0.000 A 
ENDBRANCH   6  17
BRANCH   9  23
ATOM     23  C   UNL     1       1.059  11.175  18.867  0.00  0.00    +0.000 A 
ATOM     24  C   UNL     1       0.709  10.350  19.935  0.00  0.00    +0.000 A 
ATOM     25  C   UNL     1       1.182   9.042  20.010  0.00  0.00    +0.000 A 
ATOM     26  C   UNL     1       1.905   8.456  18.960  0.00  0.00    +0.000 A 
ATOM     27  C   UNL     1       2.147   9.247  17.831  0.00  0.00    +0.000 A 
ATOM     28  C   UNL     1       1.776  10.598  17.810  0.00  0.00    +0.000 A 
BRANCH  26  29
ATOM     29  C   UNL     1       2.416   7.078  19.093  0.00  0.00    +0.000 A 
ATOM     30  C   UNL     1       2.029   6.269  20.178  0.00  0.00    +0.000 A 
ATOM     31  C   UNL     1       2.611   5.023  20.407  0.00  0.00    +0.000 A 
ATOM     32  C   UNL     1       3.572   4.540  19.530  0.00  0.00    +0.000 A 
ATOM     33  C   UNL     1       3.940   5.293  18.417  0.00  0.00    +0.000 A 
ATOM     34  C   UNL     1       3.368   6.553  18.203  0.00  0.00    +0.000 A 
ENDBRANCH  26  29
ENDBRANCH   9  23
TORSDOF 4
ENDMDL
MODEL 7
REMARK VINA RESULT:      -8.0      0.740      1.134
REMARK  Name = 
REMARK  4 active torsions:
REMARK  status: ('A' for Active; 'I' for Inactive)
REMARK    1  A    between atoms: C_5  and  C_6
REMARK    2  A    between atoms: C_11  and  C_12
REMARK    3  A    between atoms: C_20  and  C_21
REMARK    4  A    between atoms: C_24  and  C_25
REMARK                            x       y       z     vdW  Elec       q    Type
REMARK                         _______ _______ _______ _____ _____    ______ ____
ROOT
ATOM      1  C   UNL     1      -0.742  12.894  19.196  0.00  0.00    +0.000 A 
ATOM      2  N   UNL     1      -0.688  14.268  19.243  0.00  0.00    +0.000 NA
ATOM      3  C   UNL     1       0.531  14.568  19.637  0.00  0.00    +0.000 A 
ATOM      4  C   UNL     1       1.145  15.820  19.897  0.00  0.00    +0.000 A 
ATOM      5  C   UNL     1       2.414  15.884  20.329  0.00  0.00    +0.000 A 
ATOM      6  C   UNL     1       3.216  14.680  20.524  0.00  0.00    +0.000 A 
ATOM      7  C   UNL     1       2.650  13.495  20.225  0.00  0.00    +0.000 A 
ATOM      8  N   UNL     1       1.310  13.425  19.812  0.00  0.00    +0.000 N 
ATOM      9  C   UNL     1       0.492  12.324  19.522  0.00  0.00    +0.000 A 
ENDROOT
BRANCH   1  14
ATOM     10  F   UNL     1      -5.522  10.493  17.545  0.00  0.00    +0.000 F 
ATOM     11  C   UNL     1      -4.368  11.027  17.967  0.00  0.00    +0.000 A 
ATOM     12  C   UNL     1      -4.361  11.863  19.077  0.00  0.00    +0.000 A 
ATOM     13  C   UNL     1      -3.161  12.451  19.494  0.00  0.00    +0.000 A 
ATOM     14  C   UNL     1      -1.965  12.194  18.806  0.00  0.00    +0.000 A 
ATOM     15  C   UNL     1      -1.991  11.288  17.732  0.00  0.00    +0.000 A 
ATOM     16  C   UNL     1      -3.194  10.736  17.288  0.00  0.00    +0.000 A 
ENDBRANCH   1  14
BRANCH   6  17
ATOM     17  C   UNL     1       4.589  14.687  21.059  0.00  0.00    +0.000 A 
ATOM     18  C   UNL     1       4.904  13.992  22.233  0.00  0.00    +0.000 A 
ATOM     19  C   UNL     1       6.207  14.017  22.734  0.00  0.00    +0.000 A 
ATOM     20  C   UNL     1       7.202  14.735  22.071  0.00  0.00    +0.000 A 
ATOM     21  C   UNL     1       6.897  15.429  20.900  0.00  0.00    +0.000 A 
ATOM     22  C   UNL     1       5.595  15.404  20.396  0.00  0.00    +0.000 A 
ENDBRANCH   6  17
BRANCH   9  23
ATOM     23  C   UNL     1       0.946  10.924  19.544  0.00  0.00    +0.000 A 
ATOM     24  C   UNL     1       1.533  10.346  18.420  0.00  0.00    +0.000 A 
ATOM     25  C   UNL     1       1.842   8.988  18.395  0.00  0.00    +0.000 A 
ATOM     26  C   UNL     1       1.711   8.179  19.535  0.00  0.00    +0.000 A 
ATOM     27  C   UNL     1       1.240   8.792  20.702  0.00  0.00    +0.000 A 
ATOM     28  C   UNL     1       0.816  10.127  20.691  0.00  0.00    +0.000 A 
BRANCH  26  29
ATOM     29  C   UNL     1       2.018   6.738  19.458  0.00  0.00    +0.000 A 
ATOM     30  C   UNL     1       2.468   6.162  18.254  0.00  0.00    +0.000 A 
ATOM     31  C   UNL     1       2.621   4.783  18.115  0.00  0.00    +0.000 A 
ATOM     32  C   UNL     1       2.362   3.949  19.193  0.00  0.00    +0.000 A 
ATOM     33  C   UNL     1       1.966   4.491  20.413  0.00  0.00    +0.000 A 
ATOM     34  C   UNL     1       1.793   5.874  20.543  0.00  0.00    +0.000 A 
ENDBRANCH  26  29
ENDBRANCH   9  23
TORSDOF 4
ENDMDL
MODEL 8
REMARK VINA RESULT:      -7.9      0.290      1.193
REMARK  Name = 
REMARK  4 active torsions:
REMARK  status: ('A' for Active; 'I' for Inactive)
REMARK    1  A    between atoms: C_5  and  C_6
REMARK    2  A    between atoms: C_11  and  C_12
REMARK    3  A    between atoms: C_20  and  C_21
REMARK    4  A    between atoms: C_24  and  C_25
REMARK                            x       y       z     vdW  Elec       q    Type
REMARK                         _______ _______ _______ _____ _____    ______ ____
ROOT
ATOM      1  C   UNL     1      -0.614  12.839  18.669  0.00  0.00    +0.000 A 
ATOM      2  N   UNL     1      -0.552  14.210  18.563  0.00  0.00    +0.000 NA
ATOM      3  C   UNL     1       0.691  14.537  18.843  0.00  0.00    +0.000 A 
ATOM      4  C   UNL     1       1.326  15.803  18.925  0.00  0.00    +0.000 A 
ATOM      5  C   UNL     1       2.621  15.899  19.265  0.00  0.00    +0.000 A 
ATOM      6  C   UNL     1       3.429  14.715  19.537  0.00  0.00    +0.000 A 
ATOM      7  C   UNL     1       2.840  13.510  19.405  0.00  0.00    +0.000 A 
ATOM      8  N   UNL     1       1.476  13.411  19.090  0.00  0.00    +0.000 N 
ATOM      9  C   UNL     1       0.637  12.294  18.974  0.00  0.00    +0.000 A 
ENDROOT
BRANCH   1  14
ATOM     10  F   UNL     1      -5.278   9.821  17.983  0.00  0.00    +0.000 F 
ATOM     11  C   UNL     1      -4.179  10.575  18.113  0.00  0.00    +0.000 A 
ATOM     12  C   UNL     1      -3.044  10.274  17.370  0.00  0.00    +0.000 A 
ATOM     13  C   UNL     1      -1.884  11.039  17.535  0.00  0.00    +0.000 A 
ATOM     14  C   UNL     1      -1.862  12.115  18.437  0.00  0.00    +0.000 A 
ATOM     15  C   UNL     1      -3.047  12.440  19.120  0.00  0.00    +0.000 A 
ATOM     16  C   UNL     1      -4.190  11.650  18.989  0.00  0.00    +0.000 A 
ENDBRANCH   1  14
BRANCH   6  17
ATOM     17  C   UNL     1       4.834  14.765  19.978  0.00  0.00    +0.000 A 
ATOM     18  C   UNL     1       5.169  14.588  21.326  0.00  0.00    +0.000 A 
ATOM     19  C   UNL     1       6.504  14.649  21.731  0.00  0.00    +0.000 A 
ATOM     20  C   UNL     1       7.511  14.887  20.797  0.00  0.00    +0.000 A 
ATOM     21  C   UNL     1       7.188  15.064  19.452  0.00  0.00    +0.000 A 
ATOM     22  C   UNL     1       5.854  15.001  19.045  0.00  0.00    +0.000 A 
ENDBRANCH   6  17
BRANCH   9  23
ATOM     23  C   UNL     1       1.086  10.900  19.118  0.00  0.00    +0.000 A 
ATOM     24  C   UNL     1       1.782  10.264  18.092  0.00  0.00    +0.000 A 
ATOM     25  C   UNL     1       2.091   8.909  18.172  0.00  0.00    +0.000 A 
ATOM     26  C   UNL     1       1.848   8.163  19.336  0.00  0.00    +0.000 A 
ATOM     27  C   UNL     1       1.262   8.836  20.415  0.00  0.00    +0.000 A 
ATOM     28  C   UNL     1       0.842  10.166  20.288  0.00  0.00    +0.000 A 
BRANCH  26  29
ATOM     29  C   UNL     1       2.160   6.721  19.369  0.00  0.00    +0.000 A 
ATOM     30  C   UNL     1       2.639   6.062  18.221  0.00  0.00    +0.000 A 
ATOM     31  C   UNL     1       2.800   4.678  18.184  0.00  0.00    +0.000 A 
ATOM     32  C   UNL     1       2.518   3.922  19.312  0.00  0.00    +0.000 A 
ATOM     33  C   UNL     1       2.092   4.548  20.481  0.00  0.00    +0.000 A 
ATOM     34  C   UNL     1       1.912   5.936  20.508  0.00  0.00    +0.000 A 
ENDBRANCH  26  29
ENDBRANCH   9  23
TORSDOF 4
ENDMDL
MODEL 9
REMARK VINA RESULT:      -7.8      2.847      7.275
REMARK  Name = 
REMARK  4 active torsions:
REMARK  status: ('A' for Active; 'I' for Inactive)
REMARK    1  A    between atoms: C_5  and  C_6
REMARK    2  A    between atoms: C_11  and  C_12
REMARK    3  A    between atoms: C_20  and  C_21
REMARK    4  A    between atoms: C_24  and  C_25
REMARK                            x       y       z     vdW  Elec       q    Type
REMARK                         _______ _______ _______ _____ _____    ______ ____
ROOT
ATOM      1  C   UNL     1       0.301  14.401  20.404  0.00  0.00    +0.000 A 
ATOM      2  N   UNL     1      -0.572  15.424  20.693  0.00  0.00    +0.000 NA
ATOM      3  C   UNL     1      -1.772  14.885  20.692  0.00  0.00    +0.000 A 
ATOM      4  C   UNL     1      -3.053  15.461  20.891  0.00  0.00    +0.000 A 
ATOM      5  C   UNL     1      -4.163  14.709  20.811  0.00  0.00    +0.000 A 
ATOM      6  C   UNL     1      -4.096  13.276  20.544  0.00  0.00    +0.000 A 
ATOM      7  C   UNL     1      -2.876  12.719  20.410  0.00  0.00    +0.000 A 
ATOM      8  N   UNL     1      -1.719  13.512  20.452  0.00  0.00    +0.000 N 
ATOM      9  C   UNL     1      -0.369  13.182  20.267  0.00  0.00    +0.000 A 
ENDROOT
BRANCH   1  14
ATOM     10  F   UNL     1       5.860  14.966  20.054  0.00  0.00    +0.000 F 
ATOM     11  C   UNL     1       4.525  14.880  20.139  0.00  0.00    +0.000 A 
ATOM     12  C   UNL     1       3.923  14.719  21.381  0.00  0.00    +0.000 A 
ATOM     13  C   UNL     1       2.532  14.592  21.465  0.00  0.00    +0.000 A 
ATOM     14  C   UNL     1       1.741  14.636  20.306  0.00  0.00    +0.000 A 
ATOM     15  C   UNL     1       2.372  14.872  19.073  0.00  0.00    +0.000 A 
ATOM     16  C   UNL     1       3.763  14.955  18.983  0.00  0.00    +0.000 A 
ENDBRANCH   1  14
BRANCH   6  17
ATOM     17  C   UNL     1      -5.281  12.417  20.380  0.00  0.00    +0.000 A 
ATOM     18  C   UNL     1      -5.445  11.632  19.232  0.00  0.00    +0.000 A 
ATOM     19  C   UNL     1      -6.579  10.831  19.085  0.00  0.00    +0.000 A 
ATOM     20  C   UNL     1      -7.556  10.808  20.079  0.00  0.00    +0.000 A 
ATOM     21  C   UNL     1      -7.401  11.585  21.227  0.00  0.00    +0.000 A 
ATOM     22  C   UNL     1      -6.267  12.385  21.377  0.00  0.00    +0.000 A 
ENDBRANCH   6  17
BRANCH   9  23
ATOM     23  C   UNL     1       0.127  11.816  20.031  0.00  0.00    +0.000 A 
ATOM     24  C   UNL     1       0.112  10.865  21.051  0.00  0.00    +0.000 A 
ATOM     25  C   UNL     1       0.699   9.616  20.869  0.00  0.00    +0.000 A 
ATOM     26  C   UNL     1       1.200   9.209  19.623  0.00  0.00    +0.000 A 
ATOM     27  C   UNL     1       1.099  10.120  18.565  0.00  0.00    +0.000 A 
ATOM     28  C   UNL     1       0.619  11.419  18.780  0.00  0.00    +0.000 A 
BRANCH  26  29
ATOM     29  C   UNL     1       1.845   7.889  19.480  0.00  0.00    +0.000 A 
ATOM     30  C   UNL     1       2.555   7.558  18.310  0.00  0.00    +0.000 A 
ATOM     31  C   UNL     1       3.043   6.272  18.089  0.00  0.00    +0.000 A 
ATOM     32  C   UNL     1       2.864   5.291  19.054  0.00  0.00    +0.000 A 
ATOM     33  C   UNL     1       2.212   5.600  20.246  0.00  0.00    +0.000 A 
ATOM     34  C   UNL     1       1.704   6.887  20.456  0.00  0.00    +0.000 A 
ENDBRANCH  26  29
ENDBRANCH   9  23
TORSDOF 4
ENDMDL
