MODEL 1
REMARK VINA RESULT:      -7.4      0.000      0.000
REMARK  Name = 
REMARK  2 active torsions:
REMARK  status: ('A' for Active; 'I' for Inactive)
REMARK    1  A    between atoms: C_2  and  C_3
REMARK    2  A    between atoms: C_13  and  C_14
REMARK                            x       y       z     vdW  Elec       q    Type
REMARK                         _______ _______ _______ _____ _____    ______ ____
ROOT
ATOM      1  O   UNL     1       3.852   5.816  17.865  0.00  0.00    +0.000 OA
ATOM      2  C   UNL     1       4.034   4.767  17.245  0.00  0.00    +0.000 C 
ATOM      3  N   UNL     1       5.126   4.577  16.399  0.00  0.00    +0.000 N 
ATOM      4  N   UNL     1       5.201   3.486  15.560  0.00  0.00    +0.000 NA
ATOM      5  C   UNL     1       6.130   3.747  14.698  0.00  0.00    +0.000 C 
ATOM      6  C   UNL     1       6.842   5.047  14.859  0.00  0.00    +0.000 C 
ATOM      7  C   UNL     1       5.997   5.675  15.964  0.00  0.00    +0.000 C 
ENDROOT
BRANCH   2   8
ATOM      8  C   UNL     1       3.048   3.589  17.343  0.00  0.00    +0.000 C 
ATOM      9  C   UNL     1       3.573   2.468  18.245  0.00  0.00    +0.000 C 
ATOM     10  C   UNL     1       3.400   2.773  19.730  0.00  0.00    +0.000 C 
ATOM     11  C   UNL     1       1.950   3.093  20.072  0.00  0.00    +0.000 C 
ATOM     12  C   UNL     1       1.400   4.234  19.225  0.00  0.00    +0.000 C 
ATOM     13  C   UNL     1       1.631   4.035  17.731  0.00  0.00    +0.000 C 
ENDBRANCH   2   8
BRANCH   7  14
ATOM     14  C   UNL     1       6.847   6.300  17.049  0.00  0.00    +0.000 A 
ATOM     15  C   UNL     1       7.180   7.663  16.970  0.00  0.00    +0.000 A 
ATOM     16  C   UNL     1       7.989   8.257  17.938  0.00  0.00    +0.000 A 
ATOM     17  C   UNL     1       8.480   7.497  18.998  0.00  0.00    +0.000 A 
ATOM     18  C   UNL     1       8.154   6.144  19.092  0.00  0.00    +0.000 A 
ATOM     19  C   UNL     1       7.341   5.549  18.126  0.00  0.00    +0.000 A 
ENDBRANCH   7  14
TORSDOF 2
ENDMDL
MODEL 2
REMARK VINA RESULT:      -7.3      0.199      1.125
REMARK  Name = 
REMARK  2 active torsions:
REMARK  status: ('A' for Active; 'I' for Inactive)
REMARK    1  A    between atoms: C_2  and  C_3
REMARK    2  A    between atoms: C_13  and  C_14
REMARK                            x       y       z     vdW  Elec       q    Type
REMARK                         _______ _______ _______ _____ _____    ______ ____
ROOT
ATOM      1  O   UNL     1       3.891   5.640  18.102  0.00  0.00    +0.000 OA
ATOM      2  C   UNL     1       4.050   4.624  17.423  0.00  0.00    +0.000 C 
ATOM      3  N   UNL     1       5.068   4.507  16.477  0.00  0.00    +0.000 N 
ATOM      4  N   UNL     1       5.102   3.456  15.587  0.00  0.00    +0.000 NA
ATOM      5  C   UNL     1       5.942   3.783  14.660  0.00  0.00    +0.000 C 
ATOM      6  C   UNL     1       6.627   5.099  14.817  0.00  0.00    +0.000 C 
ATOM      7  C   UNL     1       5.864   5.652  16.018  0.00  0.00    +0.000 C 
ENDROOT
BRANCH   2   8
ATOM      8  C   UNL     1       3.112   3.411  17.553  0.00  0.00    +0.000 C 
ATOM      9  C   UNL     1       3.642   2.375  18.549  0.00  0.00    +0.000 C 
ATOM     10  C   UNL     1       3.384   2.765  20.001  0.00  0.00    +0.000 C 
ATOM     11  C   UNL     1       1.907   3.039  20.256  0.00  0.00    +0.000 C 
ATOM     12  C   UNL     1       1.349   4.096  19.313  0.00  0.00    +0.000 C 
ATOM     13  C   UNL     1       1.660   3.815  17.846  0.00  0.00    +0.000 C 
ENDBRANCH   2   8
BRANCH   7  14
ATOM     14  C   UNL     1       6.787   6.259  17.052  0.00  0.00    +0.000 A 
ATOM     15  C   UNL     1       7.274   5.460  18.101  0.00  0.00    +0.000 A 
ATOM     16  C   UNL     1       8.099   6.002  19.087  0.00  0.00    +0.000 A 
ATOM     17  C   UNL     1       8.447   7.350  19.040  0.00  0.00    +0.000 A 
ATOM     18  C   UNL     1       7.975   8.153  18.002  0.00  0.00    +0.000 A 
ATOM     19  C   UNL     1       7.153   7.613  17.014  0.00  0.00    +0.000 A 
ENDBRANCH   7  14
TORSDOF 2
ENDMDL
MODEL 3
REMARK VINA RESULT:      -6.9      0.884      1.025
REMARK  Name = 
REMARK  2 active torsions:
REMARK  status: ('A' for Active; 'I' for Inactive)
REMARK    1  A    between atoms: C_2  and  C_3
REMARK    2  A    between atoms: C_13  and  C_14
REMARK                            x       y       z     vdW  Elec       q    Type
REMARK                         _______ _______ _______ _____ _____    ______ ____
ROOT
ATOM      1  O   UNL     1       4.085   5.230  19.147  0.00  0.00    +0.000 OA
ATOM      2  C   UNL     1       4.178   4.291  18.355  0.00  0.00    +0.000 C 
ATOM      3  N   UNL     1       4.871   4.393  17.149  0.00  0.00    +0.000 N 
ATOM      4  N   UNL     1       4.788   3.407  16.190  0.00  0.00    +0.000 NA
ATOM      5  C   UNL     1       5.254   3.917  15.096  0.00  0.00    +0.000 C 
ATOM      6  C   UNL     1       5.755   5.319  15.176  0.00  0.00    +0.000 C 
ATOM      7  C   UNL     1       5.316   5.676  16.593  0.00  0.00    +0.000 C 
ENDROOT
BRANCH   2   8
ATOM      8  C   UNL     1       3.510   2.932  18.632  0.00  0.00    +0.000 C 
ATOM      9  C   UNL     1       3.714   2.471  20.078  0.00  0.00    +0.000 C 
ATOM     10  C   UNL     1       2.773   3.165  21.059  0.00  0.00    +0.000 C 
ATOM     11  C   UNL     1       1.314   3.000  20.651  0.00  0.00    +0.000 C 
ATOM     12  C   UNL     1       1.058   3.486  19.230  0.00  0.00    +0.000 C 
ATOM     13  C   UNL     1       2.033   2.903  18.212  0.00  0.00    +0.000 C 
ENDBRANCH   2   8
BRANCH   7  14
ATOM     14  C   UNL     1       6.408   6.378  17.371  0.00  0.00    +0.000 A 
ATOM     15  C   UNL     1       6.693   7.728  17.103  0.00  0.00    +0.000 A 
ATOM     16  C   UNL     1       7.716   8.389  17.781  0.00  0.00    +0.000 A 
ATOM     17  C   UNL     1       8.472   7.711  18.734  0.00  0.00    +0.000 A 
ATOM     18  C   UNL     1       8.199   6.373  19.013  0.00  0.00    +0.000 A 
ATOM     19  C   UNL     1       7.173   5.710  18.339  0.00  0.00    +0.000 A 
ENDBRANCH   7  14
TORSDOF 2
ENDMDL
MODEL 4
REMARK VINA RESULT:      -6.8      2.166      3.557
REMARK  Name = 
REMARK  2 active torsions:
REMARK  status: ('A' for Active; 'I' for Inactive)
REMARK    1  A    between atoms: C_2  and  C_3
REMARK    2  A    between atoms: C_13  and  C_14
REMARK                            x       y       z     vdW  Elec       q    Type
REMARK                         _______ _______ _______ _____ _____    ______ ____
ROOT
ATOM      1  O   UNL     1       3.997   3.777  18.730  0.00  0.00    +0.000 OA
ATOM      2  C   UNL     1       3.114   4.628  18.613  0.00  0.00    +0.000 C 
ATOM      3  N   UNL     1       3.336   5.858  17.995  0.00  0.00    +0.000 N 
ATOM      4  N   UNL     1       2.404   6.871  18.060  0.00  0.00    +0.000 NA
ATOM      5  C   UNL     1       3.008   7.953  17.690  0.00  0.00    +0.000 C 
ATOM      6  C   UNL     1       4.437   7.812  17.286  0.00  0.00    +0.000 C 
ATOM      7  C   UNL     1       4.678   6.356  17.671  0.00  0.00    +0.000 C 
ENDROOT
BRANCH   2   8
ATOM      8  C   UNL     1       1.696   4.402  19.168  0.00  0.00    +0.000 C 
ATOM      9  C   UNL     1       1.204   2.971  18.934  0.00  0.00    +0.000 C 
ATOM     10  C   UNL     1       1.784   1.974  19.933  0.00  0.00    +0.000 C 
ATOM     11  C   UNL     1       1.514   2.398  21.371  0.00  0.00    +0.000 C 
ATOM     12  C   UNL     1       2.026   3.804  21.660  0.00  0.00    +0.000 C 
ATOM     13  C   UNL     1       1.561   4.833  20.636  0.00  0.00    +0.000 C 
ENDBRANCH   2   8
BRANCH   7  14
ATOM     14  C   UNL     1       5.412   5.591  16.591  0.00  0.00    +0.000 A 
ATOM     15  C   UNL     1       6.766   5.260  16.774  0.00  0.00    +0.000 A 
ATOM     16  C   UNL     1       7.475   4.586  15.781  0.00  0.00    +0.000 A 
ATOM     17  C   UNL     1       6.844   4.235  14.590  0.00  0.00    +0.000 A 
ATOM     18  C   UNL     1       5.500   4.554  14.396  0.00  0.00    +0.000 A 
ATOM     19  C   UNL     1       4.787   5.225  15.390  0.00  0.00    +0.000 A 
ENDBRANCH   7  14
TORSDOF 2
ENDMDL
MODEL 5
REMARK VINA RESULT:      -6.8      2.156      3.465
REMARK  Name = 
REMARK  2 active torsions:
REMARK  status: ('A' for Active; 'I' for Inactive)
REMARK    1  A    between atoms: C_2  and  C_3
REMARK    2  A    between atoms: C_13  and  C_14
REMARK                            x       y       z     vdW  Elec       q    Type
REMARK                         _______ _______ _______ _____ _____    ______ ____
ROOT
ATOM      1  O   UNL     1       4.040   3.836  18.734  0.00  0.00    +0.000 OA
ATOM      2  C   UNL     1       3.138   4.665  18.599  0.00  0.00    +0.000 C 
ATOM      3  N   UNL     1       3.344   5.904  17.993  0.00  0.00    +0.000 N 
ATOM      4  N   UNL     1       2.386   6.893  18.039  0.00  0.00    +0.000 NA
ATOM      5  C   UNL     1       2.972   7.992  17.691  0.00  0.00    +0.000 C 
ATOM      6  C   UNL     1       4.414   7.890  17.323  0.00  0.00    +0.000 C 
ATOM      7  C   UNL     1       4.682   6.438  17.707  0.00  0.00    +0.000 C 
ENDROOT
BRANCH   2   8
ATOM      8  C   UNL     1       1.713   4.400  19.115  0.00  0.00    +0.000 C 
ATOM      9  C   UNL     1       1.245   2.972  18.817  0.00  0.00    +0.000 C 
ATOM     10  C   UNL     1       1.819   1.947  19.791  0.00  0.00    +0.000 C 
ATOM     11  C   UNL     1       1.514   2.313  21.238  0.00  0.00    +0.000 C 
ATOM     12  C   UNL     1       2.000   3.713  21.590  0.00  0.00    +0.000 C 
ATOM     13  C   UNL     1       1.541   4.774  20.595  0.00  0.00    +0.000 C 
ENDBRANCH   2   8
BRANCH   7  14
ATOM     14  C   UNL     1       5.463   5.699  16.643  0.00  0.00    +0.000 A 
ATOM     15  C   UNL     1       4.867   5.445  15.396  0.00  0.00    +0.000 A 
ATOM     16  C   UNL     1       5.552   4.738  14.408  0.00  0.00    +0.000 A 
ATOM     17  C   UNL     1       6.840   4.270  14.653  0.00  0.00    +0.000 A 
ATOM     18  C   UNL     1       7.447   4.518  15.885  0.00  0.00    +0.000 A 
ATOM     19  C   UNL     1       6.765   5.229  16.872  0.00  0.00    +0.000 A 
ENDBRANCH   7  14
TORSDOF 2
ENDMDL
MODEL 6
REMARK VINA RESULT:      -6.7      2.845      5.551
REMARK  Name = 
REMARK  2 active torsions:
REMARK  status: ('A' for Active; 'I' for Inactive)
REMARK    1  A    between atoms: C_2  and  C_3
REMARK    2  A    between atoms: C_13  and  C_14
REMARK                            x       y       z     vdW  Elec       q    Type
REMARK                         _______ _______ _______ _____ _____    ______ ____
ROOT
ATOM      1  O   UNL     1       5.134   6.375  18.699  0.00  0.00    +0.000 OA
ATOM      2  C   UNL     1       4.628   5.269  18.503  0.00  0.00    +0.000 C 
ATOM      3  N   UNL     1       3.374   4.920  19.004  0.00  0.00    +0.000 N 
ATOM      4  N   UNL     1       2.919   3.620  18.953  0.00  0.00    +0.000 NA
ATOM      5  C   UNL     1       1.908   3.551  19.757  0.00  0.00    +0.000 C 
ATOM      6  C   UNL     1       1.515   4.816  20.442  0.00  0.00    +0.000 C 
ATOM      7  C   UNL     1       2.670   5.718  20.014  0.00  0.00    +0.000 C 
ENDROOT
BRANCH   2   8
ATOM      8  C   UNL     1       5.360   4.176  17.704  0.00  0.00    +0.000 C 
ATOM      9  C   UNL     1       4.791   4.012  16.292  0.00  0.00    +0.000 C 
ATOM     10  C   UNL     1       5.286   5.087  15.327  0.00  0.00    +0.000 C 
ATOM     11  C   UNL     1       6.808   5.145  15.283  0.00  0.00    +0.000 C 
ATOM     12  C   UNL     1       7.414   5.349  16.666  0.00  0.00    +0.000 C 
ATOM     13  C   UNL     1       6.883   4.365  17.703  0.00  0.00    +0.000 C 
ENDBRANCH   2   8
BRANCH   7  14
ATOM     14  C   UNL     1       2.194   7.078  19.553  0.00  0.00    +0.000 A 
ATOM     15  C   UNL     1       1.617   7.962  20.481  0.00  0.00    +0.000 A 
ATOM     16  C   UNL     1       1.139   9.209  20.077  0.00  0.00    +0.000 A 
ATOM     17  C   UNL     1       1.228   9.589  18.740  0.00  0.00    +0.000 A 
ATOM     18  C   UNL     1       1.803   8.724  17.809  0.00  0.00    +0.000 A 
ATOM     19  C   UNL     1       2.284   7.478  18.212  0.00  0.00    +0.000 A 
ENDBRANCH   7  14
TORSDOF 2
ENDMDL
MODEL 7
REMARK VINA RESULT:      -6.6      2.777      5.480
REMARK  Name = 
REMARK  2 active torsions:
REMARK  status: ('A' for Active; 'I' for Inactive)
REMARK    1  A    between atoms: C_2  and  C_3
REMARK    2  A    between atoms: C_13  and  C_14
REMARK                            x       y       z     vdW  Elec       q    Type
REMARK                         _______ _______ _______ _____ _____    ______ ____
ROOT
ATOM      1  O   UNL     1       5.159   6.293  18.812  0.00  0.00    +0.000 OA
ATOM      2  C   UNL     1       4.677   5.188  18.556  0.00  0.00    +0.000 C 
ATOM      3  N   UNL     1       3.409   4.804  18.993  0.00  0.00    +0.000 N 
ATOM      4  N   UNL     1       2.976   3.501  18.878  0.00  0.00    +0.000 NA
ATOM      5  C   UNL     1       1.935   3.390  19.638  0.00  0.00    +0.000 C 
ATOM      6  C   UNL     1       1.496   4.624  20.350  0.00  0.00    +0.000 C 
ATOM      7  C   UNL     1       2.653   5.556  20.002  0.00  0.00    +0.000 C 
ENDROOT
BRANCH   2   8
ATOM      8  C   UNL     1       5.456   4.134  17.750  0.00  0.00    +0.000 C 
ATOM      9  C   UNL     1       4.862   3.917  16.355  0.00  0.00    +0.000 C 
ATOM     10  C   UNL     1       5.261   5.010  15.366  0.00  0.00    +0.000 C 
ATOM     11  C   UNL     1       6.774   5.165  15.279  0.00  0.00    +0.000 C 
ATOM     12  C   UNL     1       7.402   5.424  16.643  0.00  0.00    +0.000 C 
ATOM     13  C   UNL     1       6.964   4.421  17.705  0.00  0.00    +0.000 C 
ENDBRANCH   2   8
BRANCH   7  14
ATOM     14  C   UNL     1       2.176   6.926  19.570  0.00  0.00    +0.000 A 
ATOM     15  C   UNL     1       2.295   7.309  18.224  0.00  0.00    +0.000 A 
ATOM     16  C   UNL     1       1.894   8.577  17.805  0.00  0.00    +0.000 A 
ATOM     17  C   UNL     1       1.371   9.482  18.726  0.00  0.00    +0.000 A 
ATOM     18  C   UNL     1       1.243   9.114  20.065  0.00  0.00    +0.000 A 
ATOM     19  C   UNL     1       1.640   7.844  20.485  0.00  0.00    +0.000 A 
ENDBRANCH   7  14
TORSDOF 2
ENDMDL
MODEL 8
REMARK VINA RESULT:      -6.6      4.276      6.479
REMARK  Name = 
REMARK  2 active torsions:
REMARK  status: ('A' for Active; 'I' for Inactive)
REMARK    1  A    between atoms: C_2  and  C_3
REMARK    2  A    between atoms: C_13  and  C_14
REMARK                            x       y       z     vdW  Elec       q    Type
REMARK                         _______ _______ _______ _____ _____    ______ ____
ROOT
ATOM      1  O   UNL     1       1.290   8.100  20.002  0.00  0.00    +0.000 OA
ATOM      2  C   UNL     1       1.755   8.360  18.891  0.00  0.00    +0.000 C 
ATOM      3  N   UNL     1       2.681   7.535  18.253  0.00  0.00    +0.000 N 
ATOM      4  N   UNL     1       3.342   7.944  17.115  0.00  0.00    +0.000 NA
ATOM      5  C   UNL     1       4.334   7.132  16.952  0.00  0.00    +0.000 C 
ATOM      6  C   UNL     1       4.461   6.028  17.947  0.00  0.00    +0.000 C 
ATOM      7  C   UNL     1       3.379   6.442  18.940  0.00  0.00    +0.000 C 
ENDROOT
BRANCH   2   8
ATOM      8  C   UNL     1       1.362   9.640  18.131  0.00  0.00    +0.000 C 
ATOM      9  C   UNL     1      -0.143   9.710  17.856  0.00  0.00    +0.000 C 
ATOM     10  C   UNL     1      -0.947  10.153  19.075  0.00  0.00    +0.000 C 
ATOM     11  C   UNL     1      -0.447  11.483  19.625  0.00  0.00    +0.000 C 
ATOM     12  C   UNL     1       1.041  11.444  19.952  0.00  0.00    +0.000 C 
ATOM     13  C   UNL     1       1.893  10.914  18.804  0.00  0.00    +0.000 C 
ENDBRANCH   2   8
BRANCH   7  14
ATOM     14  C   UNL     1       2.510   5.276  19.359  0.00  0.00    +0.000 A 
ATOM     15  C   UNL     1       2.406   4.943  20.720  0.00  0.00    +0.000 A 
ATOM     16  C   UNL     1       1.639   3.853  21.131  0.00  0.00    +0.000 A 
ATOM     17  C   UNL     1       0.967   3.079  20.188  0.00  0.00    +0.000 A 
ATOM     18  C   UNL     1       1.057   3.401  18.834  0.00  0.00    +0.000 A 
ATOM     19  C   UNL     1       1.821   4.493  18.421  0.00  0.00    +0.000 A 
ENDBRANCH   7  14
TORSDOF 2
ENDMDL
MODEL 9
REMARK VINA RESULT:      -6.6      4.272      6.438
REMARK  Name = 
REMARK  2 active torsions:
REMARK  status: ('A' for Active; 'I' for Inactive)
REMARK    1  A    between atoms: C_2  and  C_3
REMARK    2  A    between atoms: C_13  and  C_14
REMARK                            x       y       z     vdW  Elec       q    Type
REMARK                         _______ _______ _______ _____ _____    ______ ____
ROOT
ATOM      1  O   UNL     1       1.319   8.104  19.977  0.00  0.00    +0.000 OA
ATOM      2  C   UNL     1       1.778   8.366  18.864  0.00  0.00    +0.000 C 
ATOM      3  N   UNL     1       2.705   7.546  18.224  0.00  0.00    +0.000 N 
ATOM      4  N   UNL     1       3.360   7.958  17.083  0.00  0.00    +0.000 NA
ATOM      5  C   UNL     1       4.357   7.151  16.917  0.00  0.00    +0.000 C 
ATOM      6  C   UNL     1       4.494   6.049  17.913  0.00  0.00    +0.000 C 
ATOM      7  C   UNL     1       3.413   6.458  18.910  0.00  0.00    +0.000 C 
ENDROOT
BRANCH   2   8
ATOM      8  C   UNL     1       1.374   9.642  18.105  0.00  0.00    +0.000 C 
ATOM      9  C   UNL     1      -0.134   9.708  17.843  0.00  0.00    +0.000 C 
ATOM     10  C   UNL     1      -0.928  10.152  19.068  0.00  0.00    +0.000 C 
ATOM     11  C   UNL     1      -0.426  11.484  19.611  0.00  0.00    +0.000 C 
ATOM     12  C   UNL     1       1.064  11.450  19.924  0.00  0.00    +0.000 C 
ATOM     13  C   UNL     1       1.907  10.920  18.770  0.00  0.00    +0.000 C 
ENDBRANCH   2   8
BRANCH   7  14
ATOM     14  C   UNL     1       2.552   5.287  19.332  0.00  0.00    +0.000 A 
ATOM     15  C   UNL     1       1.905   4.513  18.354  0.00  0.00    +0.000 A 
ATOM     16  C   UNL     1       1.080   3.450  18.717  0.00  0.00    +0.000 A 
ATOM     17  C   UNL     1       0.886   3.146  20.062  0.00  0.00    +0.000 A 
ATOM     18  C   UNL     1       1.525   3.903  21.044  0.00  0.00    +0.000 A 
ATOM     19  C   UNL     1       2.354   4.964  20.683  0.00  0.00    +0.000 A 
ENDBRANCH   7  14
TORSDOF 2
ENDMDL
