MODEL 1
REMARK VINA RESULT:      -8.0      0.000      0.000
REMARK  Name = 
REMARK  8 active torsions:
REMARK  status: ('A' for Active; 'I' for Inactive)
REMARK    1  A    between atoms: C_1  and  N_2
REMARK    2  A    between atoms: N_2  and  C_3
REMARK    3  A    between atoms: C_4  and  C_6
REMARK    4  A    between atoms: N_8  and  C_9
REMARK    5  A    between atoms: C_17  and  C_18
REMARK    6  A    between atoms: N_20  and  C_21
REMARK    7  A    between atoms: C_21  and  C_22
REMARK    8  A    between atoms: C_29  and  O_30
REMARK                            x       y       z     vdW  Elec       q    Type
REMARK                         _______ _______ _______ _____ _____    ______ ____
ROOT
ATOM      1  C   UNL     1       0.720  13.145  21.208  0.00  0.00    +0.000 C 
ATOM      2  C   UNL     1       0.786  14.786  21.368  0.00  0.00    +0.000 C 
ATOM      3  C   UNL     1       0.378  15.483  20.047  0.00  0.00    +0.000 C 
ATOM      4  C   UNL     1       0.544  14.368  19.049  0.00  0.00    +0.000 C 
ATOM      5  C   UNL     1      -0.809  13.654  18.855  0.00  0.00    +0.000 C 
ATOM      6  N   UNL     1      -0.632  12.243  19.139  0.00  0.00    +0.000 N 
ATOM      7  C   UNL     1       0.197  11.896  20.199  0.00  0.00    +0.000 A 
ATOM      8  N   UNL     1       0.748  10.711  20.266  0.00  0.00    +0.000 NA
ATOM      9  C   UNL     1       0.589   9.890  19.152  0.00  0.00    +0.000 A 
ATOM     10  C   UNL     1      -0.264  10.114  18.121  0.00  0.00    +0.000 A 
ATOM     11  C   UNL     1      -1.050  11.358  18.170  0.00  0.00    +0.000 A 
ATOM     12  O   UNL     1      -1.919  11.604  17.335  0.00  0.00    +0.000 OA
ATOM     13  C   UNL     1       1.524  13.494  19.832  0.00  0.00    +0.000 C 
ENDROOT
BRANCH   1  16
ATOM     14  C   UNL     1      -1.088  12.395  22.817  0.00  0.00    +0.000 C 
ATOM     15  O   UNL     1      -0.424  11.518  23.341  0.00  0.00    +0.000 OA
ATOM     16  N   UNL     1      -0.710  13.138  21.703  0.00  0.00    +0.000 N 
ATOM     17  H   UNL     1      -1.284  13.977  21.625  0.00  0.00    +0.000 HD
BRANCH  14  21
ATOM     18  C   UNL     1      -3.855  14.352  24.674  0.00  0.00    +0.000 C 
ATOM     19  N   UNL     1      -2.588  13.994  24.056  0.00  0.00    +0.000 N 
ATOM     20  C   UNL     1      -1.408  14.770  24.390  0.00  0.00    +0.000 C 
ATOM     21  C   UNL     1      -2.498  12.788  23.373  0.00  0.00    +0.000 C 
ATOM     22  O   UNL     1      -3.404  11.965  23.257  0.00  0.00    +0.000 OA
ENDBRANCH  14  21
ENDBRANCH   1  16
BRANCH   9  23
ATOM     23  C   UNL     1       1.586   8.757  18.903  0.00  0.00    +0.000 C 
ATOM     24  O   UNL     1       2.154   8.624  17.815  0.00  0.00    +0.000 OA
ATOM     25  N   UNL     1       1.860   7.956  19.972  0.00  0.00    +0.000 N 
ATOM     26  H   UNL     1       1.278   8.050  20.802  0.00  0.00    +0.000 HD
BRANCH  25  27
ATOM     27  C   UNL     1       2.779   6.849  19.834  0.00  0.00    +0.000 C 
BRANCH  27  28
ATOM     28  C   UNL     1       2.089   5.555  19.499  0.00  0.00    +0.000 A 
ATOM     29  C   UNL     1       2.111   5.052  18.189  0.00  0.00    +0.000 A 
ATOM     30  C   UNL     1       1.509   3.827  17.890  0.00  0.00    +0.000 A 
ATOM     31  C   UNL     1       0.888   3.105  18.902  0.00  0.00    +0.000 A 
ATOM     32  F   UNL     1       0.313   1.929  18.614  0.00  0.00    +0.000 F 
ATOM     33  C   UNL     1       0.861   3.578  20.207  0.00  0.00    +0.000 A 
ATOM     34  C   UNL     1       1.464   4.801  20.508  0.00  0.00    +0.000 A 
ENDBRANCH  27  28
ENDBRANCH  25  27
ENDBRANCH   9  23
BRANCH  10  35
ATOM     35  O   UNL     1      -0.348   9.373  16.943  0.00  0.00    +0.000 OA
ATOM     36  H   UNL     1       0.128   9.848  16.225  0.00  0.00    +0.000 HD
ENDBRANCH  10  35
TORSDOF 6
ENDMDL
MODEL 2
REMARK VINA RESULT:      -7.7      1.936      2.494
REMARK  Name = 
REMARK  8 active torsions:
REMARK  status: ('A' for Active; 'I' for Inactive)
REMARK    1  A    between atoms: C_1  and  N_2
REMARK    2  A    between atoms: N_2  and  C_3
REMARK    3  A    between atoms: C_4  and  C_6
REMARK    4  A    between atoms: N_8  and  C_9
REMARK    5  A    between atoms: C_17  and  C_18
REMARK    6  A    between atoms: N_20  and  C_21
REMARK    7  A    between atoms: C_21  and  C_22
REMARK    8  A    between atoms: C_29  and  O_30
REMARK                            x       y       z     vdW  Elec       q    Type
REMARK                         _______ _______ _______ _____ _____    ______ ____
ROOT
ATOM      1  C   UNL     1      -1.577  13.317  22.831  0.00  0.00    +0.000 C 
ATOM      2  C   UNL     1      -1.779  14.941  23.037  0.00  0.00    +0.000 C 
ATOM      3  C   UNL     1      -1.302  15.716  21.785  0.00  0.00    +0.000 C 
ATOM      4  C   UNL     1      -0.432  14.693  21.105  0.00  0.00    +0.000 C 
ATOM      5  C   UNL     1      -1.270  13.926  20.063  0.00  0.00    +0.000 C 
ATOM      6  N   UNL     1      -1.191  12.508  20.358  0.00  0.00    +0.000 N 
ATOM      7  C   UNL     1      -1.212  12.124  21.693  0.00  0.00    +0.000 A 
ATOM      8  N   UNL     1      -0.729  10.968  22.071  0.00  0.00    +0.000 NA
ATOM      9  C   UNL     1      -0.058  10.229  21.100  0.00  0.00    +0.000 A 
ATOM     10  C   UNL     1      -0.062  10.487  19.768  0.00  0.00    +0.000 A 
ATOM     11  C   UNL     1      -0.804  11.680  19.328  0.00  0.00    +0.000 A 
ATOM     12  O   UNL     1      -0.949  11.945  18.134  0.00  0.00    +0.000 OA
ATOM     13  C   UNL     1      -0.113  13.813  22.314  0.00  0.00    +0.000 C 
ENDROOT
BRANCH   1  16
ATOM     14  C   UNL     1      -4.020  12.677  23.050  0.00  0.00    +0.000 C 
ATOM     15  O   UNL     1      -3.888  12.062  24.094  0.00  0.00    +0.000 OA
ATOM     16  N   UNL     1      -2.982  13.195  22.282  0.00  0.00    +0.000 N 
ATOM     17  H   UNL     1      -3.339  13.890  21.628  0.00  0.00    +0.000 HD
BRANCH  14  21
ATOM     18  C   UNL     1      -7.376  14.440  22.299  0.00  0.00    +0.000 C 
ATOM     19  N   UNL     1      -6.020  14.178  22.758  0.00  0.00    +0.000 N 
ATOM     20  C   UNL     1      -5.430  15.078  23.732  0.00  0.00    +0.000 C 
ATOM     21  C   UNL     1      -5.437  12.956  22.446  0.00  0.00    +0.000 C 
ATOM     22  O   UNL     1      -5.978  12.046  21.822  0.00  0.00    +0.000 OA
ENDBRANCH  14  21
ENDBRANCH   1  16
BRANCH   9  23
ATOM     23  C   UNL     1       0.963   9.174  21.528  0.00  0.00    +0.000 C 
ATOM     24  O   UNL     1       1.753   9.377  22.454  0.00  0.00    +0.000 OA
ATOM     25  N   UNL     1       0.896   7.978  20.875  0.00  0.00    +0.000 N 
ATOM     26  H   UNL     1       0.301   7.916  20.051  0.00  0.00    +0.000 HD
BRANCH  25  27
ATOM     27  C   UNL     1       1.827   6.920  21.197  0.00  0.00    +0.000 C 
BRANCH  27  28
ATOM     28  C   UNL     1       1.826   5.811  20.181  0.00  0.00    +0.000 A 
ATOM     29  C   UNL     1       2.467   5.977  18.943  0.00  0.00    +0.000 A 
ATOM     30  C   UNL     1       2.504   4.930  18.020  0.00  0.00    +0.000 A 
ATOM     31  C   UNL     1       1.905   3.716  18.335  0.00  0.00    +0.000 A 
ATOM     32  F   UNL     1       1.944   2.711  17.450  0.00  0.00    +0.000 F 
ATOM     33  C   UNL     1       1.273   3.527  19.558  0.00  0.00    +0.000 A 
ATOM     34  C   UNL     1       1.236   4.572  20.483  0.00  0.00    +0.000 A 
ENDBRANCH  27  28
ENDBRANCH  25  27
ENDBRANCH   9  23
BRANCH  10  35
ATOM     35  O   UNL     1       0.699   9.837  18.798  0.00  0.00    +0.000 OA
ATOM     36  H   UNL     1       0.790  10.420  18.010  0.00  0.00    +0.000 HD
ENDBRANCH  10  35
TORSDOF 6
ENDMDL
MODEL 3
REMARK VINA RESULT:      -7.6      1.653      2.150
REMARK  Name = 
REMARK  8 active torsions:
REMARK  status: ('A' for Active; 'I' for Inactive)
REMARK    1  A    between atoms: C_1  and  N_2
REMARK    2  A    between atoms: N_2  and  C_3
REMARK    3  A    between atoms: C_4  and  C_6
REMARK    4  A    between atoms: N_8  and  C_9
REMARK    5  A    between atoms: C_17  and  C_18
REMARK    6  A    between atoms: N_20  and  C_21
REMARK    7  A    between atoms: C_21  and  C_22
REMARK    8  A    between atoms: C_29  and  O_30
REMARK                            x       y       z     vdW  Elec       q    Type
REMARK                         _______ _______ _______ _____ _____    ______ ____
ROOT
ATOM      1  C   UNL     1      -1.155  12.985  22.291  0.00  0.00    +0.000 C 
ATOM      2  C   UNL     1      -1.273  14.609  22.560  0.00  0.00    +0.000 C 
ATOM      3  C   UNL     1      -0.860  15.405  21.299  0.00  0.00    +0.000 C 
ATOM      4  C   UNL     1      -0.088  14.372  20.524  0.00  0.00    +0.000 C 
ATOM      5  C   UNL     1      -1.033  13.673  19.526  0.00  0.00    +0.000 C 
ATOM      6  N   UNL     1      -0.991  12.244  19.772  0.00  0.00    +0.000 N 
ATOM      7  C   UNL     1      -0.927  11.817  21.093  0.00  0.00    +0.000 A 
ATOM      8  N   UNL     1      -0.465  10.631  21.398  0.00  0.00    +0.000 NA
ATOM      9  C   UNL     1       0.099   9.900  20.356  0.00  0.00    +0.000 A 
ATOM     10  C   UNL     1       0.005  10.201  19.036  0.00  0.00    +0.000 A 
ATOM     11  C   UNL     1      -0.718  11.437  18.690  0.00  0.00    +0.000 A 
ATOM     12  O   UNL     1      -0.942  11.746  17.521  0.00  0.00    +0.000 OA
ATOM     13  C   UNL     1       0.285  13.441  21.677  0.00  0.00    +0.000 C 
ENDROOT
BRANCH   1  16
ATOM     14  C   UNL     1      -3.614  12.541  22.717  0.00  0.00    +0.000 C 
ATOM     15  O   UNL     1      -3.449  11.978  23.785  0.00  0.00    +0.000 OA
ATOM     16  N   UNL     1      -2.601  12.937  21.848  0.00  0.00    +0.000 N 
ATOM     17  H   UNL     1      -2.956  13.619  21.179  0.00  0.00    +0.000 HD
BRANCH  14  21
ATOM     18  C   UNL     1      -6.975  14.394  22.268  0.00  0.00    +0.000 C 
ATOM     19  N   UNL     1      -5.607  14.078  22.649  0.00  0.00    +0.000 N 
ATOM     20  C   UNL     1      -4.973  14.872  23.685  0.00  0.00    +0.000 C 
ATOM     21  C   UNL     1      -5.048  12.890  22.195  0.00  0.00    +0.000 C 
ATOM     22  O   UNL     1      -5.621  12.051  21.503  0.00  0.00    +0.000 OA
ENDBRANCH  14  21
ENDBRANCH   1  16
BRANCH   9  23
ATOM     23  C   UNL     1       1.105   8.791  20.672  0.00  0.00    +0.000 C 
ATOM     24  O   UNL     1       1.352   8.455  21.833  0.00  0.00    +0.000 OA
ATOM     25  N   UNL     1       1.649   8.154  19.596  0.00  0.00    +0.000 N 
ATOM     26  H   UNL     1       1.489   8.552  18.673  0.00  0.00    +0.000 HD
BRANCH  25  27
ATOM     27  C   UNL     1       2.621   7.101  19.790  0.00  0.00    +0.000 C 
BRANCH  27  28
ATOM     28  C   UNL     1       2.070   5.735  19.483  0.00  0.00    +0.000 A 
ATOM     29  C   UNL     1       1.473   4.963  20.491  0.00  0.00    +0.000 A 
ATOM     30  C   UNL     1       0.922   3.714  20.193  0.00  0.00    +0.000 A 
ATOM     31  C   UNL     1       0.964   3.240  18.888  0.00  0.00    +0.000 A 
ATOM     32  F   UNL     1       0.433   2.043  18.603  0.00  0.00    +0.000 F 
ATOM     33  C   UNL     1       1.542   3.991  17.872  0.00  0.00    +0.000 A 
ATOM     34  C   UNL     1       2.092   5.240  18.167  0.00  0.00    +0.000 A 
ENDBRANCH  27  28
ENDBRANCH  25  27
ENDBRANCH   9  23
BRANCH  10  35
ATOM     35  O   UNL     1       0.663   9.554  17.992  0.00  0.00    +0.000 OA
ATOM     36  H   UNL     1       0.018   9.354  17.275  0.00  0.00    +0.000 HD
ENDBRANCH  10  35
TORSDOF 6
ENDMDL
MODEL 4
REMARK VINA RESULT:      -7.5      2.292      3.617
REMARK  Name = 
REMARK  8 active torsions:
REMARK  status: ('A' for Active; 'I' for Inactive)
REMARK    1  A    between atoms: C_1  and  N_2
REMARK    2  A    between atoms: N_2  and  C_3
REMARK    3  A    between atoms: C_4  and  C_6
REMARK    4  A    between atoms: N_8  and  C_9
REMARK    5  A    between atoms: C_17  and  C_18
REMARK    6  A    between atoms: N_20  and  C_21
REMARK    7  A    between atoms: C_21  and  C_22
REMARK    8  A    between atoms: C_29  and  O_30
REMARK                            x       y       z     vdW  Elec       q    Type
REMARK                         _______ _______ _______ _____ _____    ______ ____
ROOT
ATOM      1  C   UNL     1      -0.351  13.664  20.180  0.00  0.00    +0.000 C 
ATOM      2  C   UNL     1      -1.504  14.788  20.540  0.00  0.00    +0.000 C 
ATOM      3  C   UNL     1      -2.514  14.227  21.570  0.00  0.00    +0.000 C 
ATOM      4  C   UNL     1      -2.281  12.744  21.451  0.00  0.00    +0.000 C 
ATOM      5  C   UNL     1      -1.257  12.304  22.517  0.00  0.00    +0.000 C 
ATOM      6  N   UNL     1      -0.152  11.642  21.851  0.00  0.00    +0.000 N 
ATOM      7  C   UNL     1       0.281  12.166  20.639  0.00  0.00    +0.000 A 
ATOM      8  N   UNL     1       0.942  11.431  19.782  0.00  0.00    +0.000 NA
ATOM      9  C   UNL     1       1.043  10.074  20.078  0.00  0.00    +0.000 A 
ATOM     10  C   UNL     1       0.726   9.498  21.266  0.00  0.00    +0.000 A 
ATOM     11  C   UNL     1       0.185  10.387  22.308  0.00  0.00    +0.000 A 
ATOM     12  O   UNL     1      -0.041   9.980  23.447  0.00  0.00    +0.000 OA
ATOM     13  C   UNL     1      -1.670  12.713  20.051  0.00  0.00    +0.000 C 
ENDROOT
BRANCH   1  16
ATOM     14  C   UNL     1       1.734  14.860  20.983  0.00  0.00    +0.000 C 
ATOM     15  O   UNL     1       2.297  14.855  19.902  0.00  0.00    +0.000 OA
ATOM     16  N   UNL     1       0.542  14.204  21.275  0.00  0.00    +0.000 N 
ATOM     17  H   UNL     1       0.135  14.576  22.133  0.00  0.00    +0.000 HD
BRANCH  14  21
ATOM     18  C   UNL     1       2.515  17.753  23.424  0.00  0.00    +0.000 C 
ATOM     19  N   UNL     1       1.916  16.959  22.362  0.00  0.00    +0.000 N 
ATOM     20  C   UNL     1       1.118  17.635  21.355  0.00  0.00    +0.000 C 
ATOM     21  C   UNL     1       2.326  15.641  22.203  0.00  0.00    +0.000 C 
ATOM     22  O   UNL     1       3.183  15.075  22.880  0.00  0.00    +0.000 OA
ENDBRANCH  14  21
ENDBRANCH   1  16
BRANCH   9  23
ATOM     23  C   UNL     1       1.306   9.074  18.951  0.00  0.00    +0.000 C 
ATOM     24  O   UNL     1       0.793   9.207  17.837  0.00  0.00    +0.000 OA
ATOM     25  N   UNL     1       2.193   8.077  19.232  0.00  0.00    +0.000 N 
ATOM     26  H   UNL     1       2.492   7.961  20.198  0.00  0.00    +0.000 HD
BRANCH  25  27
ATOM     27  C   UNL     1       2.498   7.074  18.236  0.00  0.00    +0.000 C 
BRANCH  27  28
ATOM     28  C   UNL     1       2.185   5.677  18.699  0.00  0.00    +0.000 A 
ATOM     29  C   UNL     1       1.891   4.667  17.771  0.00  0.00    +0.000 A 
ATOM     30  C   UNL     1       1.646   3.361  18.201  0.00  0.00    +0.000 A 
ATOM     31  C   UNL     1       1.700   3.064  19.557  0.00  0.00    +0.000 A 
ATOM     32  F   UNL     1       1.468   1.810  19.967  0.00  0.00    +0.000 F 
ATOM     33  C   UNL     1       1.999   4.046  20.493  0.00  0.00    +0.000 A 
ATOM     34  C   UNL     1       2.245   5.352  20.065  0.00  0.00    +0.000 A 
ENDBRANCH  27  28
ENDBRANCH  25  27
ENDBRANCH   9  23
BRANCH  10  35
ATOM     35  O   UNL     1       0.703   8.132  21.542  0.00  0.00    +0.000 OA
ATOM     36  H   UNL     1       0.039   7.954  22.246  0.00  0.00    +0.000 HD
ENDBRANCH  10  35
TORSDOF 6
ENDMDL
MODEL 5
REMARK VINA RESULT:      -7.4      2.262      3.652
REMARK  Name = 
REMARK  8 active torsions:
REMARK  status: ('A' for Active; 'I' for Inactive)
REMARK    1  A    between atoms: C_1  and  N_2
REMARK    2  A    between atoms: N_2  and  C_3
REMARK    3  A    between atoms: C_4  and  C_6
REMARK    4  A    between atoms: N_8  and  C_9
REMARK    5  A    between atoms: C_17  and  C_18
REMARK    6  A    between atoms: N_20  and  C_21
REMARK    7  A    between atoms: C_21  and  C_22
REMARK    8  A    between atoms: C_29  and  O_30
REMARK                            x       y       z     vdW  Elec       q    Type
REMARK                         _______ _______ _______ _____ _____    ______ ____
ROOT
ATOM      1  C   UNL     1       0.055  13.241  19.772  0.00  0.00    +0.000 C 
ATOM      2  C   UNL     1      -1.079  14.403  20.067  0.00  0.00    +0.000 C 
ATOM      3  C   UNL     1      -2.167  13.875  21.033  0.00  0.00    +0.000 C 
ATOM      4  C   UNL     1      -1.977  12.386  20.923  0.00  0.00    +0.000 C 
ATOM      5  C   UNL     1      -1.034  11.909  22.045  0.00  0.00    +0.000 C 
ATOM      6  N   UNL     1       0.085  11.211  21.444  0.00  0.00    +0.000 N 
ATOM      7  C   UNL     1       0.607  11.723  20.262  0.00  0.00    +0.000 A 
ATOM      8  N   UNL     1       1.293  10.966  19.443  0.00  0.00    +0.000 NA
ATOM      9  C   UNL     1       1.330   9.607  19.739  0.00  0.00    +0.000 A 
ATOM     10  C   UNL     1       0.924   9.040  20.904  0.00  0.00    +0.000 A 
ATOM     11  C   UNL     1       0.353   9.944  21.915  0.00  0.00    +0.000 A 
ATOM     12  O   UNL     1       0.046   9.544  23.038  0.00  0.00    +0.000 OA
ATOM     13  C   UNL     1      -1.285  12.336  19.561  0.00  0.00    +0.000 C 
ENDROOT
BRANCH   1  16
ATOM     14  C   UNL     1       2.079  14.451  20.698  0.00  0.00    +0.000 C 
ATOM     15  O   UNL     1       2.674  14.517  19.637  0.00  0.00    +0.000 OA
ATOM     16  N   UNL     1       0.898  13.749  20.920  0.00  0.00    +0.000 N 
ATOM     17  H   UNL     1       0.456  14.066  21.782  0.00  0.00    +0.000 HD
BRANCH  14  21
ATOM     18  C   UNL     1       2.630  17.205  23.353  0.00  0.00    +0.000 C 
ATOM     19  N   UNL     1       2.092  16.447  22.234  0.00  0.00    +0.000 N 
ATOM     20  C   UNL     1       1.231  17.127  21.284  0.00  0.00    +0.000 C 
ATOM     21  C   UNL     1       2.612  15.185  21.974  0.00  0.00    +0.000 C 
ATOM     22  O   UNL     1       3.520  14.645  22.603  0.00  0.00    +0.000 OA
ENDBRANCH  14  21
ENDBRANCH   1  16
BRANCH   9  23
ATOM     23  C   UNL     1       1.626   8.600  18.626  0.00  0.00    +0.000 C 
ATOM     24  O   UNL     1       1.115   8.706  17.507  0.00  0.00    +0.000 OA
ATOM     25  N   UNL     1       2.538   7.631  18.923  0.00  0.00    +0.000 N 
ATOM     26  H   UNL     1       2.835   7.534  19.892  0.00  0.00    +0.000 HD
BRANCH  25  27
ATOM     27  C   UNL     1       2.875   6.625  17.941  0.00  0.00    +0.000 C 
BRANCH  27  28
ATOM     28  C   UNL     1       2.488   5.236  18.372  0.00  0.00    +0.000 A 
ATOM     29  C   UNL     1       1.976   5.004  19.658  0.00  0.00    +0.000 A 
ATOM     30  C   UNL     1       1.575   3.722  20.039  0.00  0.00    +0.000 A 
ATOM     31  C   UNL     1       1.682   2.673  19.134  0.00  0.00    +0.000 A 
ATOM     32  F   UNL     1       1.294   1.443  19.500  0.00  0.00    +0.000 F 
ATOM     33  C   UNL     1       2.178   2.881  17.853  0.00  0.00    +0.000 A 
ATOM     34  C   UNL     1       2.578   4.162  17.470  0.00  0.00    +0.000 A 
ENDBRANCH  27  28
ENDBRANCH  25  27
ENDBRANCH   9  23
BRANCH  10  35
ATOM     35  O   UNL     1       0.838   7.675  21.172  0.00  0.00    +0.000 OA
ATOM     36  H   UNL     1      -0.107   7.402  21.174  0.00  0.00    +0.000 HD
ENDBRANCH  10  35
TORSDOF 6
ENDMDL
MODEL 6
REMARK VINA RESULT:      -7.3      2.420      3.834
REMARK  Name = 
REMARK  8 active torsions:
REMARK  status: ('A' for Active; 'I' for Inactive)
REMARK    1  A    between atoms: C_1  and  N_2
REMARK    2  A    between atoms: N_2  and  C_3
REMARK    3  A    between atoms: C_4  and  C_6
REMARK    4  A    between atoms: N_8  and  C_9
REMARK    5  A    between atoms: C_17  and  C_18
REMARK    6  A    between atoms: N_20  and  C_21
REMARK    7  A    between atoms: C_21  and  C_22
REMARK    8  A    between atoms: C_29  and  O_30
REMARK                            x       y       z     vdW  Elec       q    Type
REMARK                         _______ _______ _______ _____ _____    ______ ____
ROOT
ATOM      1  C   UNL     1      -0.250  13.836  19.972  0.00  0.00    +0.000 C 
ATOM      2  C   UNL     1      -1.369  15.003  20.301  0.00  0.00    +0.000 C 
ATOM      3  C   UNL     1      -2.394  14.501  21.346  0.00  0.00    +0.000 C 
ATOM      4  C   UNL     1      -2.205  13.010  21.269  0.00  0.00    +0.000 C 
ATOM      5  C   UNL     1      -1.193  12.569  22.346  0.00  0.00    +0.000 C 
ATOM      6  N   UNL     1      -0.109  11.856  21.698  0.00  0.00    +0.000 N 
ATOM      7  C   UNL     1       0.338  12.334  20.472  0.00  0.00    +0.000 A 
ATOM      8  N   UNL     1       0.976  11.556  19.635  0.00  0.00    +0.000 NA
ATOM      9  C   UNL     1       1.037  10.206  19.969  0.00  0.00    +0.000 A 
ATOM     10  C   UNL     1       0.705   9.673  21.173  0.00  0.00    +0.000 A 
ATOM     11  C   UNL     1       0.192  10.605  22.190  0.00  0.00    +0.000 A 
ATOM     12  O   UNL     1      -0.044  10.237  23.340  0.00  0.00    +0.000 OA
ATOM     13  C   UNL     1      -1.596  12.921  19.869  0.00  0.00    +0.000 C 
ENDROOT
BRANCH   1  16
ATOM     14  C   UNL     1       1.691  15.265  20.754  0.00  0.00    +0.000 C 
ATOM     15  O   UNL     1       2.125  15.496  19.638  0.00  0.00    +0.000 OA
ATOM     16  N   UNL     1       0.659  14.380  21.051  0.00  0.00    +0.000 N 
ATOM     17  H   UNL     1       0.295  14.564  21.985  0.00  0.00    +0.000 HD
BRANCH  14  21
ATOM     18  C   UNL     1       4.082  16.128  23.664  0.00  0.00    +0.000 C 
ATOM     19  N   UNL     1       3.538  15.564  22.439  0.00  0.00    +0.000 N 
ATOM     20  C   UNL     1       4.200  14.415  21.849  0.00  0.00    +0.000 C 
ATOM     21  C   UNL     1       2.281  15.977  22.017  0.00  0.00    +0.000 C 
ATOM     22  O   UNL     1       1.559  16.778  22.607  0.00  0.00    +0.000 OA
ENDBRANCH  14  21
ENDBRANCH   1  16
BRANCH   9  23
ATOM     23  C   UNL     1       1.270   9.168  18.870  0.00  0.00    +0.000 C 
ATOM     24  O   UNL     1       0.707   9.250  17.775  0.00  0.00    +0.000 OA
ATOM     25  N   UNL     1       2.186   8.197  19.149  0.00  0.00    +0.000 N 
ATOM     26  H   UNL     1       2.528   8.122  20.105  0.00  0.00    +0.000 HD
BRANCH  25  27
ATOM     27  C   UNL     1       2.466   7.161  18.180  0.00  0.00    +0.000 C 
BRANCH  27  28
ATOM     28  C   UNL     1       2.200   5.778  18.709  0.00  0.00    +0.000 A 
ATOM     29  C   UNL     1       2.201   5.530  20.091  0.00  0.00    +0.000 A 
ATOM     30  C   UNL     1       1.909   4.255  20.580  0.00  0.00    +0.000 A 
ATOM     31  C   UNL     1       1.612   3.230  19.691  0.00  0.00    +0.000 A 
ATOM     32  F   UNL     1       1.329   2.008  20.163  0.00  0.00    +0.000 F 
ATOM     33  C   UNL     1       1.596   3.455  18.320  0.00  0.00    +0.000 A 
ATOM     34  C   UNL     1       1.886   4.729  17.828  0.00  0.00    +0.000 A 
ENDBRANCH  27  28
ENDBRANCH  25  27
ENDBRANCH   9  23
BRANCH  10  35
ATOM     35  O   UNL     1       0.642   8.316  21.486  0.00  0.00    +0.000 OA
ATOM     36  H   UNL     1       0.302   7.818  20.709  0.00  0.00    +0.000 HD
ENDBRANCH  10  35
TORSDOF 6
ENDMDL
MODEL 7
REMARK VINA RESULT:      -7.3      3.323      4.996
REMARK  Name = 
REMARK  8 active torsions:
REMARK  status: ('A' for Active; 'I' for Inactive)
REMARK    1  A    between atoms: C_1  and  N_2
REMARK    2  A    between atoms: N_2  and  C_3
REMARK    3  A    between atoms: C_4  and  C_6
REMARK    4  A    between atoms: N_8  and  C_9
REMARK    5  A    between atoms: C_17  and  C_18
REMARK    6  A    between atoms: N_20  and  C_21
REMARK    7  A    between atoms: C_21  and  C_22
REMARK    8  A    between atoms: C_29  and  O_30
REMARK                            x       y       z     vdW  Elec       q    Type
REMARK                         _______ _______ _______ _____ _____    ______ ____
ROOT
ATOM      1  C   UNL     1       0.525  11.428  18.385  0.00  0.00    +0.000 C 
ATOM      2  C   UNL     1      -0.687  12.539  18.240  0.00  0.00    +0.000 C 
ATOM      3  C   UNL     1      -1.794  12.282  19.290  0.00  0.00    +0.000 C 
ATOM      4  C   UNL     1      -1.516  10.857  19.687  0.00  0.00    +0.000 C 
ATOM      5  C   UNL     1      -0.610  10.844  20.935  0.00  0.00    +0.000 C 
ATOM      6  N   UNL     1       0.578  10.068  20.635  0.00  0.00    +0.000 N 
ATOM      7  C   UNL     1       1.134  10.198  19.369  0.00  0.00    +0.000 A 
ATOM      8  N   UNL     1       1.904   9.265  18.870  0.00  0.00    +0.000 NA
ATOM      9  C   UNL     1       2.001   8.085  19.602  0.00  0.00    +0.000 A 
ATOM     10  C   UNL     1       1.565   7.905  20.874  0.00  0.00    +0.000 A 
ATOM     11  C   UNL     1       0.890   9.049  21.509  0.00  0.00    +0.000 A 
ATOM     12  O   UNL     1       0.545   9.020  22.690  0.00  0.00    +0.000 OA
ATOM     13  C   UNL     1      -0.749  10.411  18.442  0.00  0.00    +0.000 C 
ENDROOT
BRANCH   1  16
ATOM     14  C   UNL     1       2.297  13.172  18.873  0.00  0.00    +0.000 C 
ATOM     15  O   UNL     1       2.851  13.084  17.791  0.00  0.00    +0.000 OA
ATOM     16  N   UNL     1       1.275  12.344  19.326  0.00  0.00    +0.000 N 
ATOM     17  H   UNL     1       0.794  12.775  20.114  0.00  0.00    +0.000 HD
BRANCH  14  21
ATOM     18  C   UNL     1       2.423  16.573  20.704  0.00  0.00    +0.000 C 
ATOM     19  N   UNL     1       2.014  15.484  19.830  0.00  0.00    +0.000 N 
ATOM     20  C   UNL     1       1.093  15.771  18.747  0.00  0.00    +0.000 C 
ATOM     21  C   UNL     1       2.701  14.278  19.904  0.00  0.00    +0.000 C 
ATOM     22  O   UNL     1       3.657  14.047  20.640  0.00  0.00    +0.000 OA
ENDBRANCH  14  21
ENDBRANCH   1  16
BRANCH   9  23
ATOM     23  C   UNL     1       2.413   6.792  18.896  0.00  0.00    +0.000 C 
ATOM     24  O   UNL     1       1.972   6.495  17.782  0.00  0.00    +0.000 OA
ATOM     25  N   UNL     1       3.347   6.032  19.537  0.00  0.00    +0.000 N 
ATOM     26  H   UNL     1       3.584   6.275  20.497  0.00  0.00    +0.000 HD
BRANCH  25  27
ATOM     27  C   UNL     1       3.791   4.785  18.957  0.00  0.00    +0.000 C 
BRANCH  27  28
ATOM     28  C   UNL     1       4.780   4.979  17.840  0.00  0.00    +0.000 A 
ATOM     29  C   UNL     1       5.906   5.797  18.018  0.00  0.00    +0.000 A 
ATOM     30  C   UNL     1       6.846   5.939  16.994  0.00  0.00    +0.000 A 
ATOM     31  C   UNL     1       6.663   5.260  15.796  0.00  0.00    +0.000 A 
ATOM     32  F   UNL     1       7.567   5.394  14.816  0.00  0.00    +0.000 F 
ATOM     33  C   UNL     1       5.560   4.437  15.602  0.00  0.00    +0.000 A 
ATOM     34  C   UNL     1       4.620   4.293  16.624  0.00  0.00    +0.000 A 
ENDBRANCH  27  28
ENDBRANCH  25  27
ENDBRANCH   9  23
BRANCH  10  35
ATOM     35  O   UNL     1       1.541   6.702  21.578  0.00  0.00    +0.000 OA
ATOM     36  H   UNL     1       2.444   6.506  21.917  0.00  0.00    +0.000 HD
ENDBRANCH  10  35
TORSDOF 6
ENDMDL
MODEL 8
REMARK VINA RESULT:      -7.2      0.936      1.288
REMARK  Name = 
REMARK  8 active torsions:
REMARK  status: ('A' for Active; 'I' for Inactive)
REMARK    1  A    between atoms: C_1  and  N_2
REMARK    2  A    between atoms: N_2  and  C_3
REMARK    3  A    between atoms: C_4  and  C_6
REMARK    4  A    between atoms: N_8  and  C_9
REMARK    5  A    between atoms: C_17  and  C_18
REMARK    6  A    between atoms: N_20  and  C_21
REMARK    7  A    between atoms: C_21  and  C_22
REMARK    8  A    between atoms: C_29  and  O_30
REMARK                            x       y       z     vdW  Elec       q    Type
REMARK                         _______ _______ _______ _____ _____    ______ ____
ROOT
ATOM      1  C   UNL     1       0.049  13.081  21.629  0.00  0.00    +0.000 C 
ATOM      2  C   UNL     1      -0.089  14.698  21.929  0.00  0.00    +0.000 C 
ATOM      3  C   UNL     1      -0.597  15.447  20.673  0.00  0.00    +0.000 C 
ATOM      4  C   UNL     1      -0.305  14.451  19.583  0.00  0.00    +0.000 C 
ATOM      5  C   UNL     1      -1.560  13.591  19.331  0.00  0.00    +0.000 C 
ATOM      6  N   UNL     1      -1.204  12.195  19.493  0.00  0.00    +0.000 N 
ATOM      7  C   UNL     1      -0.325  11.866  20.518  0.00  0.00    +0.000 A 
ATOM      8  N   UNL     1       0.371  10.758  20.483  0.00  0.00    +0.000 NA
ATOM      9  C   UNL     1       0.303  10.022  19.303  0.00  0.00    +0.000 A 
ATOM     10  C   UNL     1      -0.584  10.222  18.296  0.00  0.00    +0.000 A 
ATOM     11  C   UNL     1      -1.519  11.349  18.453  0.00  0.00    +0.000 A 
ATOM     12  O   UNL     1      -2.423  11.554  17.642  0.00  0.00    +0.000 OA
ATOM     13  C   UNL     1       0.786  13.644  20.287  0.00  0.00    +0.000 C 
ENDROOT
BRANCH   1  16
ATOM     14  C   UNL     1      -1.787  13.340  23.356  0.00  0.00    +0.000 C 
ATOM     15  O   UNL     1      -1.060  13.759  24.240  0.00  0.00    +0.000 OA
ATOM     16  N   UNL     1      -1.362  12.852  22.124  0.00  0.00    +0.000 N 
ATOM     17  H   UNL     1      -2.139  12.828  21.466  0.00  0.00    +0.000 HD
BRANCH  14  21
ATOM     18  C   UNL     1      -5.447  14.555  23.614  0.00  0.00    +0.000 C 
ATOM     19  N   UNL     1      -4.014  14.516  23.366  0.00  0.00    +0.000 N 
ATOM     20  C   UNL     1      -3.301  15.771  23.214  0.00  0.00    +0.000 C 
ATOM     21  C   UNL     1      -3.343  13.311  23.530  0.00  0.00    +0.000 C 
ATOM     22  O   UNL     1      -3.854  12.254  23.893  0.00  0.00    +0.000 OA
ENDBRANCH  14  21
ENDBRANCH   1  16
BRANCH   9  23
ATOM     23  C   UNL     1       1.431   9.049  18.956  0.00  0.00    +0.000 C 
ATOM     24  O   UNL     1       2.130   9.202  17.951  0.00  0.00    +0.000 OA
ATOM     25  N   UNL     1       1.660   8.053  19.860  0.00  0.00    +0.000 N 
ATOM     26  H   UNL     1       0.981   7.918  20.605  0.00  0.00    +0.000 HD
BRANCH  25  27
ATOM     27  C   UNL     1       2.696   7.075  19.615  0.00  0.00    +0.000 C 
BRANCH  27  28
ATOM     28  C   UNL     1       2.150   5.693  19.379  0.00  0.00    +0.000 A 
ATOM     29  C   UNL     1       1.558   4.971  20.426  0.00  0.00    +0.000 A 
ATOM     30  C   UNL     1       1.011   3.707  20.193  0.00  0.00    +0.000 A 
ATOM     31  C   UNL     1       1.052   3.167  18.913  0.00  0.00    +0.000 A 
ATOM     32  F   UNL     1       0.524   1.956  18.690  0.00  0.00    +0.000 F 
ATOM     33  C   UNL     1       1.626   3.868  17.860  0.00  0.00    +0.000 A 
ATOM     34  C   UNL     1       2.172   5.132  18.090  0.00  0.00    +0.000 A 
ENDBRANCH  27  28
ENDBRANCH  25  27
ENDBRANCH   9  23
BRANCH  10  35
ATOM     35  O   UNL     1      -0.589   9.579  17.059  0.00  0.00    +0.000 OA
ATOM     36  H   UNL     1       0.255   9.767  16.591  0.00  0.00    +0.000 HD
ENDBRANCH  10  35
TORSDOF 6
ENDMDL
MODEL 9
REMARK VINA RESULT:      -7.2      2.497      3.816
REMARK  Name = 
REMARK  8 active torsions:
REMARK  status: ('A' for Active; 'I' for Inactive)
REMARK    1  A    between atoms: C_1  and  N_2
REMARK    2  A    between atoms: N_2  and  C_3
REMARK    3  A    between atoms: C_4  and  C_6
REMARK    4  A    between atoms: N_8  and  C_9
REMARK    5  A    between atoms: C_17  and  C_18
REMARK    6  A    between atoms: N_20  and  C_21
REMARK    7  A    between atoms: C_21  and  C_22
REMARK    8  A    between atoms: C_29  and  O_30
REMARK                            x       y       z     vdW  Elec       q    Type
REMARK                         _______ _______ _______ _____ _____    ______ ____
ROOT
ATOM      1  C   UNL     1      -2.840  12.297  22.036  0.00  0.00    +0.000 C 
ATOM      2  C   UNL     1      -3.057  12.851  23.576  0.00  0.00    +0.000 C 
ATOM      3  C   UNL     1      -1.994  13.920  23.928  0.00  0.00    +0.000 C 
ATOM      4  C   UNL     1      -0.940  13.660  22.884  0.00  0.00    +0.000 C 
ATOM      5  C   UNL     1      -1.181  14.588  21.677  0.00  0.00    +0.000 C 
ATOM      6  N   UNL     1      -1.312  13.772  20.485  0.00  0.00    +0.000 N 
ATOM      7  C   UNL     1      -2.005  12.573  20.595  0.00  0.00    +0.000 A 
ATOM      8  N   UNL     1      -1.816  11.602  19.738  0.00  0.00    +0.000 NA
ATOM      9  C   UNL     1      -0.781  11.776  18.823  0.00  0.00    +0.000 A 
ATOM     10  C   UNL     1      -0.116  12.937  18.593  0.00  0.00    +0.000 A 
ATOM     11  C   UNL     1      -0.498  14.093  19.421  0.00  0.00    +0.000 A 
ATOM     12  O   UNL     1      -0.023  15.211  19.224  0.00  0.00    +0.000 OA
ATOM     13  C   UNL     1      -1.294  12.211  22.547  0.00  0.00    +0.000 C 
ENDROOT
BRANCH   1  16
ATOM     14  C   UNL     1      -5.164  13.119  21.448  0.00  0.00    +0.000 C 
ATOM     15  O   UNL     1      -5.706  12.034  21.563  0.00  0.00    +0.000 OA
ATOM     16  N   UNL     1      -3.793  13.347  21.507  0.00  0.00    +0.000 N 
ATOM     17  H   UNL     1      -3.605  14.336  21.665  0.00  0.00    +0.000 HD
BRANCH  14  21
ATOM     18  C   UNL     1      -7.357  16.220  22.164  0.00  0.00    +0.000 C 
ATOM     19  N   UNL     1      -6.494  15.062  22.341  0.00  0.00    +0.000 N 
ATOM     20  C   UNL     1      -6.396  14.464  23.660  0.00  0.00    +0.000 C 
ATOM     21  C   UNL     1      -5.999  14.423  21.212  0.00  0.00    +0.000 C 
ATOM     22  O   UNL     1      -6.242  14.739  20.049  0.00  0.00    +0.000 OA
ENDBRANCH  14  21
ENDBRANCH   1  16
BRANCH   9  23
ATOM     23  C   UNL     1      -0.146  10.552  18.162  0.00  0.00    +0.000 C 
ATOM     24  O   UNL     1      -0.804   9.785  17.455  0.00  0.00    +0.000 OA
ATOM     25  N   UNL     1       1.198  10.406  18.342  0.00  0.00    +0.000 N 
ATOM     26  H   UNL     1       1.658  11.006  19.024  0.00  0.00    +0.000 HD
BRANCH  25  27
ATOM     27  C   UNL     1       1.889   9.273  17.769  0.00  0.00    +0.000 C 
BRANCH  27  28
ATOM     28  C   UNL     1       1.976   8.103  18.711  0.00  0.00    +0.000 A 
ATOM     29  C   UNL     1       1.587   8.237  20.053  0.00  0.00    +0.000 A 
ATOM     30  C   UNL     1       1.625   7.137  20.913  0.00  0.00    +0.000 A 
ATOM     31  C   UNL     1       2.047   5.904  20.431  0.00  0.00    +0.000 A 
ATOM     32  F   UNL     1       2.080   4.849  21.257  0.00  0.00    +0.000 F 
ATOM     33  C   UNL     1       2.428   5.746  19.104  0.00  0.00    +0.000 A 
ATOM     34  C   UNL     1       2.389   6.844  18.242  0.00  0.00    +0.000 A 
ENDBRANCH  27  28
ENDBRANCH  25  27
ENDBRANCH   9  23
BRANCH  10  35
ATOM     35  O   UNL     1       1.000  13.101  17.775  0.00  0.00    +0.000 OA
ATOM     36  H   UNL     1       1.691  12.449  18.031  0.00  0.00    +0.000 HD
ENDBRANCH  10  35
TORSDOF 6
ENDMDL
