MODEL 1
REMARK VINA RESULT:      -7.9      0.000      0.000
REMARK  Name = 
REMARK  5 active torsions:
REMARK  status: ('A' for Active; 'I' for Inactive)
REMARK    1  A    between atoms: N_2  and  C_4
REMARK    2  A    between atoms: C_7  and  N_8
REMARK    3  A    between atoms: C_12  and  S_13
REMARK    4  A    between atoms: S_13  and  C_14
REMARK    5  A    between atoms: C_14  and  C_15
REMARK                            x       y       z     vdW  Elec       q    Type
REMARK                         _______ _______ _______ _____ _____    ______ ____
ROOT
ATOM      1  N   UNL     1       6.080   5.392  18.869  0.00  0.00    +0.000 N 
ATOM      2  N   UNL     1       7.151   5.549  19.696  0.00  0.00    +0.000 NA
ATOM      3  N   UNL     1       8.095   6.153  18.993  0.00  0.00    +0.000 NA
ATOM      4  N   UNL     1       7.670   6.417  17.726  0.00  0.00    +0.000 NA
ATOM      5  C   UNL     1       6.432   5.975  17.652  0.00  0.00    +0.000 A 
ENDROOT
BRANCH   1   9
ATOM      6  C   UNL     1       2.473   3.558  20.155  0.00  0.00    +0.000 A 
ATOM      7  C   UNL     1       2.565   4.949  20.069  0.00  0.00    +0.000 A 
ATOM      8  C   UNL     1       3.774   5.538  19.676  0.00  0.00    +0.000 A 
ATOM      9  C   UNL     1       4.900   4.748  19.357  0.00  0.00    +0.000 A 
ATOM     10  C   UNL     1       4.804   3.360  19.524  0.00  0.00    +0.000 A 
ATOM     11  C   UNL     1       3.596   2.763  19.907  0.00  0.00    +0.000 A 
BRANCH   6  13
ATOM     12  O   UNL     1       1.024   2.533  21.648  0.00  0.00    +0.000 OA
ATOM     13  N   UNL     1       1.192   2.920  20.482  0.00  0.00    +0.000 N 
ATOM     14  O   UNL     1       0.351   2.819  19.579  0.00  0.00    +0.000 OA
ENDBRANCH   6  13
ENDBRANCH   1   9
BRANCH   5  15
ATOM     15  S   UNL     1       5.408   6.230  16.278  0.00  0.00    +0.000 S 
BRANCH  15  16
ATOM     16  C   UNL     1       5.211   4.542  15.638  0.00  0.00    +0.000 C 
BRANCH  16  17
ATOM     17  C   UNL     1       5.900   4.384  14.303  0.00  0.00    +0.000 A 
ATOM     18  C   UNL     1       5.392   3.496  13.342  0.00  0.00    +0.000 A 
ATOM     19  C   UNL     1       6.035   3.333  12.113  0.00  0.00    +0.000 A 
ATOM     20  C   UNL     1       7.197   4.050  11.832  0.00  0.00    +0.000 A 
ATOM     21  C   UNL     1       7.717   4.929  12.781  0.00  0.00    +0.000 A 
ATOM     22  C   UNL     1       7.074   5.097  14.010  0.00  0.00    +0.000 A 
ENDBRANCH  16  17
ENDBRANCH  15  16
ENDBRANCH   5  15
TORSDOF 5
ENDMDL
MODEL 2
REMARK VINA RESULT:      -7.8      3.930      6.605
REMARK  Name = 
REMARK  5 active torsions:
REMARK  status: ('A' for Active; 'I' for Inactive)
REMARK    1  A    between atoms: N_2  and  C_4
REMARK    2  A    between atoms: C_7  and  N_8
REMARK    3  A    between atoms: C_12  and  S_13
REMARK    4  A    between atoms: S_13  and  C_14
REMARK    5  A    between atoms: C_14  and  C_15
REMARK                            x       y       z     vdW  Elec       q    Type
REMARK                         _______ _______ _______ _____ _____    ______ ____
ROOT
ATOM      1  N   UNL     1       3.983   3.144  19.950  0.00  0.00    +0.000 N 
ATOM      2  N   UNL     1       4.621   2.144  20.622  0.00  0.00    +0.000 NA
ATOM      3  N   UNL     1       3.857   1.827  21.655  0.00  0.00    +0.000 NA
ATOM      4  N   UNL     1       2.720   2.578  21.674  0.00  0.00    +0.000 NA
ATOM      5  C   UNL     1       2.781   3.368  20.623  0.00  0.00    +0.000 A 
ENDROOT
BRANCH   1   9
ATOM      6  C   UNL     1       5.952   4.718  16.534  0.00  0.00    +0.000 A 
ATOM      7  C   UNL     1       6.400   5.041  17.818  0.00  0.00    +0.000 A 
ATOM      8  C   UNL     1       5.717   4.541  18.933  0.00  0.00    +0.000 A 
ATOM      9  C   UNL     1       4.587   3.706  18.782  0.00  0.00    +0.000 A 
ATOM     10  C   UNL     1       4.114   3.460  17.486  0.00  0.00    +0.000 A 
ATOM     11  C   UNL     1       4.798   3.949  16.366  0.00  0.00    +0.000 A 
BRANCH   6  13
ATOM     12  O   UNL     1       6.362   4.713  14.251  0.00  0.00    +0.000 OA
ATOM     13  N   UNL     1       6.705   5.163  15.354  0.00  0.00    +0.000 N 
ATOM     14  O   UNL     1       7.625   5.971  15.529  0.00  0.00    +0.000 OA
ENDBRANCH   6  13
ENDBRANCH   1   9
BRANCH   5  15
ATOM     15  S   UNL     1       1.482   4.401  20.128  0.00  0.00    +0.000 S 
BRANCH  15  16
ATOM     16  C   UNL     1       1.965   5.990  20.864  0.00  0.00    +0.000 C 
BRANCH  16  17
ATOM     17  C   UNL     1       2.043   7.072  19.814  0.00  0.00    +0.000 A 
ATOM     18  C   UNL     1       1.392   8.300  20.008  0.00  0.00    +0.000 A 
ATOM     19  C   UNL     1       1.447   9.298  19.033  0.00  0.00    +0.000 A 
ATOM     20  C   UNL     1       2.147   9.079  17.848  0.00  0.00    +0.000 A 
ATOM     21  C   UNL     1       2.791   7.861  17.637  0.00  0.00    +0.000 A 
ATOM     22  C   UNL     1       2.741   6.862  18.612  0.00  0.00    +0.000 A 
ENDBRANCH  16  17
ENDBRANCH  15  16
ENDBRANCH   5  15
TORSDOF 5
ENDMDL
MODEL 3
REMARK VINA RESULT:      -7.8      0.230      1.613
REMARK  Name = 
REMARK  5 active torsions:
REMARK  status: ('A' for Active; 'I' for Inactive)
REMARK    1  A    between atoms: N_2  and  C_4
REMARK    2  A    between atoms: C_7  and  N_8
REMARK    3  A    between atoms: C_12  and  S_13
REMARK    4  A    between atoms: S_13  and  C_14
REMARK    5  A    between atoms: C_14  and  C_15
REMARK                            x       y       z     vdW  Elec       q    Type
REMARK                         _______ _______ _______ _____ _____    ______ ____
ROOT
ATOM      1  N   UNL     1       5.990   5.382  18.953  0.00  0.00    +0.000 N 
ATOM      2  N   UNL     1       6.998   5.469  19.866  0.00  0.00    +0.000 NA
ATOM      3  N   UNL     1       8.007   6.082  19.269  0.00  0.00    +0.000 NA
ATOM      4  N   UNL     1       7.686   6.421  17.989  0.00  0.00    +0.000 NA
ATOM      5  C   UNL     1       6.448   6.017  17.798  0.00  0.00    +0.000 A 
ENDROOT
BRANCH   1   9
ATOM      6  C   UNL     1       2.438   3.417  20.196  0.00  0.00    +0.000 A 
ATOM      7  C   UNL     1       3.583   2.677  19.889  0.00  0.00    +0.000 A 
ATOM      8  C   UNL     1       4.735   3.340  19.448  0.00  0.00    +0.000 A 
ATOM      9  C   UNL     1       4.761   4.746  19.315  0.00  0.00    +0.000 A 
ATOM     10  C   UNL     1       3.578   5.456  19.555  0.00  0.00    +0.000 A 
ATOM     11  C   UNL     1       2.425   4.801  20.007  0.00  0.00    +0.000 A 
BRANCH   6  13
ATOM     12  O   UNL     1       0.343   2.453  19.948  0.00  0.00    +0.000 OA
ATOM     13  N   UNL     1       1.249   2.749  20.740  0.00  0.00    +0.000 N 
ATOM     14  O   UNL     1       1.228   2.509  21.954  0.00  0.00    +0.000 OA
ENDBRANCH   6  13
ENDBRANCH   1   9
BRANCH   5  15
ATOM     15  S   UNL     1       5.539   6.368  16.365  0.00  0.00    +0.000 S 
BRANCH  15  16
ATOM     16  C   UNL     1       5.166   4.704  15.740  0.00  0.00    +0.000 C 
BRANCH  16  17
ATOM     17  C   UNL     1       5.857   4.453  14.421  0.00  0.00    +0.000 A 
ATOM     18  C   UNL     1       7.083   5.071  14.131  0.00  0.00    +0.000 A 
ATOM     19  C   UNL     1       7.717   4.855  12.905  0.00  0.00    +0.000 A 
ATOM     20  C   UNL     1       7.130   4.025  11.951  0.00  0.00    +0.000 A 
ATOM     21  C   UNL     1       5.909   3.412  12.223  0.00  0.00    +0.000 A 
ATOM     22  C   UNL     1       5.274   3.623  13.449  0.00  0.00    +0.000 A 
ENDBRANCH  16  17
ENDBRANCH  15  16
ENDBRANCH   5  15
TORSDOF 5
ENDMDL
MODEL 4
REMARK VINA RESULT:      -7.8      3.927      6.575
REMARK  Name = 
REMARK  5 active torsions:
REMARK  status: ('A' for Active; 'I' for Inactive)
REMARK    1  A    between atoms: N_2  and  C_4
REMARK    2  A    between atoms: C_7  and  N_8
REMARK    3  A    between atoms: C_12  and  S_13
REMARK    4  A    between atoms: S_13  and  C_14
REMARK    5  A    between atoms: C_14  and  C_15
REMARK                            x       y       z     vdW  Elec       q    Type
REMARK                         _______ _______ _______ _____ _____    ______ ____
ROOT
ATOM      1  N   UNL     1       3.947   3.156  20.038  0.00  0.00    +0.000 N 
ATOM      2  N   UNL     1       4.615   2.141  20.654  0.00  0.00    +0.000 NA
ATOM      3  N   UNL     1       3.880   1.769  21.689  0.00  0.00    +0.000 NA
ATOM      4  N   UNL     1       2.733   2.500  21.764  0.00  0.00    +0.000 NA
ATOM      5  C   UNL     1       2.758   3.333  20.746  0.00  0.00    +0.000 A 
ENDROOT
BRANCH   1   9
ATOM      6  C   UNL     1       5.448   5.076  16.561  0.00  0.00    +0.000 A 
ATOM      7  C   UNL     1       4.449   4.104  16.455  0.00  0.00    +0.000 A 
ATOM      8  C   UNL     1       3.991   3.456  17.609  0.00  0.00    +0.000 A 
ATOM      9  C   UNL     1       4.516   3.776  18.881  0.00  0.00    +0.000 A 
ATOM     10  C   UNL     1       5.568   4.698  18.951  0.00  0.00    +0.000 A 
ATOM     11  C   UNL     1       6.025   5.357  17.802  0.00  0.00    +0.000 A 
BRANCH   6  13
ATOM     12  O   UNL     1       5.253   6.854  15.084  0.00  0.00    +0.000 OA
ATOM     13  N   UNL     1       5.881   5.824  15.374  0.00  0.00    +0.000 N 
ATOM     14  O   UNL     1       6.853   5.392  14.743  0.00  0.00    +0.000 OA
ENDBRANCH   6  13
ENDBRANCH   1   9
BRANCH   5  15
ATOM     15  S   UNL     1       1.432   4.365  20.323  0.00  0.00    +0.000 S 
BRANCH  15  16
ATOM     16  C   UNL     1       1.968   5.962  21.002  0.00  0.00    +0.000 C 
BRANCH  16  17
ATOM     17  C   UNL     1       2.013   7.021  19.926  0.00  0.00    +0.000 A 
ATOM     18  C   UNL     1       1.428   8.278  20.142  0.00  0.00    +0.000 A 
ATOM     19  C   UNL     1       1.451   9.255  19.144  0.00  0.00    +0.000 A 
ATOM     20  C   UNL     1       2.053   8.985  17.915  0.00  0.00    +0.000 A 
ATOM     21  C   UNL     1       2.630   7.738  17.685  0.00  0.00    +0.000 A 
ATOM     22  C   UNL     1       2.611   6.760  18.682  0.00  0.00    +0.000 A 
ENDBRANCH  16  17
ENDBRANCH  15  16
ENDBRANCH   5  15
TORSDOF 5
ENDMDL
MODEL 5
REMARK VINA RESULT:      -7.7      3.651      6.856
REMARK  Name = 
REMARK  5 active torsions:
REMARK  status: ('A' for Active; 'I' for Inactive)
REMARK    1  A    between atoms: N_2  and  C_4
REMARK    2  A    between atoms: C_7  and  N_8
REMARK    3  A    between atoms: C_12  and  S_13
REMARK    4  A    between atoms: S_13  and  C_14
REMARK    5  A    between atoms: C_14  and  C_15
REMARK                            x       y       z     vdW  Elec       q    Type
REMARK                         _______ _______ _______ _____ _____    ______ ____
ROOT
ATOM      1  N   UNL     1       5.922   5.023  17.664  0.00  0.00    +0.000 N 
ATOM      2  N   UNL     1       6.803   4.450  18.531  0.00  0.00    +0.000 NA
ATOM      3  N   UNL     1       6.499   4.895  19.740  0.00  0.00    +0.000 NA
ATOM      4  N   UNL     1       5.427   5.734  19.698  0.00  0.00    +0.000 NA
ATOM      5  C   UNL     1       5.057   5.799  18.436  0.00  0.00    +0.000 A 
ENDROOT
BRANCH   1   9
ATOM      6  C   UNL     1       6.383   4.069  13.553  0.00  0.00    +0.000 A 
ATOM      7  C   UNL     1       7.340   4.849  14.208  0.00  0.00    +0.000 A 
ATOM      8  C   UNL     1       7.154   5.183  15.555  0.00  0.00    +0.000 A 
ATOM      9  C   UNL     1       6.018   4.736  16.266  0.00  0.00    +0.000 A 
ATOM     10  C   UNL     1       5.038   4.020  15.567  0.00  0.00    +0.000 A 
ATOM     11  C   UNL     1       5.222   3.674  14.222  0.00  0.00    +0.000 A 
BRANCH   6  13
ATOM     12  O   UNL     1       5.987   2.637  11.772  0.00  0.00    +0.000 OA
ATOM     13  N   UNL     1       6.602   3.638  12.166  0.00  0.00    +0.000 N 
ATOM     14  O   UNL     1       7.377   4.307  11.471  0.00  0.00    +0.000 OA
ENDBRANCH   6  13
ENDBRANCH   1   9
BRANCH   5  15
ATOM     15  S   UNL     1       3.630   6.622  17.902  0.00  0.00    +0.000 S 
BRANCH  15  16
ATOM     16  C   UNL     1       2.539   6.459  19.345  0.00  0.00    +0.000 C 
BRANCH  16  17
ATOM     17  C   UNL     1       1.975   5.061  19.442  0.00  0.00    +0.000 A 
ATOM     18  C   UNL     1       1.706   4.489  20.695  0.00  0.00    +0.000 A 
ATOM     19  C   UNL     1       1.200   3.191  20.792  0.00  0.00    +0.000 A 
ATOM     20  C   UNL     1       0.964   2.445  19.637  0.00  0.00    +0.000 A 
ATOM     21  C   UNL     1       1.234   2.998  18.387  0.00  0.00    +0.000 A 
ATOM     22  C   UNL     1       1.737   4.298  18.287  0.00  0.00    +0.000 A 
ENDBRANCH  16  17
ENDBRANCH  15  16
ENDBRANCH   5  15
TORSDOF 5
ENDMDL
MODEL 6
REMARK VINA RESULT:      -7.7      0.285      1.232
REMARK  Name = 
REMARK  5 active torsions:
REMARK  status: ('A' for Active; 'I' for Inactive)
REMARK    1  A    between atoms: N_2  and  C_4
REMARK    2  A    between atoms: C_7  and  N_8
REMARK    3  A    between atoms: C_12  and  S_13
REMARK    4  A    between atoms: S_13  and  C_14
REMARK    5  A    between atoms: C_14  and  C_15
REMARK                            x       y       z     vdW  Elec       q    Type
REMARK                         _______ _______ _______ _____ _____    ______ ____
ROOT
ATOM      1  N   UNL     1       5.960   5.351  18.834  0.00  0.00    +0.000 N 
ATOM      2  N   UNL     1       6.942   5.413  19.776  0.00  0.00    +0.000 NA
ATOM      3  N   UNL     1       7.993   5.974  19.201  0.00  0.00    +0.000 NA
ATOM      4  N   UNL     1       7.726   6.305  17.906  0.00  0.00    +0.000 NA
ATOM      5  C   UNL     1       6.479   5.947  17.683  0.00  0.00    +0.000 A 
ENDROOT
BRANCH   1   9
ATOM      6  C   UNL     1       2.308   3.495  19.948  0.00  0.00    +0.000 A 
ATOM      7  C   UNL     1       3.294   2.766  19.278  0.00  0.00    +0.000 A 
ATOM      8  C   UNL     1       4.479   3.404  18.888  0.00  0.00    +0.000 A 
ATOM      9  C   UNL     1       4.696   4.771  19.168  0.00  0.00    +0.000 A 
ATOM     10  C   UNL     1       3.661   5.497  19.771  0.00  0.00    +0.000 A 
ATOM     11  C   UNL     1       2.478   4.864  20.173  0.00  0.00    +0.000 A 
BRANCH   6  13
ATOM     12  O   UNL     1       0.255   2.473  19.600  0.00  0.00    +0.000 OA
ATOM     13  N   UNL     1       1.097   2.825  20.439  0.00  0.00    +0.000 N 
ATOM     14  O   UNL     1       0.997   2.638  21.658  0.00  0.00    +0.000 OA
ENDBRANCH   6  13
ENDBRANCH   1   9
BRANCH   5  15
ATOM     15  S   UNL     1       5.629   6.311  16.218  0.00  0.00    +0.000 S 
BRANCH  15  16
ATOM     16  C   UNL     1       5.236   4.652  15.591  0.00  0.00    +0.000 C 
BRANCH  16  17
ATOM     17  C   UNL     1       5.880   4.415  14.245  0.00  0.00    +0.000 A 
ATOM     18  C   UNL     1       5.283   3.551  13.314  0.00  0.00    +0.000 A 
ATOM     19  C   UNL     1       5.883   3.315  12.075  0.00  0.00    +0.000 A 
ATOM     20  C   UNL     1       7.091   3.932  11.755  0.00  0.00    +0.000 A 
ATOM     21  C   UNL     1       7.700   4.786  12.674  0.00  0.00    +0.000 A 
ATOM     22  C   UNL     1       7.100   5.026  13.912  0.00  0.00    +0.000 A 
ENDBRANCH  16  17
ENDBRANCH  15  16
ENDBRANCH   5  15
TORSDOF 5
ENDMDL
MODEL 7
REMARK VINA RESULT:      -7.7      3.932      6.573
REMARK  Name = 
REMARK  5 active torsions:
REMARK  status: ('A' for Active; 'I' for Inactive)
REMARK    1  A    between atoms: N_2  and  C_4
REMARK    2  A    between atoms: C_7  and  N_8
REMARK    3  A    between atoms: C_12  and  S_13
REMARK    4  A    between atoms: S_13  and  C_14
REMARK    5  A    between atoms: C_14  and  C_15
REMARK                            x       y       z     vdW  Elec       q    Type
REMARK                         _______ _______ _______ _____ _____    ______ ____
ROOT
ATOM      1  N   UNL     1       3.997   3.139  19.967  0.00  0.00    +0.000 N 
ATOM      2  N   UNL     1       4.685   2.132  20.574  0.00  0.00    +0.000 NA
ATOM      3  N   UNL     1       3.969   1.750  21.619  0.00  0.00    +0.000 NA
ATOM      4  N   UNL     1       2.814   2.467  21.710  0.00  0.00    +0.000 NA
ATOM      5  C   UNL     1       2.816   3.302  20.692  0.00  0.00    +0.000 A 
ENDROOT
BRANCH   1   9
ATOM      6  C   UNL     1       5.799   4.919  16.560  0.00  0.00    +0.000 A 
ATOM      7  C   UNL     1       6.232   5.257  17.844  0.00  0.00    +0.000 A 
ATOM      8  C   UNL     1       5.603   4.686  18.958  0.00  0.00    +0.000 A 
ATOM      9  C   UNL     1       4.542   3.766  18.803  0.00  0.00    +0.000 A 
ATOM     10  C   UNL     1       4.077   3.503  17.508  0.00  0.00    +0.000 A 
ATOM     11  C   UNL     1       4.708   4.062  16.390  0.00  0.00    +0.000 A 
BRANCH   6  13
ATOM     12  O   UNL     1       7.717   5.217  15.290  0.00  0.00    +0.000 OA
ATOM     13  N   UNL     1       6.501   5.441  15.380  0.00  0.00    +0.000 N 
ATOM     14  O   UNL     1       5.835   6.060  14.541  0.00  0.00    +0.000 OA
ENDBRANCH   6  13
ENDBRANCH   1   9
BRANCH   5  15
ATOM     15  S   UNL     1       1.472   4.318  20.288  0.00  0.00    +0.000 S 
BRANCH  15  16
ATOM     16  C   UNL     1       1.988   5.915  20.981  0.00  0.00    +0.000 C 
BRANCH  16  17
ATOM     17  C   UNL     1       2.007   6.987  19.917  0.00  0.00    +0.000 A 
ATOM     18  C   UNL     1       2.639   6.755  18.685  0.00  0.00    +0.000 A 
ATOM     19  C   UNL     1       2.674   7.749  17.705  0.00  0.00    +0.000 A 
ATOM     20  C   UNL     1       2.087   8.990  17.946  0.00  0.00    +0.000 A 
ATOM     21  C   UNL     1       1.464   9.237  19.168  0.00  0.00    +0.000 A 
ATOM     22  C   UNL     1       1.423   8.244  20.150  0.00  0.00    +0.000 A 
ENDBRANCH  16  17
ENDBRANCH  15  16
ENDBRANCH   5  15
TORSDOF 5
ENDMDL
MODEL 8
REMARK VINA RESULT:      -7.6      4.047      6.950
REMARK  Name = 
REMARK  5 active torsions:
REMARK  status: ('A' for Active; 'I' for Inactive)
REMARK    1  A    between atoms: N_2  and  C_4
REMARK    2  A    between atoms: C_7  and  N_8
REMARK    3  A    between atoms: C_12  and  S_13
REMARK    4  A    between atoms: S_13  and  C_14
REMARK    5  A    between atoms: C_14  and  C_15
REMARK                            x       y       z     vdW  Elec       q    Type
REMARK                         _______ _______ _______ _____ _____    ______ ____
ROOT
ATOM      1  N   UNL     1       4.213   3.360  19.406  0.00  0.00    +0.000 N 
ATOM      2  N   UNL     1       4.731   2.298  20.084  0.00  0.00    +0.000 NA
ATOM      3  N   UNL     1       3.978   2.122  21.158  0.00  0.00    +0.000 NA
ATOM      4  N   UNL     1       2.962   3.030  21.199  0.00  0.00    +0.000 NA
ATOM      5  C   UNL     1       3.088   3.774  20.120  0.00  0.00    +0.000 A 
ENDROOT
BRANCH   1   9
ATOM      6  C   UNL     1       6.224   4.533  15.855  0.00  0.00    +0.000 A 
ATOM      7  C   UNL     1       6.800   4.774  17.105  0.00  0.00    +0.000 A 
ATOM      8  C   UNL     1       6.107   4.412  18.267  0.00  0.00    +0.000 A 
ATOM      9  C   UNL     1       4.837   3.798  18.196  0.00  0.00    +0.000 A 
ATOM     10  C   UNL     1       4.248   3.637  16.934  0.00  0.00    +0.000 A 
ATOM     11  C   UNL     1       4.940   3.988  15.768  0.00  0.00    +0.000 A 
BRANCH   6  13
ATOM     12  O   UNL     1       7.877   5.671  14.694  0.00  0.00    +0.000 OA
ATOM     13  N   UNL     1       6.971   4.828  14.626  0.00  0.00    +0.000 N 
ATOM     14  O   UNL     1       6.661   4.208  13.601  0.00  0.00    +0.000 OA
ENDBRANCH   6  13
ENDBRANCH   1   9
BRANCH   5  15
ATOM     15  S   UNL     1       1.928   4.971  19.646  0.00  0.00    +0.000 S 
BRANCH  15  16
ATOM     16  C   UNL     1       2.994   6.377  19.219  0.00  0.00    +0.000 C 
BRANCH  16  17
ATOM     17  C   UNL     1       2.205   7.665  19.182  0.00  0.00    +0.000 A 
ATOM     18  C   UNL     1       2.138   8.425  18.004  0.00  0.00    +0.000 A 
ATOM     19  C   UNL     1       1.424   9.624  17.971  0.00  0.00    +0.000 A 
ATOM     20  C   UNL     1       0.775  10.084  19.116  0.00  0.00    +0.000 A 
ATOM     21  C   UNL     1       0.841   9.344  20.295  0.00  0.00    +0.000 A 
ATOM     22  C   UNL     1       1.551   8.141  20.331  0.00  0.00    +0.000 A 
ENDBRANCH  16  17
ENDBRANCH  15  16
ENDBRANCH   5  15
TORSDOF 5
ENDMDL
MODEL 9
REMARK VINA RESULT:      -7.6      3.942      6.968
REMARK  Name = 
REMARK  5 active torsions:
REMARK  status: ('A' for Active; 'I' for Inactive)
REMARK    1  A    between atoms: N_2  and  C_4
REMARK    2  A    between atoms: C_7  and  N_8
REMARK    3  A    between atoms: C_12  and  S_13
REMARK    4  A    between atoms: S_13  and  C_14
REMARK    5  A    between atoms: C_14  and  C_15
REMARK                            x       y       z     vdW  Elec       q    Type
REMARK                         _______ _______ _______ _____ _____    ______ ____
ROOT
ATOM      1  N   UNL     1       3.540   3.387  20.093  0.00  0.00    +0.000 N 
ATOM      2  N   UNL     1       3.912   2.270  20.779  0.00  0.00    +0.000 NA
ATOM      3  N   UNL     1       3.095   2.165  21.815  0.00  0.00    +0.000 NA
ATOM      4  N   UNL     1       2.180   3.174  21.822  0.00  0.00    +0.000 NA
ATOM      5  C   UNL     1       2.433   3.910  20.761  0.00  0.00    +0.000 A 
ENDROOT
BRANCH   1   9
ATOM      6  C   UNL     1       5.837   4.389  16.665  0.00  0.00    +0.000 A 
ATOM      7  C   UNL     1       6.321   4.670  17.946  0.00  0.00    +0.000 A 
ATOM      8  C   UNL     1       5.534   4.364  19.064  0.00  0.00    +0.000 A 
ATOM      9  C   UNL     1       4.263   3.768  18.918  0.00  0.00    +0.000 A 
ATOM     10  C   UNL     1       3.769   3.566  17.622  0.00  0.00    +0.000 A 
ATOM     11  C   UNL     1       4.554   3.860  16.500  0.00  0.00    +0.000 A 
BRANCH   6  13
ATOM     12  O   UNL     1       6.512   3.889  14.503  0.00  0.00    +0.000 OA
ATOM     13  N   UNL     1       6.681   4.624  15.487  0.00  0.00    +0.000 N 
ATOM     14  O   UNL     1       7.500   5.550  15.541  0.00  0.00    +0.000 OA
ENDBRANCH   6  13
ENDBRANCH   1   9
BRANCH   5  15
ATOM     15  S   UNL     1       1.428   5.227  20.250  0.00  0.00    +0.000 S 
BRANCH  15  16
ATOM     16  C   UNL     1       2.658   6.491  19.817  0.00  0.00    +0.000 C 
BRANCH  16  17
ATOM     17  C   UNL     1       1.994   7.814  19.518  0.00  0.00    +0.000 A 
ATOM     18  C   UNL     1       2.081   8.379  18.237  0.00  0.00    +0.000 A 
ATOM     19  C   UNL     1       1.483   9.610  17.959  0.00  0.00    +0.000 A 
ATOM     20  C   UNL     1       0.797  10.296  18.961  0.00  0.00    +0.000 A 
ATOM     21  C   UNL     1       0.709   9.750  20.240  0.00  0.00    +0.000 A 
ATOM     22  C   UNL     1       1.304   8.517  20.520  0.00  0.00    +0.000 A 
ENDBRANCH  16  17
ENDBRANCH  15  16
ENDBRANCH   5  15
TORSDOF 5
ENDMDL
