MODEL 1
REMARK VINA RESULT:      -8.4      0.000      0.000
REMARK  Name = 
REMARK  2 active torsions:
REMARK  status: ('A' for Active; 'I' for Inactive)
REMARK    1  A    between atoms: N_11  and  C_12
REMARK    2  A    between atoms: C_14  and  C_15
REMARK                            x       y       z     vdW  Elec       q    Type
REMARK                         _______ _______ _______ _____ _____    ______ ____
ROOT
ATOM      1  N   UNL     1       7.009   5.277  20.018  0.00  0.00    +0.000 NA
ATOM      2  C   UNL     1       6.452   5.356  18.856  0.00  0.00    +0.000 C 
ATOM      3  N   UNL     1       7.177   5.490  17.715  0.00  0.00    +0.000 N 
ATOM      4  C   UNL     1       6.886   4.978  16.447  0.00  0.00    +0.000 A 
ATOM      5  C   UNL     1       6.028   3.889  16.271  0.00  0.00    +0.000 A 
ATOM      6  C   UNL     1       5.763   3.404  14.993  0.00  0.00    +0.000 A 
ATOM      7  C   UNL     1       6.340   4.042  13.907  0.00  0.00    +0.000 A 
ATOM      8 BR   UNL     1       6.004   3.441  12.156  0.00  0.00    +0.000 Br
ATOM      9  C   UNL     1       7.176   5.118  14.151  0.00  0.00    +0.000 A 
ATOM     10  N   UNL     1       7.481   5.579  15.393  0.00  0.00    +0.000 NA
ATOM     11  N   UNL     1       5.096   5.344  18.665  0.00  0.00    +0.000 N 
ATOM     12  H   UNL     1       8.022   5.289  19.902  0.00  0.00    +0.000 HD
ATOM     13  H   UNL     1       8.068   5.964  17.732  0.00  0.00    +0.000 HD
ATOM     14  H   UNL     1       4.749   5.995  17.969  0.00  0.00    +0.000 HD
ENDROOT
BRANCH  11  15
ATOM     15  C   UNL     1       4.175   4.836  19.672  0.00  0.00    +0.000 C 
ATOM     16  C   UNL     1       2.862   4.278  19.193  0.00  0.00    +0.000 C 
ATOM     17  C   UNL     1       2.879   5.504  20.071  0.00  0.00    +0.000 C 
BRANCH  17  18
ATOM     18  C   UNL     1       2.448   6.836  19.509  0.00  0.00    +0.000 A 
ATOM     19  C   UNL     1       2.626   7.143  18.149  0.00  0.00    +0.000 A 
ATOM     20  C   UNL     1       2.192   8.359  17.612  0.00  0.00    +0.000 A 
ATOM     21  C   UNL     1       1.568   9.296  18.430  0.00  0.00    +0.000 A 
ATOM     22  C   UNL     1       1.371   9.013  19.778  0.00  0.00    +0.000 A 
ATOM     23  C   UNL     1       1.803   7.793  20.308  0.00  0.00    +0.000 A 
ENDBRANCH  17  18
ENDBRANCH  11  15
TORSDOF 2
ENDMDL
MODEL 2
REMARK VINA RESULT:      -8.3      0.089      1.079
REMARK  Name = 
REMARK  2 active torsions:
REMARK  status: ('A' for Active; 'I' for Inactive)
REMARK    1  A    between atoms: N_11  and  C_12
REMARK    2  A    between atoms: C_14  and  C_15
REMARK                            x       y       z     vdW  Elec       q    Type
REMARK                         _______ _______ _______ _____ _____    ______ ____
ROOT
ATOM      1  N   UNL     1       6.920   5.221  20.037  0.00  0.00    +0.000 NA
ATOM      2  C   UNL     1       6.376   5.315  18.870  0.00  0.00    +0.000 C 
ATOM      3  N   UNL     1       7.115   5.437  17.736  0.00  0.00    +0.000 N 
ATOM      4  C   UNL     1       6.825   4.935  16.463  0.00  0.00    +0.000 A 
ATOM      5  C   UNL     1       5.946   3.864  16.276  0.00  0.00    +0.000 A 
ATOM      6  C   UNL     1       5.683   3.389  14.994  0.00  0.00    +0.000 A 
ATOM      7  C   UNL     1       6.284   4.017  13.916  0.00  0.00    +0.000 A 
ATOM      8 BR   UNL     1       5.952   3.428  12.160  0.00  0.00    +0.000 Br
ATOM      9  C   UNL     1       7.140   5.074  14.171  0.00  0.00    +0.000 A 
ATOM     10  N   UNL     1       7.442   5.525  15.417  0.00  0.00    +0.000 NA
ATOM     11  N   UNL     1       5.022   5.332  18.666  0.00  0.00    +0.000 N 
ATOM     12  H   UNL     1       7.935   5.212  19.930  0.00  0.00    +0.000 HD
ATOM     13  H   UNL     1       8.015   5.891  17.763  0.00  0.00    +0.000 HD
ATOM     14  H   UNL     1       4.695   5.992  17.969  0.00  0.00    +0.000 HD
ENDROOT
BRANCH  11  15
ATOM     15  C   UNL     1       4.081   4.841  19.662  0.00  0.00    +0.000 C 
ATOM     16  C   UNL     1       2.776   4.278  19.167  0.00  0.00    +0.000 C 
ATOM     17  C   UNL     1       2.780   5.518  20.027  0.00  0.00    +0.000 C 
BRANCH  17  18
ATOM     18  C   UNL     1       2.363   6.842  19.437  0.00  0.00    +0.000 A 
ATOM     19  C   UNL     1       1.781   7.842  20.234  0.00  0.00    +0.000 A 
ATOM     20  C   UNL     1       1.429   9.087  19.704  0.00  0.00    +0.000 A 
ATOM     21  C   UNL     1       1.656   9.356  18.358  0.00  0.00    +0.000 A 
ATOM     22  C   UNL     1       2.240   8.387  17.548  0.00  0.00    +0.000 A 
ATOM     23  C   UNL     1       2.594   7.146  18.086  0.00  0.00    +0.000 A 
ENDBRANCH  17  18
ENDBRANCH  11  15
TORSDOF 2
ENDMDL
MODEL 3
REMARK VINA RESULT:      -7.5      3.682      6.029
REMARK  Name = 
REMARK  2 active torsions:
REMARK  status: ('A' for Active; 'I' for Inactive)
REMARK    1  A    between atoms: N_11  and  C_12
REMARK    2  A    between atoms: C_14  and  C_15
REMARK                            x       y       z     vdW  Elec       q    Type
REMARK                         _______ _______ _______ _____ _____    ______ ____
ROOT
ATOM      1  N   UNL     1       2.724   2.947  21.391  0.00  0.00    +0.000 NA
ATOM      2  C   UNL     1       2.150   3.846  20.662  0.00  0.00    +0.000 C 
ATOM      3  N   UNL     1       1.938   5.111  21.109  0.00  0.00    +0.000 N 
ATOM      4  C   UNL     1       1.955   6.298  20.370  0.00  0.00    +0.000 A 
ATOM      5  C   UNL     1       2.623   6.394  19.145  0.00  0.00    +0.000 A 
ATOM      6  C   UNL     1       2.621   7.593  18.438  0.00  0.00    +0.000 A 
ATOM      7  C   UNL     1       1.920   8.670  18.956  0.00  0.00    +0.000 A 
ATOM      8 BR   UNL     1       1.868  10.310  18.035  0.00  0.00    +0.000 Br
ATOM      9  C   UNL     1       1.276   8.505  20.170  0.00  0.00    +0.000 A 
ATOM     10  N   UNL     1       1.302   7.357  20.897  0.00  0.00    +0.000 NA
ATOM     11  N   UNL     1       1.680   3.607  19.398  0.00  0.00    +0.000 N 
ATOM     12  H   UNL     1       2.999   3.367  22.278  0.00  0.00    +0.000 HD
ATOM     13  H   UNL     1       1.794   5.285  22.092  0.00  0.00    +0.000 HD
ATOM     14  H   UNL     1       0.786   4.032  19.179  0.00  0.00    +0.000 HD
ENDROOT
BRANCH  11  15
ATOM     15  C   UNL     1       2.133   2.475  18.602  0.00  0.00    +0.000 C 
ATOM     16  C   UNL     1       3.332   1.714  19.096  0.00  0.00    +0.000 C 
ATOM     17  C   UNL     1       3.401   2.449  17.781  0.00  0.00    +0.000 C 
BRANCH  17  18
ATOM     18  C   UNL     1       4.299   3.653  17.639  0.00  0.00    +0.000 A 
ATOM     19  C   UNL     1       5.215   3.998  18.646  0.00  0.00    +0.000 A 
ATOM     20  C   UNL     1       6.079   5.088  18.505  0.00  0.00    +0.000 A 
ATOM     21  C   UNL     1       6.042   5.858  17.346  0.00  0.00    +0.000 A 
ATOM     22  C   UNL     1       5.150   5.531  16.329  0.00  0.00    +0.000 A 
ATOM     23  C   UNL     1       4.293   4.437  16.474  0.00  0.00    +0.000 A 
ENDBRANCH  17  18
ENDBRANCH  11  15
TORSDOF 2
ENDMDL
MODEL 4
REMARK VINA RESULT:      -7.4      3.706      5.958
REMARK  Name = 
REMARK  2 active torsions:
REMARK  status: ('A' for Active; 'I' for Inactive)
REMARK    1  A    between atoms: N_11  and  C_12
REMARK    2  A    between atoms: C_14  and  C_15
REMARK                            x       y       z     vdW  Elec       q    Type
REMARK                         _______ _______ _______ _____ _____    ______ ____
ROOT
ATOM      1  N   UNL     1       2.741   3.031  21.320  0.00  0.00    +0.000 NA
ATOM      2  C   UNL     1       2.150   3.937  20.615  0.00  0.00    +0.000 C 
ATOM      3  N   UNL     1       1.952   5.198  21.078  0.00  0.00    +0.000 N 
ATOM      4  C   UNL     1       1.952   6.391  20.348  0.00  0.00    +0.000 A 
ATOM      5  C   UNL     1       2.586   6.496  19.107  0.00  0.00    +0.000 A 
ATOM      6  C   UNL     1       2.567   7.701  18.410  0.00  0.00    +0.000 A 
ATOM      7  C   UNL     1       1.884   8.775  18.956  0.00  0.00    +0.000 A 
ATOM      8 BR   UNL     1       1.810  10.423  18.050  0.00  0.00    +0.000 Br
ATOM      9  C   UNL     1       1.273   8.602  20.186  0.00  0.00    +0.000 A 
ATOM     10  N   UNL     1       1.316   7.447  20.902  0.00  0.00    +0.000 NA
ATOM     11  N   UNL     1       1.645   3.709  19.362  0.00  0.00    +0.000 N 
ATOM     12  H   UNL     1       3.042   3.443  22.203  0.00  0.00    +0.000 HD
ATOM     13  H   UNL     1       1.836   5.364  22.066  0.00  0.00    +0.000 HD
ATOM     14  H   UNL     1       0.746   4.137  19.171  0.00  0.00    +0.000 HD
ENDROOT
BRANCH  11  15
ATOM     15  C   UNL     1       2.073   2.583  18.545  0.00  0.00    +0.000 C 
ATOM     16  C   UNL     1       3.238   1.770  19.039  0.00  0.00    +0.000 C 
ATOM     17  C   UNL     1       3.353   2.535  17.744  0.00  0.00    +0.000 C 
BRANCH  17  18
ATOM     18  C   UNL     1       4.293   3.711  17.648  0.00  0.00    +0.000 A 
ATOM     19  C   UNL     1       4.283   4.560  16.529  0.00  0.00    +0.000 A 
ATOM     20  C   UNL     1       5.122   5.676  16.450  0.00  0.00    +0.000 A 
ATOM     21  C   UNL     1       5.991   5.966  17.498  0.00  0.00    +0.000 A 
ATOM     22  C   UNL     1       6.014   5.147  18.623  0.00  0.00    +0.000 A 
ATOM     23  C   UNL     1       5.168   4.035  18.697  0.00  0.00    +0.000 A 
ENDBRANCH  17  18
ENDBRANCH  11  15
TORSDOF 2
ENDMDL
MODEL 5
REMARK VINA RESULT:      -7.1      1.141      1.397
REMARK  Name = 
REMARK  2 active torsions:
REMARK  status: ('A' for Active; 'I' for Inactive)
REMARK    1  A    between atoms: N_11  and  C_12
REMARK    2  A    between atoms: C_14  and  C_15
REMARK                            x       y       z     vdW  Elec       q    Type
REMARK                         _______ _______ _______ _____ _____    ______ ____
ROOT
ATOM      1  N   UNL     1       5.832   3.976  19.383  0.00  0.00    +0.000 NA
ATOM      2  C   UNL     1       5.604   4.359  18.171  0.00  0.00    +0.000 C 
ATOM      3  N   UNL     1       6.598   4.781  17.348  0.00  0.00    +0.000 N 
ATOM      4  C   UNL     1       6.693   4.620  15.961  0.00  0.00    +0.000 A 
ATOM      5  C   UNL     1       5.987   3.619  15.286  0.00  0.00    +0.000 A 
ATOM      6  C   UNL     1       6.108   3.486  13.906  0.00  0.00    +0.000 A 
ATOM      7  C   UNL     1       6.912   4.381  13.219  0.00  0.00    +0.000 A 
ATOM      8 BR   UNL     1       7.098   4.260  11.350  0.00  0.00    +0.000 Br
ATOM      9  C   UNL     1       7.578   5.351  13.948  0.00  0.00    +0.000 A 
ATOM     10  N   UNL     1       7.507   5.470  15.300  0.00  0.00    +0.000 NA
ATOM     11  N   UNL     1       4.353   4.406  17.616  0.00  0.00    +0.000 N 
ATOM     12  H   UNL     1       6.837   4.011  19.558  0.00  0.00    +0.000 HD
ATOM     13  H   UNL     1       7.418   5.228  17.728  0.00  0.00    +0.000 HD
ATOM     14  H   UNL     1       4.163   5.218  17.039  0.00  0.00    +0.000 HD
ENDROOT
BRANCH  11  15
ATOM     15  C   UNL     1       3.230   3.659  18.167  0.00  0.00    +0.000 C 
ATOM     16  C   UNL     1       1.896   3.812  17.490  0.00  0.00    +0.000 C 
ATOM     17  C   UNL     1       2.071   4.272  18.916  0.00  0.00    +0.000 C 
BRANCH  17  18
ATOM     18  C   UNL     1       2.006   5.744  19.243  0.00  0.00    +0.000 A 
ATOM     19  C   UNL     1       2.216   6.719  18.254  0.00  0.00    +0.000 A 
ATOM     20  C   UNL     1       2.118   8.083  18.540  0.00  0.00    +0.000 A 
ATOM     21  C   UNL     1       1.803   8.501  19.829  0.00  0.00    +0.000 A 
ATOM     22  C   UNL     1       1.579   7.556  20.826  0.00  0.00    +0.000 A 
ATOM     23  C   UNL     1       1.675   6.193  20.532  0.00  0.00    +0.000 A 
ENDBRANCH  17  18
ENDBRANCH  11  15
TORSDOF 2
ENDMDL
MODEL 6
REMARK VINA RESULT:      -7.1      1.394      1.935
REMARK  Name = 
REMARK  2 active torsions:
REMARK  status: ('A' for Active; 'I' for Inactive)
REMARK    1  A    between atoms: N_11  and  C_12
REMARK    2  A    between atoms: C_14  and  C_15
REMARK                            x       y       z     vdW  Elec       q    Type
REMARK                         _______ _______ _______ _____ _____    ______ ____
ROOT
ATOM      1  N   UNL     1       5.205   2.908  19.749  0.00  0.00    +0.000 NA
ATOM      2  C   UNL     1       5.186   3.641  18.686  0.00  0.00    +0.000 C 
ATOM      3  N   UNL     1       6.324   4.010  18.042  0.00  0.00    +0.000 N 
ATOM      4  C   UNL     1       6.511   4.202  16.669  0.00  0.00    +0.000 A 
ATOM      5  C   UNL     1       5.665   3.619  15.722  0.00  0.00    +0.000 A 
ATOM      6  C   UNL     1       5.883   3.830  14.363  0.00  0.00    +0.000 A 
ATOM      7  C   UNL     1       6.931   4.650  13.977  0.00  0.00    +0.000 A 
ATOM      8 BR   UNL     1       7.262   4.984  12.155  0.00  0.00    +0.000 Br
ATOM      9  C   UNL     1       7.728   5.199  14.967  0.00  0.00    +0.000 A 
ATOM     10  N   UNL     1       7.557   4.971  16.296  0.00  0.00    +0.000 NA
ATOM     11  N   UNL     1       4.037   4.138  18.130  0.00  0.00    +0.000 N 
ATOM     12  H   UNL     1       6.170   2.649  19.956  0.00  0.00    +0.000 HD
ATOM     13  H   UNL     1       7.184   4.125  18.556  0.00  0.00    +0.000 HD
ATOM     14  H   UNL     1       4.093   5.094  17.797  0.00  0.00    +0.000 HD
ENDROOT
BRANCH  11  15
ATOM     15  C   UNL     1       2.727   3.570  18.417  0.00  0.00    +0.000 C 
ATOM     16  C   UNL     1       1.600   3.918  17.484  0.00  0.00    +0.000 C 
ATOM     17  C   UNL     1       1.540   4.354  18.927  0.00  0.00    +0.000 C 
BRANCH  17  18
ATOM     18  C   UNL     1       1.626   5.821  19.272  0.00  0.00    +0.000 A 
ATOM     19  C   UNL     1       1.429   6.270  20.588  0.00  0.00    +0.000 A 
ATOM     20  C   UNL     1       1.547   7.622  20.924  0.00  0.00    +0.000 A 
ATOM     21  C   UNL     1       1.868   8.555  19.943  0.00  0.00    +0.000 A 
ATOM     22  C   UNL     1       2.078   8.135  18.632  0.00  0.00    +0.000 A 
ATOM     23  C   UNL     1       1.964   6.781  18.305  0.00  0.00    +0.000 A 
ENDBRANCH  17  18
ENDBRANCH  11  15
TORSDOF 2
ENDMDL
MODEL 7
REMARK VINA RESULT:      -7.0      2.554      3.363
REMARK  Name = 
REMARK  2 active torsions:
REMARK  status: ('A' for Active; 'I' for Inactive)
REMARK    1  A    between atoms: N_11  and  C_12
REMARK    2  A    between atoms: C_14  and  C_15
REMARK                            x       y       z     vdW  Elec       q    Type
REMARK                         _______ _______ _______ _____ _____    ______ ____
ROOT
ATOM      1  N   UNL     1       2.659   1.714  17.711  0.00  0.00    +0.000 NA
ATOM      2  C   UNL     1       3.621   2.447  18.164  0.00  0.00    +0.000 C 
ATOM      3  N   UNL     1       4.638   2.875  17.373  0.00  0.00    +0.000 N 
ATOM      4  C   UNL     1       5.341   4.082  17.453  0.00  0.00    +0.000 A 
ATOM      5  C   UNL     1       4.805   5.206  18.089  0.00  0.00    +0.000 A 
ATOM      6  C   UNL     1       5.531   6.391  18.147  0.00  0.00    +0.000 A 
ATOM      7  C   UNL     1       6.801   6.422  17.594  0.00  0.00    +0.000 A 
ATOM      8 BR   UNL     1       7.835   7.992  17.659  0.00  0.00    +0.000 Br
ATOM      9  C   UNL     1       7.274   5.272  16.984  0.00  0.00    +0.000 A 
ATOM     10  N   UNL     1       6.563   4.119  16.879  0.00  0.00    +0.000 NA
ATOM     11  N   UNL     1       3.724   2.833  19.475  0.00  0.00    +0.000 N 
ATOM     12  H   UNL     1       2.792   1.577  16.709  0.00  0.00    +0.000 HD
ATOM     13  H   UNL     1       4.936   2.322  16.584  0.00  0.00    +0.000 HD
ATOM     14  H   UNL     1       4.660   2.802  19.865  0.00  0.00    +0.000 HD
ENDROOT
BRANCH  11  15
ATOM     15  C   UNL     1       2.585   2.815  20.381  0.00  0.00    +0.000 C 
ATOM     16  C   UNL     1       1.212   2.753  19.770  0.00  0.00    +0.000 C 
ATOM     17  C   UNL     1       1.619   3.961  20.576  0.00  0.00    +0.000 C 
BRANCH  17  18
ATOM     18  C   UNL     1       1.797   5.294  19.893  0.00  0.00    +0.000 A 
ATOM     19  C   UNL     1       1.730   5.409  18.494  0.00  0.00    +0.000 A 
ATOM     20  C   UNL     1       1.853   6.647  17.856  0.00  0.00    +0.000 A 
ATOM     21  C   UNL     1       2.045   7.800  18.610  0.00  0.00    +0.000 A 
ATOM     22  C   UNL     1       2.105   7.716  19.998  0.00  0.00    +0.000 A 
ATOM     23  C   UNL     1       1.976   6.476  20.630  0.00  0.00    +0.000 A 
ENDBRANCH  17  18
ENDBRANCH  11  15
TORSDOF 2
ENDMDL
MODEL 8
REMARK VINA RESULT:      -7.0      2.553      4.669
REMARK  Name = 
REMARK  2 active torsions:
REMARK  status: ('A' for Active; 'I' for Inactive)
REMARK    1  A    between atoms: N_11  and  C_12
REMARK    2  A    between atoms: C_14  and  C_15
REMARK                            x       y       z     vdW  Elec       q    Type
REMARK                         _______ _______ _______ _____ _____    ______ ____
ROOT
ATOM      1  N   UNL     1       2.023   7.724  20.800  0.00  0.00    +0.000 NA
ATOM      2  C   UNL     1       2.253   7.029  19.736  0.00  0.00    +0.000 C 
ATOM      3  N   UNL     1       3.047   7.485  18.733  0.00  0.00    +0.000 N 
ATOM      4  C   UNL     1       3.891   6.743  17.899  0.00  0.00    +0.000 A 
ATOM      5  C   UNL     1       4.366   5.480  18.267  0.00  0.00    +0.000 A 
ATOM      6  C   UNL     1       5.206   4.772  17.413  0.00  0.00    +0.000 A 
ATOM      7  C   UNL     1       5.532   5.328  16.188  0.00  0.00    +0.000 A 
ATOM      8 BR   UNL     1       6.650   4.407  14.986  0.00  0.00    +0.000 Br
ATOM      9  C   UNL     1       5.023   6.579  15.884  0.00  0.00    +0.000 A 
ATOM     10  N   UNL     1       4.237   7.305  16.721  0.00  0.00    +0.000 NA
ATOM     11  N   UNL     1       1.704   5.795  19.506  0.00  0.00    +0.000 N 
ATOM     12  H   UNL     1       2.555   8.593  20.749  0.00  0.00    +0.000 HD
ATOM     13  H   UNL     1       3.117   8.474  18.550  0.00  0.00    +0.000 HD
ATOM     14  H   UNL     1       1.391   5.629  18.555  0.00  0.00    +0.000 HD
ENDROOT
BRANCH  11  15
ATOM     15  C   UNL     1       1.155   4.977  20.578  0.00  0.00    +0.000 C 
ATOM     16  C   UNL     1       2.093   4.547  21.672  0.00  0.00    +0.000 C 
ATOM     17  C   UNL     1       1.454   3.510  20.782  0.00  0.00    +0.000 C 
BRANCH  17  18
ATOM     18  C   UNL     1       2.306   2.715  19.823  0.00  0.00    +0.000 A 
ATOM     19  C   UNL     1       1.860   2.426  18.523  0.00  0.00    +0.000 A 
ATOM     20  C   UNL     1       2.660   1.726  17.615  0.00  0.00    +0.000 A 
ATOM     21  C   UNL     1       3.930   1.301  17.993  0.00  0.00    +0.000 A 
ATOM     22  C   UNL     1       4.400   1.583  19.272  0.00  0.00    +0.000 A 
ATOM     23  C   UNL     1       3.597   2.288  20.173  0.00  0.00    +0.000 A 
ENDBRANCH  17  18
ENDBRANCH  11  15
TORSDOF 2
ENDMDL
MODEL 9
REMARK VINA RESULT:      -7.0      2.549      3.517
REMARK  Name = 
REMARK  2 active torsions:
REMARK  status: ('A' for Active; 'I' for Inactive)
REMARK    1  A    between atoms: N_11  and  C_12
REMARK    2  A    between atoms: C_14  and  C_15
REMARK                            x       y       z     vdW  Elec       q    Type
REMARK                         _______ _______ _______ _____ _____    ______ ____
ROOT
ATOM      1  N   UNL     1       2.773   1.696  17.841  0.00  0.00    +0.000 NA
ATOM      2  C   UNL     1       3.734   2.444  18.271  0.00  0.00    +0.000 C 
ATOM      3  N   UNL     1       4.726   2.885  17.456  0.00  0.00    +0.000 N 
ATOM      4  C   UNL     1       5.412   4.102  17.517  0.00  0.00    +0.000 A 
ATOM      5  C   UNL     1       4.874   5.220  18.162  0.00  0.00    +0.000 A 
ATOM      6  C   UNL     1       5.584   6.416  18.201  0.00  0.00    +0.000 A 
ATOM      7  C   UNL     1       6.840   6.464  17.618  0.00  0.00    +0.000 A 
ATOM      8 BR   UNL     1       7.853   8.049  17.656  0.00  0.00    +0.000 Br
ATOM      9  C   UNL     1       7.316   5.320  17.001  0.00  0.00    +0.000 A 
ATOM     10  N   UNL     1       6.621   4.156  16.915  0.00  0.00    +0.000 NA
ATOM     11  N   UNL     1       3.861   2.835  19.578  0.00  0.00    +0.000 N 
ATOM     12  H   UNL     1       2.885   1.558  16.837  0.00  0.00    +0.000 HD
ATOM     13  H   UNL     1       5.014   2.334  16.662  0.00  0.00    +0.000 HD
ATOM     14  H   UNL     1       4.805   2.819  19.947  0.00  0.00    +0.000 HD
ENDROOT
BRANCH  11  15
ATOM     15  C   UNL     1       2.743   2.803  20.510  0.00  0.00    +0.000 C 
ATOM     16  C   UNL     1       1.364   2.625  19.936  0.00  0.00    +0.000 C 
ATOM     17  C   UNL     1       1.714   3.900  20.662  0.00  0.00    +0.000 C 
BRANCH  17  18
ATOM     18  C   UNL     1       1.798   5.199  19.900  0.00  0.00    +0.000 A 
ATOM     19  C   UNL     1       2.035   6.416  20.561  0.00  0.00    +0.000 A 
ATOM     20  C   UNL     1       2.155   7.618  19.859  0.00  0.00    +0.000 A 
ATOM     21  C   UNL     1       2.039   7.626  18.472  0.00  0.00    +0.000 A 
ATOM     22  C   UNL     1       1.814   6.433  17.791  0.00  0.00    +0.000 A 
ATOM     23  C   UNL     1       1.700   5.234  18.500  0.00  0.00    +0.000 A 
ENDBRANCH  17  18
ENDBRANCH  11  15
TORSDOF 2
ENDMDL
