MODEL 1
REMARK VINA RESULT:      -6.8      0.000      0.000
REMARK  Name = 
REMARK  14 active torsions:
REMARK  status: ('A' for Active; 'I' for Inactive)
REMARK    1  A    between atoms: N_1  and  CA_2
REMARK    2  A    between atoms: CA_2  and  C_3
REMARK    3  A    between atoms: CA_2  and  C_21
REMARK    4  A    between atoms: C_3  and  C_4
REMARK    5  A    between atoms: C_4  and  P_5
REMARK    6  A    between atoms: P_5  and  O_7
REMARK    7  A    between atoms: P_5  and  C_8
REMARK    8  A    between atoms: C_8  and  O_9
REMARK    9  A    between atoms: C_8  and  C_10
REMARK   10  A    between atoms: C_13  and  S_14
REMARK   11  A    between atoms: S_14  and  C_15
REMARK   12  A    between atoms: C_15  and  C_16
REMARK   13  A    between atoms: C_16  and  O_18
REMARK   14  A    between atoms: C_21  and  OXT_23
REMARK                            x       y       z     vdW  Elec       q    Type
REMARK                         _______ _______ _______ _____ _____    ______ ____
ROOT
ATOM      1  C   UNL     1       3.283   4.312  18.495  0.00  0.00    +0.000 C 
ENDROOT
BRANCH   1   2
ATOM      2  C   UNL     1       2.766   5.686  18.901  0.00  0.00    +0.000 A 
ATOM      3  C   UNL     1       2.118   5.858  20.133  0.00  0.00    +0.000 A 
ATOM      4  C   UNL     1       1.596   7.105  20.500  0.00  0.00    +0.000 A 
ATOM      5  C   UNL     1       1.712   8.202  19.641  0.00  0.00    +0.000 A 
ATOM      6  C   UNL     1       2.349   8.038  18.410  0.00  0.00    +0.000 A 
ATOM      7  C   UNL     1       2.867   6.791  18.043  0.00  0.00    +0.000 A 
BRANCH   5   8
ATOM      8  S   UNL     1       0.964   9.762  20.063  0.00  0.00    +0.000 S 
BRANCH   8   9
ATOM      9  C   UNL     1      -0.080   9.241  21.474  0.00  0.00    +0.000 C 
BRANCH   9  10
ATOM     10  C   UNL     1       0.535   9.612  22.813  0.00  0.00    +0.000 C 
ATOM     11  O   UNL     1      -0.127  10.025  23.753  0.00  0.00    +0.000 OA
BRANCH  10  12
ATOM     12  O   UNL     1       1.878   9.465  22.903  0.00  0.00    +0.000 OA
ATOM     13  H   UNL     1       2.345  10.249  22.543  0.00  0.00    +0.000 HD
ENDBRANCH  10  12
ENDBRANCH   9  10
ENDBRANCH   8   9
ENDBRANCH   5   8
ENDBRANCH   1   2
BRANCH   1  14
ATOM     14  P   UNL     1       4.904   4.370  17.647  0.00  0.00    +0.000 P 
ATOM     15  O   UNL     1       4.353   3.532  16.480  0.00  0.00    +0.000 OA
BRANCH  14  16
ATOM     16  O   UNL     1       5.523   3.206  18.677  0.00  0.00    +0.000 OA
ATOM     17  H   UNL     1       5.152   2.327  18.438  0.00  0.00    +0.000 HD
ENDBRANCH  14  16
BRANCH  14  18
ATOM     18  C   UNL     1       6.525   4.428  16.799  0.00  0.00    +0.000 C 
BRANCH  18  19
ATOM     19  C   UNL     1       7.648   4.732  17.793  0.00  0.00    +0.000 C 
BRANCH  19  20
ATOM     20  CA  UNL     1       7.325   5.890  18.751  0.00  0.00    +0.000 C 
BRANCH  20  21
ATOM     21  N   UNL     1       7.903   5.638  20.084  0.00  0.00    +0.000 NA
ATOM     22  H1  UNL     1       7.783   4.680  20.396  0.00  0.00    +0.000 HD
ATOM     23  H2  UNL     1       7.429   6.221  20.778  0.00  0.00    +0.000 HD
ENDBRANCH  20  21
BRANCH  20  24
ATOM     24  C   UNL     1       7.854   7.222  18.186  0.00  0.00    +0.000 C 
ATOM     25  O   UNL     1       7.534   7.709  17.112  0.00  0.00    +0.000 OA
BRANCH  24  26
ATOM     26  OXT UNL     1       8.749   7.820  19.012  0.00  0.00    +0.000 OA
ATOM     27  HXT UNL     1       8.348   8.128  19.846  0.00  0.00    +0.000 HD
ENDBRANCH  24  26
ENDBRANCH  20  24
ENDBRANCH  19  20
ENDBRANCH  18  19
ENDBRANCH  14  18
ENDBRANCH   1  14
BRANCH   1  28
ATOM     28  O   UNL     1       3.346   3.479  19.669  0.00  0.00    +0.000 OA
ATOM     29  H   UNL     1       2.475   3.603  20.091  0.00  0.00    +0.000 HD
ENDBRANCH   1  28
TORSDOF 14
ENDMDL
MODEL 2
REMARK VINA RESULT:      -6.5      4.011      7.698
REMARK  Name = 
REMARK  14 active torsions:
REMARK  status: ('A' for Active; 'I' for Inactive)
REMARK    1  A    between atoms: N_1  and  CA_2
REMARK    2  A    between atoms: CA_2  and  C_3
REMARK    3  A    between atoms: CA_2  and  C_21
REMARK    4  A    between atoms: C_3  and  C_4
REMARK    5  A    between atoms: C_4  and  P_5
REMARK    6  A    between atoms: P_5  and  O_7
REMARK    7  A    between atoms: P_5  and  C_8
REMARK    8  A    between atoms: C_8  and  O_9
REMARK    9  A    between atoms: C_8  and  C_10
REMARK   10  A    between atoms: C_13  and  S_14
REMARK   11  A    between atoms: S_14  and  C_15
REMARK   12  A    between atoms: C_15  and  C_16
REMARK   13  A    between atoms: C_16  and  O_18
REMARK   14  A    between atoms: C_21  and  OXT_23
REMARK                            x       y       z     vdW  Elec       q    Type
REMARK                         _______ _______ _______ _____ _____    ______ ____
ROOT
ATOM      1  C   UNL     1       2.307   5.970  18.655  0.00  0.00    +0.000 C 
ENDROOT
BRANCH   1   2
ATOM      2  C   UNL     1       3.474   5.673  17.722  0.00  0.00    +0.000 A 
ATOM      3  C   UNL     1       4.321   6.708  17.301  0.00  0.00    +0.000 A 
ATOM      4  C   UNL     1       5.369   6.457  16.407  0.00  0.00    +0.000 A 
ATOM      5  C   UNL     1       5.589   5.166  15.917  0.00  0.00    +0.000 A 
ATOM      6  C   UNL     1       4.747   4.131  16.324  0.00  0.00    +0.000 A 
ATOM      7  C   UNL     1       3.697   4.383  17.215  0.00  0.00    +0.000 A 
BRANCH   5   8
ATOM      8  S   UNL     1       6.860   4.865  14.706  0.00  0.00    +0.000 S 
BRANCH   8   9
ATOM      9  C   UNL     1       5.910   3.880  13.490  0.00  0.00    +0.000 C 
BRANCH   9  10
ATOM     10  C   UNL     1       6.710   3.596  12.230  0.00  0.00    +0.000 C 
ATOM     11  O   UNL     1       6.751   2.491  11.708  0.00  0.00    +0.000 OA
BRANCH  10  12
ATOM     12  O   UNL     1       7.392   4.647  11.717  0.00  0.00    +0.000 OA
ATOM     13  H   UNL     1       6.810   5.429  11.610  0.00  0.00    +0.000 HD
ENDBRANCH  10  12
ENDBRANCH   9  10
ENDBRANCH   8   9
ENDBRANCH   5   8
ENDBRANCH   1   2
BRANCH   1  14
ATOM     14  P   UNL     1       2.273   4.897  20.137  0.00  0.00    +0.000 P 
ATOM     15  O   UNL     1       0.810   4.510  19.854  0.00  0.00    +0.000 OA
BRANCH  14  16
ATOM     16  O   UNL     1       2.114   6.228  21.138  0.00  0.00    +0.000 OA
ATOM     17  H   UNL     1       1.352   6.773  20.840  0.00  0.00    +0.000 HD
ENDBRANCH  14  16
BRANCH  14  18
ATOM     18  C   UNL     1       2.238   3.825  21.619  0.00  0.00    +0.000 C 
BRANCH  18  19
ATOM     19  C   UNL     1       2.864   2.461  21.319  0.00  0.00    +0.000 C 
BRANCH  19  20
ATOM     20  CA  UNL     1       3.731   2.449  20.050  0.00  0.00    +0.000 C 
BRANCH  20  21
ATOM     21  N   UNL     1       5.072   1.909  20.342  0.00  0.00    +0.000 NA
ATOM     22  H1  UNL     1       5.203   0.961  20.002  0.00  0.00    +0.000 HD
ATOM     23  H2  UNL     1       5.210   1.865  21.355  0.00  0.00    +0.000 HD
ENDBRANCH  20  21
BRANCH  20  24
ATOM     24  C   UNL     1       3.055   1.620  18.942  0.00  0.00    +0.000 C 
ATOM     25  O   UNL     1       1.875   1.687  18.632  0.00  0.00    +0.000 OA
BRANCH  24  26
ATOM     26  OXT UNL     1       3.915   0.768  18.328  0.00  0.00    +0.000 OA
ATOM     27  HXT UNL     1       4.026   0.959  17.378  0.00  0.00    +0.000 HD
ENDBRANCH  24  26
ENDBRANCH  20  24
ENDBRANCH  19  20
ENDBRANCH  18  19
ENDBRANCH  14  18
ENDBRANCH   1  14
BRANCH   1  28
ATOM     28  O   UNL     1       2.360   7.361  19.027  0.00  0.00    +0.000 OA
ATOM     29  H   UNL     1       2.997   7.382  19.766  0.00  0.00    +0.000 HD
ENDBRANCH   1  28
TORSDOF 14
ENDMDL
MODEL 3
REMARK VINA RESULT:      -6.4      2.599      4.378
REMARK  Name = 
REMARK  14 active torsions:
REMARK  status: ('A' for Active; 'I' for Inactive)
REMARK    1  A    between atoms: N_1  and  CA_2
REMARK    2  A    between atoms: CA_2  and  C_3
REMARK    3  A    between atoms: CA_2  and  C_21
REMARK    4  A    between atoms: C_3  and  C_4
REMARK    5  A    between atoms: C_4  and  P_5
REMARK    6  A    between atoms: P_5  and  O_7
REMARK    7  A    between atoms: P_5  and  C_8
REMARK    8  A    between atoms: C_8  and  O_9
REMARK    9  A    between atoms: C_8  and  C_10
REMARK   10  A    between atoms: C_13  and  S_14
REMARK   11  A    between atoms: S_14  and  C_15
REMARK   12  A    between atoms: C_15  and  C_16
REMARK   13  A    between atoms: C_16  and  O_18
REMARK   14  A    between atoms: C_21  and  OXT_23
REMARK                            x       y       z     vdW  Elec       q    Type
REMARK                         _______ _______ _______ _____ _____    ______ ____
ROOT
ATOM      1  C   UNL     1       4.622   6.195  17.434  0.00  0.00    +0.000 C 
ENDROOT
BRANCH   1   2
ATOM      2  C   UNL     1       3.524   7.044  18.063  0.00  0.00    +0.000 A 
ATOM      3  C   UNL     1       3.098   8.223  17.434  0.00  0.00    +0.000 A 
ATOM      4  C   UNL     1       2.123   9.037  18.023  0.00  0.00    +0.000 A 
ATOM      5  C   UNL     1       1.556   8.687  19.252  0.00  0.00    +0.000 A 
ATOM      6  C   UNL     1       1.979   7.520  19.889  0.00  0.00    +0.000 A 
ATOM      7  C   UNL     1       2.956   6.709  19.301  0.00  0.00    +0.000 A 
BRANCH   5   8
ATOM      8  S   UNL     1       0.388   9.770  20.049  0.00  0.00    +0.000 S 
BRANCH   8   9
ATOM      9  C   UNL     1       0.028   8.795  21.556  0.00  0.00    +0.000 C 
BRANCH   9  10
ATOM     10  C   UNL     1       0.671   9.395  22.795  0.00  0.00    +0.000 C 
ATOM     11  O   UNL     1       0.024   9.936  23.680  0.00  0.00    +0.000 OA
BRANCH  10  12
ATOM     12  O   UNL     1       2.020   9.303  22.860  0.00  0.00    +0.000 OA
ATOM     13  H   UNL     1       2.354   8.579  22.289  0.00  0.00    +0.000 HD
ENDBRANCH  10  12
ENDBRANCH   9  10
ENDBRANCH   8   9
ENDBRANCH   5   8
ENDBRANCH   1   2
BRANCH   1  14
ATOM     14  P   UNL     1       4.308   4.397  17.559  0.00  0.00    +0.000 P 
ATOM     15  O   UNL     1       5.322   4.273  18.710  0.00  0.00    +0.000 OA
BRANCH  14  16
ATOM     16  O   UNL     1       5.249   4.104  16.207  0.00  0.00    +0.000 OA
ATOM     17  H   UNL     1       5.308   4.924  15.666  0.00  0.00    +0.000 HD
ENDBRANCH  14  16
BRANCH  14  18
ATOM     18  C   UNL     1       3.995   2.598  17.684  0.00  0.00    +0.000 C 
BRANCH  18  19
ATOM     19  C   UNL     1       3.628   2.208  19.117  0.00  0.00    +0.000 C 
BRANCH  19  20
ATOM     20  CA  UNL     1       2.188   2.576  19.505  0.00  0.00    +0.000 C 
BRANCH  20  21
ATOM     21  N   UNL     1       1.232   1.610  18.932  0.00  0.00    +0.000 NA
ATOM     22  H1  UNL     1       0.337   1.601  19.411  0.00  0.00    +0.000 HD
ATOM     23  H2  UNL     1       1.608   0.662  19.021  0.00  0.00    +0.000 HD
ENDBRANCH  20  21
BRANCH  20  24
ATOM     24  C   UNL     1       2.037   2.625  21.038  0.00  0.00    +0.000 C 
ATOM     25  O   UNL     1       2.952   2.508  21.839  0.00  0.00    +0.000 OA
BRANCH  24  26
ATOM     26  OXT UNL     1       0.751   2.803  21.430  0.00  0.00    +0.000 OA
ATOM     27  HXT UNL     1       0.666   3.405  22.192  0.00  0.00    +0.000 HD
ENDBRANCH  24  26
ENDBRANCH  20  24
ENDBRANCH  19  20
ENDBRANCH  18  19
ENDBRANCH  14  18
ENDBRANCH   1  14
BRANCH   1  28
ATOM     28  O   UNL     1       4.782   6.596  16.059  0.00  0.00    +0.000 OA
ATOM     29  H   UNL     1       5.734   6.797  15.984  0.00  0.00    +0.000 HD
ENDBRANCH   1  28
TORSDOF 14
ENDMDL
MODEL 4
REMARK VINA RESULT:      -6.3      4.277      8.713
REMARK  Name = 
REMARK  14 active torsions:
REMARK  status: ('A' for Active; 'I' for Inactive)
REMARK    1  A    between atoms: N_1  and  CA_2
REMARK    2  A    between atoms: CA_2  and  C_3
REMARK    3  A    between atoms: CA_2  and  C_21
REMARK    4  A    between atoms: C_3  and  C_4
REMARK    5  A    between atoms: C_4  and  P_5
REMARK    6  A    between atoms: P_5  and  O_7
REMARK    7  A    between atoms: P_5  and  C_8
REMARK    8  A    between atoms: C_8  and  O_9
REMARK    9  A    between atoms: C_8  and  C_10
REMARK   10  A    between atoms: C_13  and  S_14
REMARK   11  A    between atoms: S_14  and  C_15
REMARK   12  A    between atoms: C_15  and  C_16
REMARK   13  A    between atoms: C_16  and  O_18
REMARK   14  A    between atoms: C_21  and  OXT_23
REMARK                            x       y       z     vdW  Elec       q    Type
REMARK                         _______ _______ _______ _____ _____    ______ ____
ROOT
ATOM      1  C   UNL     1       5.642   4.984  18.167  0.00  0.00    +0.000 C 
ENDROOT
BRANCH   1   2
ATOM      2  C   UNL     1       5.947   4.833  16.683  0.00  0.00    +0.000 A 
ATOM      3  C   UNL     1       5.075   4.111  15.855  0.00  0.00    +0.000 A 
ATOM      4  C   UNL     1       5.366   3.924  14.497  0.00  0.00    +0.000 A 
ATOM      5  C   UNL     1       6.533   4.457  13.944  0.00  0.00    +0.000 A 
ATOM      6  C   UNL     1       7.411   5.170  14.761  0.00  0.00    +0.000 A 
ATOM      7  C   UNL     1       7.121   5.353  16.118  0.00  0.00    +0.000 A 
BRANCH   5   8
ATOM      8  S   UNL     1       6.952   4.137  12.242  0.00  0.00    +0.000 S 
BRANCH   8   9
ATOM      9  C   UNL     1       5.852   2.713  11.907  0.00  0.00    +0.000 C 
BRANCH   9  10
ATOM     10  C   UNL     1       6.600   1.539  11.299  0.00  0.00    +0.000 C 
ATOM     11  O   UNL     1       7.670   1.665  10.720  0.00  0.00    +0.000 OA
BRANCH  10  12
ATOM     12  O   UNL     1       6.003   0.332  11.426  0.00  0.00    +0.000 OA
ATOM     13  H   UNL     1       5.069   0.426  11.713  0.00  0.00    +0.000 HD
ENDBRANCH  10  12
ENDBRANCH   9  10
ENDBRANCH   8   9
ENDBRANCH   5   8
ENDBRANCH   1   2
BRANCH   1  14
ATOM     14  P   UNL     1       3.861   5.207  18.523  0.00  0.00    +0.000 P 
ATOM     15  O   UNL     1       3.922   6.668  18.041  0.00  0.00    +0.000 OA
BRANCH  14  16
ATOM     16  O   UNL     1       4.171   5.347  20.161  0.00  0.00    +0.000 OA
ATOM     17  H   UNL     1       3.387   5.735  20.611  0.00  0.00    +0.000 HD
ENDBRANCH  14  16
BRANCH  14  18
ATOM     18  C   UNL     1       2.080   5.431  18.879  0.00  0.00    +0.000 C 
BRANCH  18  19
ATOM     19  C   UNL     1       1.770   5.092  20.338  0.00  0.00    +0.000 C 
BRANCH  19  20
ATOM     20  CA  UNL     1       1.039   3.752  20.516  0.00  0.00    +0.000 C 
BRANCH  20  21
ATOM     21  N   UNL     1       0.847   3.088  19.213  0.00  0.00    +0.000 NA
ATOM     22  H1  UNL     1       0.737   3.742  18.444  0.00  0.00    +0.000 HD
ATOM     23  H2  UNL     1      -0.014   2.534  19.235  0.00  0.00    +0.000 HD
ENDBRANCH  20  21
BRANCH  20  24
ATOM     24  C   UNL     1       1.824   2.831  21.469  0.00  0.00    +0.000 C 
ATOM     25  O   UNL     1       1.366   2.295  22.467  0.00  0.00    +0.000 OA
BRANCH  24  26
ATOM     26  OXT UNL     1       3.119   2.674  21.095  0.00  0.00    +0.000 OA
ATOM     27  HXT UNL     1       3.705   2.446  21.840  0.00  0.00    +0.000 HD
ENDBRANCH  24  26
ENDBRANCH  20  24
ENDBRANCH  19  20
ENDBRANCH  18  19
ENDBRANCH  14  18
ENDBRANCH   1  14
BRANCH   1  28
ATOM     28  O   UNL     1       6.166   3.836  18.863  0.00  0.00    +0.000 OA
ATOM     29  H   UNL     1       5.379   3.431  19.273  0.00  0.00    +0.000 HD
ENDBRANCH   1  28
TORSDOF 14
ENDMDL
MODEL 5
REMARK VINA RESULT:      -6.3      2.555      3.101
REMARK  Name = 
REMARK  14 active torsions:
REMARK  status: ('A' for Active; 'I' for Inactive)
REMARK    1  A    between atoms: N_1  and  CA_2
REMARK    2  A    between atoms: CA_2  and  C_3
REMARK    3  A    between atoms: CA_2  and  C_21
REMARK    4  A    between atoms: C_3  and  C_4
REMARK    5  A    between atoms: C_4  and  P_5
REMARK    6  A    between atoms: P_5  and  O_7
REMARK    7  A    between atoms: P_5  and  C_8
REMARK    8  A    between atoms: C_8  and  O_9
REMARK    9  A    between atoms: C_8  and  C_10
REMARK   10  A    between atoms: C_13  and  S_14
REMARK   11  A    between atoms: S_14  and  C_15
REMARK   12  A    between atoms: C_15  and  C_16
REMARK   13  A    between atoms: C_16  and  O_18
REMARK   14  A    between atoms: C_21  and  OXT_23
REMARK                            x       y       z     vdW  Elec       q    Type
REMARK                         _______ _______ _______ _____ _____    ______ ____
ROOT
ATOM      1  C   UNL     1       2.411   6.049  19.344  0.00  0.00    +0.000 C 
ENDROOT
BRANCH   1   2
ATOM      2  C   UNL     1       1.932   7.491  19.246  0.00  0.00    +0.000 A 
ATOM      3  C   UNL     1       2.108   8.211  18.055  0.00  0.00    +0.000 A 
ATOM      4  C   UNL     1       1.715   9.553  17.965  0.00  0.00    +0.000 A 
ATOM      5  C   UNL     1       1.140  10.198  19.064  0.00  0.00    +0.000 A 
ATOM      6  C   UNL     1       0.969   9.492  20.255  0.00  0.00    +0.000 A 
ATOM      7  C   UNL     1       1.365   8.153  20.345  0.00  0.00    +0.000 A 
BRANCH   5   8
ATOM      8  S   UNL     1       0.731  11.930  18.981  0.00  0.00    +0.000 S 
BRANCH   8   9
ATOM      9  C   UNL     1      -0.993  11.818  18.373  0.00  0.00    +0.000 C 
BRANCH   9  10
ATOM     10  C   UNL     1      -2.006  12.154  19.455  0.00  0.00    +0.000 C 
ATOM     11  O   UNL     1      -1.724  12.168  20.644  0.00  0.00    +0.000 OA
BRANCH  10  12
ATOM     12  O   UNL     1      -3.258  12.433  19.021  0.00  0.00    +0.000 OA
ATOM     13  H   UNL     1      -3.602  13.252  19.436  0.00  0.00    +0.000 HD
ENDBRANCH  10  12
ENDBRANCH   9  10
ENDBRANCH   8   9
ENDBRANCH   5   8
ENDBRANCH   1   2
BRANCH   1  14
ATOM     14  P   UNL     1       3.727   5.638  18.141  0.00  0.00    +0.000 P 
ATOM     15  O   UNL     1       2.832   4.570  17.488  0.00  0.00    +0.000 OA
BRANCH  14  16
ATOM     16  O   UNL     1       4.559   4.763  19.298  0.00  0.00    +0.000 OA
ATOM     17  H   UNL     1       4.976   5.381  19.940  0.00  0.00    +0.000 HD
ENDBRANCH  14  16
BRANCH  14  18
ATOM     18  C   UNL     1       5.043   5.227  16.938  0.00  0.00    +0.000 C 
BRANCH  18  19
ATOM     19  C   UNL     1       6.209   4.517  17.628  0.00  0.00    +0.000 C 
BRANCH  19  20
ATOM     20  CA  UNL     1       7.512   5.332  17.629  0.00  0.00    +0.000 C 
BRANCH  20  21
ATOM     21  N   UNL     1       7.449   6.412  16.627  0.00  0.00    +0.000 NA
ATOM     22  H1  UNL     1       7.282   6.073  15.684  0.00  0.00    +0.000 HD
ATOM     23  H2  UNL     1       8.347   6.901  16.594  0.00  0.00    +0.000 HD
ENDBRANCH  20  21
BRANCH  20  24
ATOM     24  C   UNL     1       7.780   5.921  19.027  0.00  0.00    +0.000 C 
ATOM     25  O   UNL     1       7.412   5.426  20.082  0.00  0.00    +0.000 OA
BRANCH  24  26
ATOM     26  OXT UNL     1       8.474   7.086  18.978  0.00  0.00    +0.000 OA
ATOM     27  HXT UNL     1       9.437   6.958  19.065  0.00  0.00    +0.000 HD
ENDBRANCH  24  26
ENDBRANCH  20  24
ENDBRANCH  19  20
ENDBRANCH  18  19
ENDBRANCH  14  18
ENDBRANCH   1  14
BRANCH   1  28
ATOM     28  O   UNL     1       2.852   5.802  20.694  0.00  0.00    +0.000 OA
ATOM     29  H   UNL     1       3.573   5.153  20.590  0.00  0.00    +0.000 HD
ENDBRANCH   1  28
TORSDOF 14
ENDMDL
MODEL 6
REMARK VINA RESULT:      -6.3      2.461      4.151
REMARK  Name = 
REMARK  14 active torsions:
REMARK  status: ('A' for Active; 'I' for Inactive)
REMARK    1  A    between atoms: N_1  and  CA_2
REMARK    2  A    between atoms: CA_2  and  C_3
REMARK    3  A    between atoms: CA_2  and  C_21
REMARK    4  A    between atoms: C_3  and  C_4
REMARK    5  A    between atoms: C_4  and  P_5
REMARK    6  A    between atoms: P_5  and  O_7
REMARK    7  A    between atoms: P_5  and  C_8
REMARK    8  A    between atoms: C_8  and  O_9
REMARK    9  A    between atoms: C_8  and  C_10
REMARK   10  A    between atoms: C_13  and  S_14
REMARK   11  A    between atoms: S_14  and  C_15
REMARK   12  A    between atoms: C_15  and  C_16
REMARK   13  A    between atoms: C_16  and  O_18
REMARK   14  A    between atoms: C_21  and  OXT_23
REMARK                            x       y       z     vdW  Elec       q    Type
REMARK                         _______ _______ _______ _____ _____    ______ ____
ROOT
ATOM      1  C   UNL     1       4.584   5.923  17.919  0.00  0.00    +0.000 C 
ENDROOT
BRANCH   1   2
ATOM      2  C   UNL     1       3.532   6.913  18.402  0.00  0.00    +0.000 A 
ATOM      3  C   UNL     1       2.874   6.702  19.623  0.00  0.00    +0.000 A 
ATOM      4  C   UNL     1       1.872   7.578  20.057  0.00  0.00    +0.000 A 
ATOM      5  C   UNL     1       1.509   8.681  19.279  0.00  0.00    +0.000 A 
ATOM      6  C   UNL     1       2.151   8.894  18.059  0.00  0.00    +0.000 A 
ATOM      7  C   UNL     1       3.151   8.016  17.624  0.00  0.00    +0.000 A 
BRANCH   5   8
ATOM      8  S   UNL     1       0.168   9.740  19.783  0.00  0.00    +0.000 S 
BRANCH   8   9
ATOM      9  C   UNL     1      -0.184   9.039  21.437  0.00  0.00    +0.000 C 
BRANCH   9  10
ATOM     10  C   UNL     1       0.108  10.027  22.554  0.00  0.00    +0.000 C 
ATOM     11  O   UNL     1       0.338   9.678  23.703  0.00  0.00    +0.000 OA
BRANCH  10  12
ATOM     12  O   UNL     1       0.089  11.334  22.202  0.00  0.00    +0.000 OA
ATOM     13  H   UNL     1       0.932  11.598  21.775  0.00  0.00    +0.000 HD
ENDBRANCH  10  12
ENDBRANCH   9  10
ENDBRANCH   8   9
ENDBRANCH   5   8
ENDBRANCH   1   2
BRANCH   1  14
ATOM     14  P   UNL     1       4.520   4.315  18.790  0.00  0.00    +0.000 P 
ATOM     15  O   UNL     1       6.052   4.190  18.727  0.00  0.00    +0.000 OA
BRANCH  14  16
ATOM     16  O   UNL     1       4.030   3.539  17.391  0.00  0.00    +0.000 OA
ATOM     17  H   UNL     1       3.767   4.208  16.720  0.00  0.00    +0.000 HD
ENDBRANCH  14  16
BRANCH  14  18
ATOM     18  C   UNL     1       4.455   2.706  19.660  0.00  0.00    +0.000 C 
BRANCH  18  19
ATOM     19  C   UNL     1       3.260   1.878  19.185  0.00  0.00    +0.000 C 
BRANCH  19  20
ATOM     20  CA  UNL     1       1.982   2.116  20.006  0.00  0.00    +0.000 C 
BRANCH  20  21
ATOM     21  N   UNL     1       2.318   2.575  21.367  0.00  0.00    +0.000 NA
ATOM     22  H1  UNL     1       1.607   3.177  21.772  0.00  0.00    +0.000 HD
ATOM     23  H2  UNL     1       3.175   3.133  21.339  0.00  0.00    +0.000 HD
ENDBRANCH  20  21
BRANCH  20  24
ATOM     24  C   UNL     1       1.076   3.147  19.307  0.00  0.00    +0.000 C 
ATOM     25  O   UNL     1       0.979   3.296  18.099  0.00  0.00    +0.000 OA
BRANCH  24  26
ATOM     26  OXT UNL     1       0.379   3.910  20.187  0.00  0.00    +0.000 OA
ATOM     27  HXT UNL     1       0.724   3.852  21.097  0.00  0.00    +0.000 HD
ENDBRANCH  24  26
ENDBRANCH  20  24
ENDBRANCH  19  20
ENDBRANCH  18  19
ENDBRANCH  14  18
ENDBRANCH   1  14
BRANCH   1  28
ATOM     28  O   UNL     1       4.430   5.746  16.497  0.00  0.00    +0.000 OA
ATOM     29  H   UNL     1       3.583   5.267  16.412  0.00  0.00    +0.000 HD
ENDBRANCH   1  28
TORSDOF 14
ENDMDL
MODEL 7
REMARK VINA RESULT:      -6.3      2.683      2.918
REMARK  Name = 
REMARK  14 active torsions:
REMARK  status: ('A' for Active; 'I' for Inactive)
REMARK    1  A    between atoms: N_1  and  CA_2
REMARK    2  A    between atoms: CA_2  and  C_3
REMARK    3  A    between atoms: CA_2  and  C_21
REMARK    4  A    between atoms: C_3  and  C_4
REMARK    5  A    between atoms: C_4  and  P_5
REMARK    6  A    between atoms: P_5  and  O_7
REMARK    7  A    between atoms: P_5  and  C_8
REMARK    8  A    between atoms: C_8  and  O_9
REMARK    9  A    between atoms: C_8  and  C_10
REMARK   10  A    between atoms: C_13  and  S_14
REMARK   11  A    between atoms: S_14  and  C_15
REMARK   12  A    between atoms: C_15  and  C_16
REMARK   13  A    between atoms: C_16  and  O_18
REMARK   14  A    between atoms: C_21  and  OXT_23
REMARK                            x       y       z     vdW  Elec       q    Type
REMARK                         _______ _______ _______ _____ _____    ______ ____
ROOT
ATOM      1  C   UNL     1       2.456   4.915  19.388  0.00  0.00    +0.000 C 
ENDROOT
BRANCH   1   2
ATOM      2  C   UNL     1       2.163   6.410  19.362  0.00  0.00    +0.000 A 
ATOM      3  C   UNL     1       1.668   7.051  20.507  0.00  0.00    +0.000 A 
ATOM      4  C   UNL     1       1.350   8.415  20.483  0.00  0.00    +0.000 A 
ATOM      5  C   UNL     1       1.522   9.162  19.314  0.00  0.00    +0.000 A 
ATOM      6  C   UNL     1       2.007   8.531  18.168  0.00  0.00    +0.000 A 
ATOM      7  C   UNL     1       2.321   7.167  18.191  0.00  0.00    +0.000 A 
BRANCH   5   8
ATOM      8  S   UNL     1       1.027  10.872  19.255  0.00  0.00    +0.000 S 
BRANCH   8   9
ATOM      9  C   UNL     1      -0.657  10.690  18.562  0.00  0.00    +0.000 C 
BRANCH   9  10
ATOM     10  C   UNL     1      -1.360  12.028  18.403  0.00  0.00    +0.000 C 
ATOM     11  O   UNL     1      -1.930  12.589  19.327  0.00  0.00    +0.000 OA
BRANCH  10  12
ATOM     12  O   UNL     1      -1.328  12.565  17.160  0.00  0.00    +0.000 OA
ATOM     13  H   UNL     1      -1.808  12.000  16.518  0.00  0.00    +0.000 HD
ENDBRANCH  10  12
ENDBRANCH   9  10
ENDBRANCH   8   9
ENDBRANCH   5   8
ENDBRANCH   1   2
BRANCH   1  14
ATOM     14  P   UNL     1       3.668   4.392  18.121  0.00  0.00    +0.000 P 
ATOM     15  O   UNL     1       3.302   2.914  18.344  0.00  0.00    +0.000 OA
BRANCH  14  16
ATOM     16  O   UNL     1       4.935   4.622  19.188  0.00  0.00    +0.000 OA
ATOM     17  H   UNL     1       5.253   5.551  19.124  0.00  0.00    +0.000 HD
ENDBRANCH  14  16
BRANCH  14  18
ATOM     18  C   UNL     1       4.879   3.868  16.853  0.00  0.00    +0.000 C 
BRANCH  18  19
ATOM     19  C   UNL     1       5.452   5.080  16.115  0.00  0.00    +0.000 C 
BRANCH  19  20
ATOM     20  CA  UNL     1       6.976   5.223  16.258  0.00  0.00    +0.000 C 
BRANCH  20  21
ATOM     21  N   UNL     1       7.604   5.432  14.940  0.00  0.00    +0.000 NA
ATOM     22  H1  UNL     1       6.984   5.221  14.165  0.00  0.00    +0.000 HD
ATOM     23  H2  UNL     1       8.405   4.802  14.839  0.00  0.00    +0.000 HD
ENDBRANCH  20  21
BRANCH  20  24
ATOM     24  C   UNL     1       7.322   6.390  17.202  0.00  0.00    +0.000 C 
ATOM     25  O   UNL     1       7.550   7.537  16.849  0.00  0.00    +0.000 OA
BRANCH  24  26
ATOM     26  OXT UNL     1       7.364   6.013  18.505  0.00  0.00    +0.000 OA
ATOM     27  HXT UNL     1       6.528   5.614  18.812  0.00  0.00    +0.000 HD
ENDBRANCH  24  26
ENDBRANCH  20  24
ENDBRANCH  19  20
ENDBRANCH  18  19
ENDBRANCH  14  18
ENDBRANCH   1  14
BRANCH   1  28
ATOM     28  O   UNL     1       2.907   4.559  20.710  0.00  0.00    +0.000 OA
ATOM     29  H   UNL     1       2.083   4.502  21.230  0.00  0.00    +0.000 HD
ENDBRANCH   1  28
TORSDOF 14
ENDMDL
MODEL 8
REMARK VINA RESULT:      -6.2      2.723      3.197
REMARK  Name = 
REMARK  14 active torsions:
REMARK  status: ('A' for Active; 'I' for Inactive)
REMARK    1  A    between atoms: N_1  and  CA_2
REMARK    2  A    between atoms: CA_2  and  C_3
REMARK    3  A    between atoms: CA_2  and  C_21
REMARK    4  A    between atoms: C_3  and  C_4
REMARK    5  A    between atoms: C_4  and  P_5
REMARK    6  A    between atoms: P_5  and  O_7
REMARK    7  A    between atoms: P_5  and  C_8
REMARK    8  A    between atoms: C_8  and  O_9
REMARK    9  A    between atoms: C_8  and  C_10
REMARK   10  A    between atoms: C_13  and  S_14
REMARK   11  A    between atoms: S_14  and  C_15
REMARK   12  A    between atoms: C_15  and  C_16
REMARK   13  A    between atoms: C_16  and  O_18
REMARK   14  A    between atoms: C_21  and  OXT_23
REMARK                            x       y       z     vdW  Elec       q    Type
REMARK                         _______ _______ _______ _____ _____    ______ ____
ROOT
ATOM      1  C   UNL     1       2.060   5.268  20.030  0.00  0.00    +0.000 C 
ENDROOT
BRANCH   1   2
ATOM      2  C   UNL     1       1.885   6.753  19.743  0.00  0.00    +0.000 A 
ATOM      3  C   UNL     1       1.319   7.596  20.711  0.00  0.00    +0.000 A 
ATOM      4  C   UNL     1       1.109   8.955  20.443  0.00  0.00    +0.000 A 
ATOM      5  C   UNL     1       1.461   9.495  19.203  0.00  0.00    +0.000 A 
ATOM      6  C   UNL     1       2.017   8.663  18.231  0.00  0.00    +0.000 A 
ATOM      7  C   UNL     1       2.223   7.304  18.498  0.00  0.00    +0.000 A 
BRANCH   5   8
ATOM      8  S   UNL     1       1.105  11.200  18.827  0.00  0.00    +0.000 S 
BRANCH   8   9
ATOM      9  C   UNL     1      -0.667  11.261  19.285  0.00  0.00    +0.000 C 
BRANCH   9  10
ATOM     10  C   UNL     1      -1.544  11.712  18.129  0.00  0.00    +0.000 C 
ATOM     11  O   UNL     1      -2.576  11.135  17.818  0.00  0.00    +0.000 OA
BRANCH  10  12
ATOM     12  O   UNL     1      -1.107  12.797  17.448  0.00  0.00    +0.000 OA
ATOM     13  H   UNL     1      -0.157  12.969  17.626  0.00  0.00    +0.000 HD
ENDBRANCH  10  12
ENDBRANCH   9  10
ENDBRANCH   8   9
ENDBRANCH   5   8
ENDBRANCH   1   2
BRANCH   1  14
ATOM     14  P   UNL     1       2.962   4.377  18.711  0.00  0.00    +0.000 P 
ATOM     15  O   UNL     1       1.726   3.509  18.416  0.00  0.00    +0.000 OA
BRANCH  14  16
ATOM     16  O   UNL     1       3.789   3.466  19.845  0.00  0.00    +0.000 OA
ATOM     17  H   UNL     1       3.188   2.782  20.218  0.00  0.00    +0.000 HD
ENDBRANCH  14  16
BRANCH  14  18
ATOM     18  C   UNL     1       3.865   3.485  17.392  0.00  0.00    +0.000 C 
BRANCH  18  19
ATOM     19  C   UNL     1       4.751   4.444  16.595  0.00  0.00    +0.000 C 
BRANCH  19  20
ATOM     20  CA  UNL     1       5.900   5.048  17.419  0.00  0.00    +0.000 C 
BRANCH  20  21
ATOM     21  N   UNL     1       6.508   4.025  18.290  0.00  0.00    +0.000 NA
ATOM     22  H1  UNL     1       6.958   4.416  19.111  0.00  0.00    +0.000 HD
ATOM     23  H2  UNL     1       7.242   3.530  17.776  0.00  0.00    +0.000 HD
ENDBRANCH  20  21
BRANCH  20  24
ATOM     24  C   UNL     1       6.967   5.657  16.490  0.00  0.00    +0.000 C 
ATOM     25  O   UNL     1       7.700   5.022  15.747  0.00  0.00    +0.000 OA
BRANCH  24  26
ATOM     26  OXT UNL     1       7.032   7.009  16.585  0.00  0.00    +0.000 OA
ATOM     27  HXT UNL     1       7.069   7.450  15.716  0.00  0.00    +0.000 HD
ENDBRANCH  24  26
ENDBRANCH  20  24
ENDBRANCH  19  20
ENDBRANCH  18  19
ENDBRANCH  14  18
ENDBRANCH   1  14
BRANCH   1  28
ATOM     28  O   UNL     1       2.726   5.121  21.300  0.00  0.00    +0.000 OA
ATOM     29  H   UNL     1       2.641   6.002  21.712  0.00  0.00    +0.000 HD
ENDBRANCH   1  28
TORSDOF 14
ENDMDL
MODEL 9
REMARK VINA RESULT:      -6.2      2.935      4.672
REMARK  Name = 
REMARK  14 active torsions:
REMARK  status: ('A' for Active; 'I' for Inactive)
REMARK    1  A    between atoms: N_1  and  CA_2
REMARK    2  A    between atoms: CA_2  and  C_3
REMARK    3  A    between atoms: CA_2  and  C_21
REMARK    4  A    between atoms: C_3  and  C_4
REMARK    5  A    between atoms: C_4  and  P_5
REMARK    6  A    between atoms: P_5  and  O_7
REMARK    7  A    between atoms: P_5  and  C_8
REMARK    8  A    between atoms: C_8  and  O_9
REMARK    9  A    between atoms: C_8  and  C_10
REMARK   10  A    between atoms: C_13  and  S_14
REMARK   11  A    between atoms: S_14  and  C_15
REMARK   12  A    between atoms: C_15  and  C_16
REMARK   13  A    between atoms: C_16  and  O_18
REMARK   14  A    between atoms: C_21  and  OXT_23
REMARK                            x       y       z     vdW  Elec       q    Type
REMARK                         _______ _______ _______ _____ _____    ______ ____
ROOT
ATOM      1  C   UNL     1       4.613   5.430  17.807  0.00  0.00    +0.000 C 
ENDROOT
BRANCH   1   2
ATOM      2  C   UNL     1       3.651   6.498  18.308  0.00  0.00    +0.000 A 
ATOM      3  C   UNL     1       2.998   6.335  19.539  0.00  0.00    +0.000 A 
ATOM      4  C   UNL     1       2.075   7.287  19.991  0.00  0.00    +0.000 A 
ATOM      5  C   UNL     1       1.788   8.418  19.221  0.00  0.00    +0.000 A 
ATOM      6  C   UNL     1       2.427   8.584  17.991  0.00  0.00    +0.000 A 
ATOM      7  C   UNL     1       3.346   7.631  17.539  0.00  0.00    +0.000 A 
BRANCH   5   8
ATOM      8  S   UNL     1       0.544   9.578  19.749  0.00  0.00    +0.000 S 
BRANCH   8   9
ATOM      9  C   UNL     1       1.156  11.095  18.927  0.00  0.00    +0.000 C 
BRANCH   9  10
ATOM     10  C   UNL     1       1.473  12.199  19.921  0.00  0.00    +0.000 C 
ATOM     11  O   UNL     1       1.884  13.299  19.579  0.00  0.00    +0.000 OA
BRANCH  10  12
ATOM     12  O   UNL     1       1.281  11.889  21.224  0.00  0.00    +0.000 OA
ATOM     13  H   UNL     1       1.145  10.925  21.343  0.00  0.00    +0.000 HD
ENDBRANCH  10  12
ENDBRANCH   9  10
ENDBRANCH   8   9
ENDBRANCH   5   8
ENDBRANCH   1   2
BRANCH   1  14
ATOM     14  P   UNL     1       4.065   3.725  18.184  0.00  0.00    +0.000 P 
ATOM     15  O   UNL     1       5.124   3.602  19.294  0.00  0.00    +0.000 OA
BRANCH  14  16
ATOM     16  O   UNL     1       4.868   3.133  16.842  0.00  0.00    +0.000 OA
ATOM     17  H   UNL     1       5.149   3.883  16.271  0.00  0.00    +0.000 HD
ENDBRANCH  14  16
BRANCH  14  18
ATOM     18  C   UNL     1       3.516   2.020  18.562  0.00  0.00    +0.000 C 
BRANCH  18  19
ATOM     19  C   UNL     1       2.081   2.015  19.091  0.00  0.00    +0.000 C 
BRANCH  19  20
ATOM     20  CA  UNL     1       1.808   3.105  20.139  0.00  0.00    +0.000 C 
BRANCH  20  21
ATOM     21  N   UNL     1       0.397   3.530  20.092  0.00  0.00    +0.000 NA
ATOM     22  H1  UNL     1       0.011   3.735  21.008  0.00  0.00    +0.000 HD
ATOM     23  H2  UNL     1      -0.176   2.773  19.709  0.00  0.00    +0.000 HD
ENDBRANCH  20  21
BRANCH  20  24
ATOM     24  C   UNL     1       2.163   2.598  21.550  0.00  0.00    +0.000 C 
ATOM     25  O   UNL     1       3.282   2.285  21.926  0.00  0.00    +0.000 OA
BRANCH  24  26
ATOM     26  OXT UNL     1       1.079   2.515  22.362  0.00  0.00    +0.000 OA
ATOM     27  HXT UNL     1       0.373   3.143  22.120  0.00  0.00    +0.000 HD
ENDBRANCH  24  26
ENDBRANCH  20  24
ENDBRANCH  19  20
ENDBRANCH  18  19
ENDBRANCH  14  18
ENDBRANCH   1  14
BRANCH   1  28
ATOM     28  O   UNL     1       4.800   5.608  16.389  0.00  0.00    +0.000 OA
ATOM     29  H   UNL     1       5.351   4.846  16.127  0.00  0.00    +0.000 HD
ENDBRANCH   1  28
TORSDOF 14
ENDMDL
