MODEL 1
REMARK VINA RESULT:      -7.3      0.000      0.000
REMARK  Name = 
REMARK  10 active torsions:
REMARK  status: ('A' for Active; 'I' for Inactive)
REMARK    1  A    between atoms: C_1  and  C_2
REMARK    2  A    between atoms: C_5  and  C_6
REMARK    3  A    between atoms: C_6  and  N_7
REMARK    4  A    between atoms: C_10  and  C_11
REMARK    5  A    between atoms: C_11  and  C_12
REMARK    6  A    between atoms: C_11  and  C_14
REMARK    7  A    between atoms: C_14  and  O_16
REMARK    8  A    between atoms: O_16  and  C_17
REMARK    9  A    between atoms: C_17  and  C_18
REMARK   10  A    between atoms: C_17  and  C_19
REMARK                            x       y       z     vdW  Elec       q    Type
REMARK                         _______ _______ _______ _____ _____    ______ ____
ROOT
ATOM      1  N   UNL     1       0.241  10.793  19.157  0.00  0.00    +0.000 N 
ATOM      2  C   UNL     1       0.375  11.763  20.160  0.00  0.00    +0.000 C 
ATOM      3  O   UNL     1       1.415  12.142  20.670  0.00  0.00    +0.000 OA
ATOM      4  C   UNL     1      -1.013  12.306  20.495  0.00  0.00    +0.000 C 
ATOM      5  C   UNL     1      -1.852  11.683  19.406  0.00  0.00    +0.000 A 
ATOM      6  C   UNL     1      -3.183  11.942  19.100  0.00  0.00    +0.000 A 
ATOM      7  C   UNL     1      -3.769  11.196  18.087  0.00  0.00    +0.000 A 
ATOM      8  F   UNL     1      -5.060  11.398  17.792  0.00  0.00    +0.000 F 
ATOM      9  C   UNL     1      -3.036  10.235  17.383  0.00  0.00    +0.000 A 
ATOM     10  C   UNL     1      -1.671  10.019  17.663  0.00  0.00    +0.000 A 
ATOM     11  C   UNL     1      -1.086  10.759  18.680  0.00  0.00    +0.000 A 
ENDROOT
BRANCH   1  12
ATOM     12  C   UNL     1       1.419  10.258  18.510  0.00  0.00    +0.000 C 
BRANCH  12  17
ATOM     13  C   UNL     1       2.472   4.684  19.931  0.00  0.00    +0.000 C 
ATOM     14  C   UNL     1       2.290   6.139  19.604  0.00  0.00    +0.000 A 
ATOM     15  C   UNL     1       1.753   7.034  20.536  0.00  0.00    +0.000 A 
ATOM     16  C   UNL     1       1.529   8.376  20.198  0.00  0.00    +0.000 A 
ATOM     17  C   UNL     1       1.835   8.857  18.919  0.00  0.00    +0.000 A 
ATOM     18  C   UNL     1       2.410   7.963  17.998  0.00  0.00    +0.000 A 
ATOM     19  C   UNL     1       2.620   6.618  18.333  0.00  0.00    +0.000 A 
ENDBRANCH  12  17
ENDBRANCH   1  12
BRANCH   4  20
ATOM     20  C   UNL     1      -1.465  11.845  21.878  0.00  0.00    +0.000 C 
BRANCH  20  21
ATOM     21  C   UNL     1      -0.530  10.885  22.491  0.00  0.00    +0.000 C 
ATOM     22  N   UNL     1       0.172  10.114  22.998  0.00  0.00    +0.000 NA
ENDBRANCH  20  21
BRANCH  20  23
ATOM     23  C   UNL     1      -1.476  13.029  22.811  0.00  0.00    +0.000 C 
ATOM     24  O   UNL     1      -0.491  13.443  23.409  0.00  0.00    +0.000 OA
BRANCH  23  25
ATOM     25  O   UNL     1      -2.724  13.573  22.908  0.00  0.00    +0.000 OA
BRANCH  25  26
ATOM     26  C   UNL     1      -3.786  12.614  23.077  0.00  0.00    +0.000 C 
ATOM     27  C   UNL     1      -4.196  12.546  24.544  0.00  0.00    +0.000 C 
ATOM     28  C   UNL     1      -4.961  13.039  22.208  0.00  0.00    +0.000 C 
ENDBRANCH  25  26
ENDBRANCH  23  25
ENDBRANCH  20  23
ENDBRANCH   4  20
TORSDOF 7
ENDMDL
MODEL 2
REMARK VINA RESULT:      -7.3      6.252      8.800
REMARK  Name = 
REMARK  10 active torsions:
REMARK  status: ('A' for Active; 'I' for Inactive)
REMARK    1  A    between atoms: C_1  and  C_2
REMARK    2  A    between atoms: C_5  and  C_6
REMARK    3  A    between atoms: C_6  and  N_7
REMARK    4  A    between atoms: C_10  and  C_11
REMARK    5  A    between atoms: C_11  and  C_12
REMARK    6  A    between atoms: C_11  and  C_14
REMARK    7  A    between atoms: C_14  and  O_16
REMARK    8  A    between atoms: O_16  and  C_17
REMARK    9  A    between atoms: C_17  and  C_18
REMARK   10  A    between atoms: C_17  and  C_19
REMARK                            x       y       z     vdW  Elec       q    Type
REMARK                         _______ _______ _______ _____ _____    ______ ____
ROOT
ATOM      1  N   UNL     1       5.411   5.807  17.608  0.00  0.00    +0.000 N 
ATOM      2  C   UNL     1       5.704   4.935  18.664  0.00  0.00    +0.000 C 
ATOM      3  O   UNL     1       6.700   4.243  18.781  0.00  0.00    +0.000 OA
ATOM      4  C   UNL     1       4.570   5.015  19.685  0.00  0.00    +0.000 C 
ATOM      5  C   UNL     1       3.773   6.185  19.160  0.00  0.00    +0.000 A 
ATOM      6  C   UNL     1       2.704   6.831  19.768  0.00  0.00    +0.000 A 
ATOM      7  C   UNL     1       2.080   7.851  19.063  0.00  0.00    +0.000 A 
ATOM      8  F   UNL     1       1.025   8.470  19.608  0.00  0.00    +0.000 F 
ATOM      9  C   UNL     1       2.530   8.229  17.794  0.00  0.00    +0.000 A 
ATOM     10  C   UNL     1       3.651   7.605  17.209  0.00  0.00    +0.000 A 
ATOM     11  C   UNL     1       4.270   6.581  17.909  0.00  0.00    +0.000 A 
ENDROOT
BRANCH   1  12
ATOM     12  C   UNL     1       6.412   6.079  16.599  0.00  0.00    +0.000 C 
BRANCH  12  17
ATOM     13  C   UNL     1       6.084   3.004  11.636  0.00  0.00    +0.000 C 
ATOM     14  C   UNL     1       6.209   3.715  12.954  0.00  0.00    +0.000 A 
ATOM     15  C   UNL     1       5.217   3.613  13.934  0.00  0.00    +0.000 A 
ATOM     16  C   UNL     1       5.315   4.331  15.134  0.00  0.00    +0.000 A 
ATOM     17  C   UNL     1       6.408   5.171  15.384  0.00  0.00    +0.000 A 
ATOM     18  C   UNL     1       7.422   5.240  14.411  0.00  0.00    +0.000 A 
ATOM     19  C   UNL     1       7.315   4.533  13.206  0.00  0.00    +0.000 A 
ENDBRANCH  12  17
ENDBRANCH   1  12
BRANCH   4  20
ATOM     20  C   UNL     1       3.741   3.733  19.688  0.00  0.00    +0.000 C 
BRANCH  20  21
ATOM     21  C   UNL     1       4.465   2.588  20.267  0.00  0.00    +0.000 C 
ATOM     22  N   UNL     1       5.047   1.676  20.682  0.00  0.00    +0.000 NA
ENDBRANCH  20  21
BRANCH  20  23
ATOM     23  C   UNL     1       2.540   3.926  20.578  0.00  0.00    +0.000 C 
ATOM     24  O   UNL     1       2.598   4.051  21.794  0.00  0.00    +0.000 OA
BRANCH  23  25
ATOM     25  O   UNL     1       1.382   3.937  19.854  0.00  0.00    +0.000 OA
BRANCH  25  26
ATOM     26  C   UNL     1       1.463   3.264  18.583  0.00  0.00    +0.000 C 
ATOM     27  C   UNL     1       0.484   2.096  18.550  0.00  0.00    +0.000 C 
ATOM     28  C   UNL     1       1.140   4.268  17.485  0.00  0.00    +0.000 C 
ENDBRANCH  25  26
ENDBRANCH  23  25
ENDBRANCH  20  23
ENDBRANCH   4  20
TORSDOF 7
ENDMDL
MODEL 3
REMARK VINA RESULT:      -7.2      0.644      1.203
REMARK  Name = 
REMARK  10 active torsions:
REMARK  status: ('A' for Active; 'I' for Inactive)
REMARK    1  A    between atoms: C_1  and  C_2
REMARK    2  A    between atoms: C_5  and  C_6
REMARK    3  A    between atoms: C_6  and  N_7
REMARK    4  A    between atoms: C_10  and  C_11
REMARK    5  A    between atoms: C_11  and  C_12
REMARK    6  A    between atoms: C_11  and  C_14
REMARK    7  A    between atoms: C_14  and  O_16
REMARK    8  A    between atoms: O_16  and  C_17
REMARK    9  A    between atoms: C_17  and  C_18
REMARK   10  A    between atoms: C_17  and  C_19
REMARK                            x       y       z     vdW  Elec       q    Type
REMARK                         _______ _______ _______ _____ _____    ______ ____
ROOT
ATOM      1  N   UNL     1       0.328  10.726  19.388  0.00  0.00    +0.000 N 
ATOM      2  C   UNL     1       0.436  11.650  20.436  0.00  0.00    +0.000 C 
ATOM      3  O   UNL     1       1.451  11.952  21.038  0.00  0.00    +0.000 OA
ATOM      4  C   UNL     1      -0.944  12.257  20.686  0.00  0.00    +0.000 C 
ATOM      5  C   UNL     1      -1.728  11.721  19.513  0.00  0.00    +0.000 A 
ATOM      6  C   UNL     1      -3.016  12.064  19.119  0.00  0.00    +0.000 A 
ATOM      7  C   UNL     1      -3.560  11.389  18.036  0.00  0.00    +0.000 A 
ATOM      8  F   UNL     1      -4.813  11.672  17.653  0.00  0.00    +0.000 F 
ATOM      9  C   UNL     1      -2.827  10.414  17.352  0.00  0.00    +0.000 A 
ATOM     10  C   UNL     1      -1.501  10.113  17.724  0.00  0.00    +0.000 A 
ATOM     11  C   UNL     1      -0.958  10.782  18.811  0.00  0.00    +0.000 A 
ENDROOT
BRANCH   1  12
ATOM     12  C   UNL     1       1.523  10.149  18.810  0.00  0.00    +0.000 C 
BRANCH  12  17
ATOM     13  C   UNL     1       2.915   4.572  19.887  0.00  0.00    +0.000 C 
ATOM     14  C   UNL     1       2.470   5.973  19.576  0.00  0.00    +0.000 A 
ATOM     15  C   UNL     1       2.669   6.537  18.311  0.00  0.00    +0.000 A 
ATOM     16  C   UNL     1       2.308   7.866  18.051  0.00  0.00    +0.000 A 
ATOM     17  C   UNL     1       1.739   8.666  19.049  0.00  0.00    +0.000 A 
ATOM     18  C   UNL     1       1.505   8.084  20.308  0.00  0.00    +0.000 A 
ATOM     19  C   UNL     1       1.881   6.759  20.571  0.00  0.00    +0.000 A 
ENDBRANCH  12  17
ENDBRANCH   1  12
BRANCH   4  20
ATOM     20  C   UNL     1      -1.525  11.772  22.013  0.00  0.00    +0.000 C 
BRANCH  20  21
ATOM     21  C   UNL     1      -0.625  10.847  22.723  0.00  0.00    +0.000 C 
ATOM     22  N   UNL     1       0.047  10.102  23.303  0.00  0.00    +0.000 NA
ENDBRANCH  20  21
BRANCH  20  23
ATOM     23  C   UNL     1      -1.684  12.951  22.939  0.00  0.00    +0.000 C 
ATOM     24  O   UNL     1      -0.766  13.461  23.567  0.00  0.00    +0.000 OA
BRANCH  23  25
ATOM     25  O   UNL     1      -2.983  13.369  22.991  0.00  0.00    +0.000 OA
BRANCH  25  26
ATOM     26  C   UNL     1      -3.475  13.637  24.318  0.00  0.00    +0.000 C 
ATOM     27  C   UNL     1      -4.190  14.982  24.346  0.00  0.00    +0.000 C 
ATOM     28  C   UNL     1      -4.424  12.514  24.714  0.00  0.00    +0.000 C 
ENDBRANCH  25  26
ENDBRANCH  23  25
ENDBRANCH  20  23
ENDBRANCH   4  20
TORSDOF 7
ENDMDL
MODEL 4
REMARK VINA RESULT:      -7.1      8.721     11.332
REMARK  Name = 
REMARK  10 active torsions:
REMARK  status: ('A' for Active; 'I' for Inactive)
REMARK    1  A    between atoms: C_1  and  C_2
REMARK    2  A    between atoms: C_5  and  C_6
REMARK    3  A    between atoms: C_6  and  N_7
REMARK    4  A    between atoms: C_10  and  C_11
REMARK    5  A    between atoms: C_11  and  C_12
REMARK    6  A    between atoms: C_11  and  C_14
REMARK    7  A    between atoms: C_14  and  O_16
REMARK    8  A    between atoms: O_16  and  C_17
REMARK    9  A    between atoms: C_17  and  C_18
REMARK   10  A    between atoms: C_17  and  C_19
REMARK                            x       y       z     vdW  Elec       q    Type
REMARK                         _______ _______ _______ _____ _____    ______ ____
ROOT
ATOM      1  N   UNL     1       6.454   5.125  17.970  0.00  0.00    +0.000 N 
ATOM      2  C   UNL     1       6.878   4.467  16.809  0.00  0.00    +0.000 C 
ATOM      3  O   UNL     1       8.017   4.411  16.379  0.00  0.00    +0.000 OA
ATOM      4  C   UNL     1       5.668   3.786  16.171  0.00  0.00    +0.000 C 
ATOM      5  C   UNL     1       4.619   3.969  17.241  0.00  0.00    +0.000 A 
ATOM      6  C   UNL     1       3.346   3.415  17.292  0.00  0.00    +0.000 A 
ATOM      7  C   UNL     1       2.526   3.778  18.351  0.00  0.00    +0.000 A 
ATOM      8  F   UNL     1       1.281   3.288  18.410  0.00  0.00    +0.000 F 
ATOM      9  C   UNL     1       2.978   4.654  19.344  0.00  0.00    +0.000 A 
ATOM     10  C   UNL     1       4.290   5.167  19.314  0.00  0.00    +0.000 A 
ATOM     11  C   UNL     1       5.108   4.810  18.252  0.00  0.00    +0.000 A 
ENDROOT
BRANCH   1  12
ATOM     12  C   UNL     1       7.431   5.686  18.878  0.00  0.00    +0.000 C 
BRANCH  12  17
ATOM     13  C   UNL     1       8.801  11.304  18.010  0.00  0.00    +0.000 C 
ATOM     14  C   UNL     1       8.522   9.837  18.170  0.00  0.00    +0.000 A 
ATOM     15  C   UNL     1       7.661   9.160  17.300  0.00  0.00    +0.000 A 
ATOM     16  C   UNL     1       7.358   7.805  17.497  0.00  0.00    +0.000 A 
ATOM     17  C   UNL     1       7.907   7.093  18.570  0.00  0.00    +0.000 A 
ATOM     18  C   UNL     1       8.803   7.768  19.420  0.00  0.00    +0.000 A 
ATOM     19  C   UNL     1       9.093   9.126  19.230  0.00  0.00    +0.000 A 
ENDBRANCH  12  17
ENDBRANCH   1  12
BRANCH   4  20
ATOM     20  C   UNL     1       5.267   4.482  14.873  0.00  0.00    +0.000 C 
BRANCH  20  21
ATOM     21  C   UNL     1       5.186   5.946  15.014  0.00  0.00    +0.000 C 
ATOM     22  N   UNL     1       5.107   7.100  15.084  0.00  0.00    +0.000 NA
ENDBRANCH  20  21
BRANCH  20  23
ATOM     23  C   UNL     1       6.338   4.247  13.838  0.00  0.00    +0.000 C 
ATOM     24  O   UNL     1       7.183   5.074  13.524  0.00  0.00    +0.000 OA
BRANCH  23  25
ATOM     25  O   UNL     1       6.237   2.999  13.294  0.00  0.00    +0.000 OA
BRANCH  25  26
ATOM     26  C   UNL     1       5.982   2.982  11.875  0.00  0.00    +0.000 C 
ATOM     27  C   UNL     1       6.357   1.622  11.297  0.00  0.00    +0.000 C 
ATOM     28  C   UNL     1       4.506   3.275  11.649  0.00  0.00    +0.000 C 
ENDBRANCH  25  26
ENDBRANCH  23  25
ENDBRANCH  20  23
ENDBRANCH   4  20
TORSDOF 7
ENDMDL
MODEL 5
REMARK VINA RESULT:      -6.9      0.819      1.362
REMARK  Name = 
REMARK  10 active torsions:
REMARK  status: ('A' for Active; 'I' for Inactive)
REMARK    1  A    between atoms: C_1  and  C_2
REMARK    2  A    between atoms: C_5  and  C_6
REMARK    3  A    between atoms: C_6  and  N_7
REMARK    4  A    between atoms: C_10  and  C_11
REMARK    5  A    between atoms: C_11  and  C_12
REMARK    6  A    between atoms: C_11  and  C_14
REMARK    7  A    between atoms: C_14  and  O_16
REMARK    8  A    between atoms: O_16  and  C_17
REMARK    9  A    between atoms: C_17  and  C_18
REMARK   10  A    between atoms: C_17  and  C_19
REMARK                            x       y       z     vdW  Elec       q    Type
REMARK                         _______ _______ _______ _____ _____    ______ ____
ROOT
ATOM      1  N   UNL     1       0.108  10.983  19.014  0.00  0.00    +0.000 N 
ATOM      2  C   UNL     1       0.120  12.083  19.881  0.00  0.00    +0.000 C 
ATOM      3  O   UNL     1       1.102  12.620  20.361  0.00  0.00    +0.000 OA
ATOM      4  C   UNL     1      -1.322  12.536  20.106  0.00  0.00    +0.000 C 
ATOM      5  C   UNL     1      -2.063  11.701  19.090  0.00  0.00    +0.000 A 
ATOM      6  C   UNL     1      -3.399  11.793  18.720  0.00  0.00    +0.000 A 
ATOM      7  C   UNL     1      -3.880  10.871  17.802  0.00  0.00    +0.000 A 
ATOM      8  F   UNL     1      -5.172  10.912  17.451  0.00  0.00    +0.000 F 
ATOM      9  C   UNL     1      -3.040   9.897  17.251  0.00  0.00    +0.000 A 
ATOM     10  C   UNL     1      -1.672   9.847  17.590  0.00  0.00    +0.000 A 
ATOM     11  C   UNL     1      -1.192  10.764  18.513  0.00  0.00    +0.000 A 
ENDROOT
BRANCH   1  12
ATOM     12  C   UNL     1       1.352  10.478  18.473  0.00  0.00    +0.000 C 
BRANCH  12  17
ATOM     13  C   UNL     1       3.183   5.107  19.886  0.00  0.00    +0.000 C 
ATOM     14  C   UNL     1       2.631   6.446  19.484  0.00  0.00    +0.000 A 
ATOM     15  C   UNL     1       2.859   6.975  18.209  0.00  0.00    +0.000 A 
ATOM     16  C   UNL     1       2.393   8.252  17.867  0.00  0.00    +0.000 A 
ATOM     17  C   UNL     1       1.688   9.034  18.792  0.00  0.00    +0.000 A 
ATOM     18  C   UNL     1       1.429   8.482  20.059  0.00  0.00    +0.000 A 
ATOM     19  C   UNL     1       1.908   7.210  20.405  0.00  0.00    +0.000 A 
ENDBRANCH  12  17
ENDBRANCH   1  12
BRANCH   4  20
ATOM     20  C   UNL     1      -1.781  12.219  21.527  0.00  0.00    +0.000 C 
BRANCH  20  21
ATOM     21  C   UNL     1      -0.859  11.315  22.235  0.00  0.00    +0.000 C 
ATOM     22  N   UNL     1      -0.114  10.594  22.753  0.00  0.00    +0.000 NA
ENDBRANCH  20  21
BRANCH  20  23
ATOM     23  C   UNL     1      -1.781  13.491  22.338  0.00  0.00    +0.000 C 
ATOM     24  O   UNL     1      -1.546  14.600  21.877  0.00  0.00    +0.000 OA
BRANCH  23  25
ATOM     25  O   UNL     1      -2.069  13.243  23.650  0.00  0.00    +0.000 OA
BRANCH  25  26
ATOM     26  C   UNL     1      -3.349  13.741  24.087  0.00  0.00    +0.000 C 
ATOM     27  C   UNL     1      -4.199  12.593  24.619  0.00  0.00    +0.000 C 
ATOM     28  C   UNL     1      -3.113  14.784  25.171  0.00  0.00    +0.000 C 
ENDBRANCH  25  26
ENDBRANCH  23  25
ENDBRANCH  20  23
ENDBRANCH   4  20
TORSDOF 7
ENDMDL
MODEL 6
REMARK VINA RESULT:      -6.8      5.066      9.507
REMARK  Name = 
REMARK  10 active torsions:
REMARK  status: ('A' for Active; 'I' for Inactive)
REMARK    1  A    between atoms: C_1  and  C_2
REMARK    2  A    between atoms: C_5  and  C_6
REMARK    3  A    between atoms: C_6  and  N_7
REMARK    4  A    between atoms: C_10  and  C_11
REMARK    5  A    between atoms: C_11  and  C_12
REMARK    6  A    between atoms: C_11  and  C_14
REMARK    7  A    between atoms: C_14  and  O_16
REMARK    8  A    between atoms: O_16  and  C_17
REMARK    9  A    between atoms: C_17  and  C_18
REMARK   10  A    between atoms: C_17  and  C_19
REMARK                            x       y       z     vdW  Elec       q    Type
REMARK                         _______ _______ _______ _____ _____    ______ ____
ROOT
ATOM      1  N   UNL     1       2.955   6.472  17.636  0.00  0.00    +0.000 N 
ATOM      2  C   UNL     1       4.349   6.534  17.764  0.00  0.00    +0.000 C 
ATOM      3  O   UNL     1       5.042   7.533  17.691  0.00  0.00    +0.000 OA
ATOM      4  C   UNL     1       4.871   5.127  18.052  0.00  0.00    +0.000 C 
ATOM      5  C   UNL     1       3.585   4.370  18.284  0.00  0.00    +0.000 A 
ATOM      6  C   UNL     1       3.433   3.067  18.743  0.00  0.00    +0.000 A 
ATOM      7  C   UNL     1       2.145   2.557  18.820  0.00  0.00    +0.000 A 
ATOM      8  F   UNL     1       1.968   1.292  19.226  0.00  0.00    +0.000 F 
ATOM      9  C   UNL     1       1.038   3.337  18.469  0.00  0.00    +0.000 A 
ATOM     10  C   UNL     1       1.199   4.676  18.057  0.00  0.00    +0.000 A 
ATOM     11  C   UNL     1       2.486   5.185  17.973  0.00  0.00    +0.000 A 
ENDROOT
BRANCH   1  12
ATOM     12  C   UNL     1       2.183   7.693  17.561  0.00  0.00    +0.000 C 
BRANCH  12  17
ATOM     13  C   UNL     1       0.075   9.863  22.565  0.00  0.00    +0.000 C 
ATOM     14  C   UNL     1       0.700   9.356  21.296  0.00  0.00    +0.000 A 
ATOM     15  C   UNL     1       0.609  10.077  20.101  0.00  0.00    +0.000 A 
ATOM     16  C   UNL     1       1.141   9.564  18.910  0.00  0.00    +0.000 A 
ATOM     17  C   UNL     1       1.777   8.317  18.883  0.00  0.00    +0.000 A 
ATOM     18  C   UNL     1       1.901   7.614  20.095  0.00  0.00    +0.000 A 
ATOM     19  C   UNL     1       1.355   8.121  21.282  0.00  0.00    +0.000 A 
ENDBRANCH  12  17
ENDBRANCH   1  12
BRANCH   4  20
ATOM     20  C   UNL     1       5.636   4.570  16.854  0.00  0.00    +0.000 C 
BRANCH  20  21
ATOM     21  C   UNL     1       5.570   5.452  15.676  0.00  0.00    +0.000 C 
ATOM     22  N   UNL     1       5.495   6.175  14.774  0.00  0.00    +0.000 NA
ENDBRANCH  20  21
BRANCH  20  23
ATOM     23  C   UNL     1       7.101   4.490  17.201  0.00  0.00    +0.000 C 
ATOM     24  O   UNL     1       7.998   4.381  16.376  0.00  0.00    +0.000 OA
BRANCH  23  25
ATOM     25  O   UNL     1       7.294   4.547  18.552  0.00  0.00    +0.000 OA
BRANCH  25  26
ATOM     26  C   UNL     1       8.313   5.475  18.973  0.00  0.00    +0.000 C 
ATOM     27  C   UNL     1       7.970   6.879  18.488  0.00  0.00    +0.000 C 
ATOM     28  C   UNL     1       8.400   5.436  20.492  0.00  0.00    +0.000 C 
ENDBRANCH  25  26
ENDBRANCH  23  25
ENDBRANCH  20  23
ENDBRANCH   4  20
TORSDOF 7
ENDMDL
MODEL 7
REMARK VINA RESULT:      -6.8      1.321      1.891
REMARK  Name = 
REMARK  10 active torsions:
REMARK  status: ('A' for Active; 'I' for Inactive)
REMARK    1  A    between atoms: C_1  and  C_2
REMARK    2  A    between atoms: C_5  and  C_6
REMARK    3  A    between atoms: C_6  and  N_7
REMARK    4  A    between atoms: C_10  and  C_11
REMARK    5  A    between atoms: C_11  and  C_12
REMARK    6  A    between atoms: C_11  and  C_14
REMARK    7  A    between atoms: C_14  and  O_16
REMARK    8  A    between atoms: O_16  and  C_17
REMARK    9  A    between atoms: C_17  and  C_18
REMARK   10  A    between atoms: C_17  and  C_19
REMARK                            x       y       z     vdW  Elec       q    Type
REMARK                         _______ _______ _______ _____ _____    ______ ____
ROOT
ATOM      1  N   UNL     1      -0.137  11.119  19.002  0.00  0.00    +0.000 N 
ATOM      2  C   UNL     1      -0.203  12.244  19.834  0.00  0.00    +0.000 C 
ATOM      3  O   UNL     1       0.737  12.830  20.341  0.00  0.00    +0.000 OA
ATOM      4  C   UNL     1      -1.669  12.651  19.980  0.00  0.00    +0.000 C 
ATOM      5  C   UNL     1      -2.333  11.760  18.958  0.00  0.00    +0.000 A 
ATOM      6  C   UNL     1      -3.653  11.792  18.526  0.00  0.00    +0.000 A 
ATOM      7  C   UNL     1      -4.059  10.827  17.617  0.00  0.00    +0.000 A 
ATOM      8  F   UNL     1      -5.335  10.811  17.208  0.00  0.00    +0.000 F 
ATOM      9  C   UNL     1      -3.161   9.868  17.135  0.00  0.00    +0.000 A 
ATOM     10  C   UNL     1      -1.810   9.877  17.536  0.00  0.00    +0.000 A 
ATOM     11  C   UNL     1      -1.405  10.838  18.451  0.00  0.00    +0.000 A 
ENDROOT
BRANCH   1  12
ATOM     12  C   UNL     1       1.147  10.644  18.533  0.00  0.00    +0.000 C 
BRANCH  12  17
ATOM     13  C   UNL     1       3.013   5.277  19.915  0.00  0.00    +0.000 C 
ATOM     14  C   UNL     1       2.450   6.615  19.527  0.00  0.00    +0.000 A 
ATOM     15  C   UNL     1       2.601   7.122  18.232  0.00  0.00    +0.000 A 
ATOM     16  C   UNL     1       2.127   8.398  17.899  0.00  0.00    +0.000 A 
ATOM     17  C   UNL     1       1.489   9.201  18.853  0.00  0.00    +0.000 A 
ATOM     18  C   UNL     1       1.305   8.672  20.144  0.00  0.00    +0.000 A 
ATOM     19  C   UNL     1       1.793   7.401  20.479  0.00  0.00    +0.000 A 
ENDBRANCH  12  17
ENDBRANCH   1  12
BRANCH   4  20
ATOM     20  C   UNL     1      -2.182  12.360  21.389  0.00  0.00    +0.000 C 
BRANCH  20  21
ATOM     21  C   UNL     1      -1.267  12.844  22.438  0.00  0.00    +0.000 C 
ATOM     22  N   UNL     1      -0.564  13.193  23.290  0.00  0.00    +0.000 NA
ENDBRANCH  20  21
BRANCH  20  23
ATOM     23  C   UNL     1      -3.466  13.118  21.610  0.00  0.00    +0.000 C 
ATOM     24  O   UNL     1      -3.583  14.328  21.471  0.00  0.00    +0.000 OA
BRANCH  23  25
ATOM     25  O   UNL     1      -4.476  12.282  21.991  0.00  0.00    +0.000 OA
BRANCH  25  26
ATOM     26  C   UNL     1      -5.801  12.808  21.783  0.00  0.00    +0.000 C 
ATOM     27  C   UNL     1      -6.580  11.897  20.841  0.00  0.00    +0.000 C 
ATOM     28  C   UNL     1      -6.497  12.907  23.134  0.00  0.00    +0.000 C 
ENDBRANCH  25  26
ENDBRANCH  23  25
ENDBRANCH  20  23
ENDBRANCH   4  20
TORSDOF 7
ENDMDL
MODEL 8
REMARK VINA RESULT:      -6.8      0.953      1.610
REMARK  Name = 
REMARK  10 active torsions:
REMARK  status: ('A' for Active; 'I' for Inactive)
REMARK    1  A    between atoms: C_1  and  C_2
REMARK    2  A    between atoms: C_5  and  C_6
REMARK    3  A    between atoms: C_6  and  N_7
REMARK    4  A    between atoms: C_10  and  C_11
REMARK    5  A    between atoms: C_11  and  C_12
REMARK    6  A    between atoms: C_11  and  C_14
REMARK    7  A    between atoms: C_14  and  O_16
REMARK    8  A    between atoms: O_16  and  C_17
REMARK    9  A    between atoms: C_17  and  C_18
REMARK   10  A    between atoms: C_17  and  C_19
REMARK                            x       y       z     vdW  Elec       q    Type
REMARK                         _______ _______ _______ _____ _____    ______ ____
ROOT
ATOM      1  N   UNL     1       0.275  10.591  19.393  0.00  0.00    +0.000 N 
ATOM      2  C   UNL     1       0.368  11.389  20.541  0.00  0.00    +0.000 C 
ATOM      3  O   UNL     1       1.374  11.618  21.189  0.00  0.00    +0.000 OA
ATOM      4  C   UNL     1      -1.015  11.968  20.839  0.00  0.00    +0.000 C 
ATOM      5  C   UNL     1      -1.781  11.571  19.601  0.00  0.00    +0.000 A 
ATOM      6  C   UNL     1      -3.063  11.960  19.229  0.00  0.00    +0.000 A 
ATOM      7  C   UNL     1      -3.591  11.415  18.068  0.00  0.00    +0.000 A 
ATOM      8  F   UNL     1      -4.837  11.744  17.701  0.00  0.00    +0.000 F 
ATOM      9  C   UNL     1      -2.849  10.522  17.288  0.00  0.00    +0.000 A 
ATOM     10  C   UNL     1      -1.529  10.177  17.644  0.00  0.00    +0.000 A 
ATOM     11  C   UNL     1      -1.002  10.716  18.807  0.00  0.00    +0.000 A 
ENDROOT
BRANCH   1  12
ATOM     12  C   UNL     1       1.478  10.081  18.771  0.00  0.00    +0.000 C 
BRANCH  12  17
ATOM     13  C   UNL     1       2.366   4.411  19.895  0.00  0.00    +0.000 C 
ATOM     14  C   UNL     1       2.227   5.886  19.644  0.00  0.00    +0.000 A 
ATOM     15  C   UNL     1       1.730   6.748  20.627  0.00  0.00    +0.000 A 
ATOM     16  C   UNL     1       1.545   8.112  20.360  0.00  0.00    +0.000 A 
ATOM     17  C   UNL     1       1.853   8.649  19.104  0.00  0.00    +0.000 A 
ATOM     18  C   UNL     1       2.389   7.785  18.132  0.00  0.00    +0.000 A 
ATOM     19  C   UNL     1       2.559   6.418  18.395  0.00  0.00    +0.000 A 
ENDBRANCH  12  17
ENDBRANCH   1  12
BRANCH   4  20
ATOM     20  C   UNL     1      -1.616  11.337  22.092  0.00  0.00    +0.000 C 
BRANCH  20  21
ATOM     21  C   UNL     1      -0.646  10.514  22.836  0.00  0.00    +0.000 C 
ATOM     22  N   UNL     1       0.129   9.903  23.443  0.00  0.00    +0.000 NA
ENDBRANCH  20  21
BRANCH  20  23
ATOM     23  C   UNL     1      -2.016  12.431  23.050  0.00  0.00    +0.000 C 
ATOM     24  O   UNL     1      -3.163  12.628  23.428  0.00  0.00    +0.000 OA
BRANCH  23  25
ATOM     25  O   UNL     1      -0.936  13.175  23.432  0.00  0.00    +0.000 OA
BRANCH  25  26
ATOM     26  C   UNL     1      -1.112  14.599  23.302  0.00  0.00    +0.000 C 
ATOM     27  C   UNL     1      -1.175  15.243  24.682  0.00  0.00    +0.000 C 
ATOM     28  C   UNL     1       0.056  15.156  22.499  0.00  0.00    +0.000 C 
ENDBRANCH  25  26
ENDBRANCH  23  25
ENDBRANCH  20  23
ENDBRANCH   4  20
TORSDOF 7
ENDMDL
MODEL 9
REMARK VINA RESULT:      -6.6      7.887      9.856
REMARK  Name = 
REMARK  10 active torsions:
REMARK  status: ('A' for Active; 'I' for Inactive)
REMARK    1  A    between atoms: C_1  and  C_2
REMARK    2  A    between atoms: C_5  and  C_6
REMARK    3  A    between atoms: C_6  and  N_7
REMARK    4  A    between atoms: C_10  and  C_11
REMARK    5  A    between atoms: C_11  and  C_12
REMARK    6  A    between atoms: C_11  and  C_14
REMARK    7  A    between atoms: C_14  and  O_16
REMARK    8  A    between atoms: O_16  and  C_17
REMARK    9  A    between atoms: C_17  and  C_18
REMARK   10  A    between atoms: C_17  and  C_19
REMARK                            x       y       z     vdW  Elec       q    Type
REMARK                         _______ _______ _______ _____ _____    ______ ____
ROOT
ATOM      1  N   UNL     1       6.557   5.014  17.915  0.00  0.00    +0.000 N 
ATOM      2  C   UNL     1       5.306   5.109  18.539  0.00  0.00    +0.000 C 
ATOM      3  O   UNL     1       5.084   5.513  19.667  0.00  0.00    +0.000 OA
ATOM      4  C   UNL     1       4.237   4.649  17.548  0.00  0.00    +0.000 C 
ATOM      5  C   UNL     1       5.039   4.522  16.276  0.00  0.00    +0.000 A 
ATOM      6  C   UNL     1       4.568   4.286  14.990  0.00  0.00    +0.000 A 
ATOM      7  C   UNL     1       5.504   4.145  13.976  0.00  0.00    +0.000 A 
ATOM      8  F   UNL     1       5.083   3.883  12.731  0.00  0.00    +0.000 F 
ATOM      9  C   UNL     1       6.874   4.261  14.237  0.00  0.00    +0.000 A 
ATOM     10  C   UNL     1       7.339   4.555  15.535  0.00  0.00    +0.000 A 
ATOM     11  C   UNL     1       6.405   4.690  16.551  0.00  0.00    +0.000 A 
ENDROOT
BRANCH   1  12
ATOM     12  C   UNL     1       7.726   5.575  18.558  0.00  0.00    +0.000 C 
BRANCH  12  17
ATOM     13  C   UNL     1       8.812  11.282  17.891  0.00  0.00    +0.000 C 
ATOM     14  C   UNL     1       8.462   9.840  18.127  0.00  0.00    +0.000 A 
ATOM     15  C   UNL     1       9.037   9.112  19.174  0.00  0.00    +0.000 A 
ATOM     16  C   UNL     1       8.751   7.751  19.345  0.00  0.00    +0.000 A 
ATOM     17  C   UNL     1       7.883   7.081  18.473  0.00  0.00    +0.000 A 
ATOM     18  C   UNL     1       7.278   7.827  17.445  0.00  0.00    +0.000 A 
ATOM     19  C   UNL     1       7.577   9.185  17.266  0.00  0.00    +0.000 A 
ENDBRANCH  12  17
ENDBRANCH   1  12
BRANCH   4  20
ATOM     20  C   UNL     1       3.641   3.307  17.967  0.00  0.00    +0.000 C 
BRANCH  20  21
ATOM     21  C   UNL     1       4.282   2.751  19.171  0.00  0.00    +0.000 C 
ATOM     22  N   UNL     1       4.823   2.310  20.096  0.00  0.00    +0.000 NA
ENDBRANCH  20  21
BRANCH  20  23
ATOM     23  C   UNL     1       2.197   3.509  18.350  0.00  0.00    +0.000 C 
ATOM     24  O   UNL     1       1.449   4.313  17.811  0.00  0.00    +0.000 OA
BRANCH  23  25
ATOM     25  O   UNL     1       1.837   2.685  19.378  0.00  0.00    +0.000 OA
BRANCH  25  26
ATOM     26  C   UNL     1       1.148   3.343  20.460  0.00  0.00    +0.000 C 
ATOM     27  C   UNL     1       1.400   2.598  21.765  0.00  0.00    +0.000 C 
ATOM     28  C   UNL     1       1.654   4.776  20.551  0.00  0.00    +0.000 C 
ENDBRANCH  25  26
ENDBRANCH  23  25
ENDBRANCH  20  23
ENDBRANCH   4  20
TORSDOF 7
ENDMDL
