MODEL 1
REMARK VINA RESULT:      -7.9      0.000      0.000
REMARK  Name = 
REMARK  4 active torsions:
REMARK  status: ('A' for Active; 'I' for Inactive)
REMARK    1  A    between atoms: C_1  and  C_2
REMARK    2  A    between atoms: N_8  and  C_9
REMARK    3  A    between atoms: C_9  and  C_10
REMARK    4  A    between atoms: C_20  and  C_21
REMARK                            x       y       z     vdW  Elec       q    Type
REMARK                         _______ _______ _______ _____ _____    ______ ____
ROOT
ATOM      1  C   UNL     1       2.318   2.966  21.442  0.00  0.00    +0.000 C 
ATOM      2  C   UNL     1       2.567   4.151  20.575  0.00  0.00    +0.000 A 
ATOM      3  N   UNL     1       1.958   5.358  20.904  0.00  0.00    +0.000 NA
ATOM      4  C   UNL     1       2.196   6.253  19.971  0.00  0.00    +0.000 A 
ATOM      5  N   UNL     1       1.752   7.544  19.986  0.00  0.00    +0.000 N 
ATOM      6  C   UNL     1       1.240   8.154  21.070  0.00  0.00    +0.000 A 
ATOM      7  N   UNL     1       0.866   9.384  20.881  0.00  0.00    +0.000 NA
ATOM      8  N   UNL     1       1.148   9.607  19.546  0.00  0.00    +0.000 N 
ATOM      9  C   UNL     1       1.679   8.450  18.956  0.00  0.00    +0.000 A 
ATOM     10  O   UNL     1       1.956   8.319  17.774  0.00  0.00    +0.000 OA
ATOM     11  S   UNL     1       3.210   5.727  18.700  0.00  0.00    +0.000 S 
ATOM     12  C   UNL     1       3.380   4.197  19.451  0.00  0.00    +0.000 A 
ENDROOT
BRANCH  12  13
ATOM     13  C   UNL     1       4.245   3.164  18.923  0.00  0.00    +0.000 C 
ATOM     14  N   UNL     1       5.594   3.368  19.033  0.00  0.00    +0.000 N 
ATOM     15  O   UNL     1       3.846   2.119  18.418  0.00  0.00    +0.000 OA
ATOM     16  H   UNL     1       5.983   4.194  19.466  0.00  0.00    +0.000 HD
ATOM     17  H   UNL     1       6.212   2.633  18.718  0.00  0.00    +0.000 HD
ENDBRANCH  12  13
BRANCH   8  18
ATOM     18  C   UNL     1       0.775  10.811  18.840  0.00  0.00    +0.000 C 
BRANCH  18  19
ATOM     19  C   UNL     1      -0.703  10.857  18.531  0.00  0.00    +0.000 A 
ATOM     20  C   UNL     1      -1.250  10.000  17.563  0.00  0.00    +0.000 A 
ATOM     21  C   UNL     1      -2.607  10.071  17.241  0.00  0.00    +0.000 A 
ATOM     22  C   UNL     1      -3.416  11.001  17.884  0.00  0.00    +0.000 A 
ATOM     23  F   UNL     1      -4.714  11.079  17.563  0.00  0.00    +0.000 F 
ATOM     24  C   UNL     1      -2.897  11.856  18.849  0.00  0.00    +0.000 A 
ATOM     25  C   UNL     1      -1.540  11.787  19.171  0.00  0.00    +0.000 A 
ENDBRANCH  18  19
ENDBRANCH   8  18
TORSDOF 3
ENDMDL
MODEL 2
REMARK VINA RESULT:      -7.9      0.916      1.364
REMARK  Name = 
REMARK  4 active torsions:
REMARK  status: ('A' for Active; 'I' for Inactive)
REMARK    1  A    between atoms: C_1  and  C_2
REMARK    2  A    between atoms: N_8  and  C_9
REMARK    3  A    between atoms: C_9  and  C_10
REMARK    4  A    between atoms: C_20  and  C_21
REMARK                            x       y       z     vdW  Elec       q    Type
REMARK                         _______ _______ _______ _____ _____    ______ ____
ROOT
ATOM      1  C   UNL     1       1.843   2.581  21.701  0.00  0.00    +0.000 C 
ATOM      2  C   UNL     1       2.323   3.707  20.854  0.00  0.00    +0.000 A 
ATOM      3  N   UNL     1       1.760   4.967  21.038  0.00  0.00    +0.000 NA
ATOM      4  C   UNL     1       2.218   5.803  20.132  0.00  0.00    +0.000 A 
ATOM      5  N   UNL     1       1.876   7.121  20.032  0.00  0.00    +0.000 N 
ATOM      6  C   UNL     1       1.237   7.810  20.993  0.00  0.00    +0.000 A 
ATOM      7  N   UNL     1       0.993   9.054  20.707  0.00  0.00    +0.000 NA
ATOM      8  N   UNL     1       1.512   9.200  19.433  0.00  0.00    +0.000 N 
ATOM      9  C   UNL     1       2.047   7.985  18.978  0.00  0.00    +0.000 A 
ATOM     10  O   UNL     1       2.508   7.785  17.865  0.00  0.00    +0.000 OA
ATOM     11  S   UNL     1       3.389   5.155  19.070  0.00  0.00    +0.000 S 
ATOM     12  C   UNL     1       3.314   3.650  19.885  0.00  0.00    +0.000 A 
ENDROOT
BRANCH  12  13
ATOM     13  C   UNL     1       4.176   2.538  19.544  0.00  0.00    +0.000 C 
ATOM     14  N   UNL     1       3.999   1.972  18.310  0.00  0.00    +0.000 N 
ATOM     15  O   UNL     1       5.061   2.100  20.272  0.00  0.00    +0.000 OA
ATOM     16  H   UNL     1       3.308   2.307  17.654  0.00  0.00    +0.000 HD
ATOM     17  H   UNL     1       4.628   1.230  18.035  0.00  0.00    +0.000 HD
ENDBRANCH  12  13
BRANCH   8  18
ATOM     18  C   UNL     1       1.354  10.396  18.638  0.00  0.00    +0.000 C 
BRANCH  18  19
ATOM     19  C   UNL     1      -0.094  10.803  18.499  0.00  0.00    +0.000 A 
ATOM     20  C   UNL     1      -0.569  11.956  19.145  0.00  0.00    +0.000 A 
ATOM     21  C   UNL     1      -1.916  12.311  19.056  0.00  0.00    +0.000 A 
ATOM     22  C   UNL     1      -2.789  11.513  18.326  0.00  0.00    +0.000 A 
ATOM     23  F   UNL     1      -4.084  11.845  18.256  0.00  0.00    +0.000 F 
ATOM     24  C   UNL     1      -2.339  10.370  17.676  0.00  0.00    +0.000 A 
ATOM     25  C   UNL     1      -0.992  10.012  17.763  0.00  0.00    +0.000 A 
ENDBRANCH  18  19
ENDBRANCH   8  18
TORSDOF 3
ENDMDL
MODEL 3
REMARK VINA RESULT:      -7.7      1.190      1.647
REMARK  Name = 
REMARK  4 active torsions:
REMARK  status: ('A' for Active; 'I' for Inactive)
REMARK    1  A    between atoms: C_1  and  C_2
REMARK    2  A    between atoms: N_8  and  C_9
REMARK    3  A    between atoms: C_9  and  C_10
REMARK    4  A    between atoms: C_20  and  C_21
REMARK                            x       y       z     vdW  Elec       q    Type
REMARK                         _______ _______ _______ _____ _____    ______ ____
ROOT
ATOM      1  C   UNL     1       3.451   3.271  19.680  0.00  0.00    +0.000 C 
ATOM      2  C   UNL     1       3.509   4.650  19.122  0.00  0.00    +0.000 A 
ATOM      3  N   UNL     1       2.670   5.622  19.659  0.00  0.00    +0.000 NA
ATOM      4  C   UNL     1       2.773   6.737  18.971  0.00  0.00    +0.000 A 
ATOM      5  N   UNL     1       2.094   7.892  19.235  0.00  0.00    +0.000 N 
ATOM      6  C   UNL     1       1.432   8.134  20.380  0.00  0.00    +0.000 A 
ATOM      7  N   UNL     1       0.841   9.289  20.439  0.00  0.00    +0.000 NA
ATOM      8  N   UNL     1       1.132   9.864  19.215  0.00  0.00    +0.000 N 
ATOM      9  C   UNL     1       1.895   8.987  18.429  0.00  0.00    +0.000 A 
ATOM     10  O   UNL     1       2.241   9.185  17.276  0.00  0.00    +0.000 OA
ATOM     11  S   UNL     1       3.920   6.708  17.705  0.00  0.00    +0.000 S 
ATOM     12  C   UNL     1       4.344   5.098  18.109  0.00  0.00    +0.000 A 
ENDROOT
BRANCH  12  13
ATOM     13  C   UNL     1       5.410   4.383  17.439  0.00  0.00    +0.000 C 
ATOM     14  N   UNL     1       6.575   4.213  18.135  0.00  0.00    +0.000 N 
ATOM     15  O   UNL     1       5.319   3.902  16.313  0.00  0.00    +0.000 OA
ATOM     16  H   UNL     1       6.700   4.559  19.076  0.00  0.00    +0.000 HD
ATOM     17  H   UNL     1       7.310   3.669  17.703  0.00  0.00    +0.000 HD
ENDBRANCH  12  13
BRANCH   8  18
ATOM     18  C   UNL     1       0.568  11.115  18.765  0.00  0.00    +0.000 C 
BRANCH  18  19
ATOM     19  C   UNL     1      -0.905  10.999  18.450  0.00  0.00    +0.000 A 
ATOM     20  C   UNL     1      -1.827  11.875  19.045  0.00  0.00    +0.000 A 
ATOM     21  C   UNL     1      -3.193  11.743  18.792  0.00  0.00    +0.000 A 
ATOM     22  C   UNL     1      -3.639  10.731  17.948  0.00  0.00    +0.000 A 
ATOM     23  F   UNL     1      -4.952  10.594  17.720  0.00  0.00    +0.000 F 
ATOM     24  C   UNL     1      -2.744   9.855  17.346  0.00  0.00    +0.000 A 
ATOM     25  C   UNL     1      -1.377   9.986  17.598  0.00  0.00    +0.000 A 
ENDBRANCH  18  19
ENDBRANCH   8  18
TORSDOF 3
ENDMDL
MODEL 4
REMARK VINA RESULT:      -7.6      1.613      2.396
REMARK  Name = 
REMARK  4 active torsions:
REMARK  status: ('A' for Active; 'I' for Inactive)
REMARK    1  A    between atoms: C_1  and  C_2
REMARK    2  A    between atoms: N_8  and  C_9
REMARK    3  A    between atoms: C_9  and  C_10
REMARK    4  A    between atoms: C_20  and  C_21
REMARK                            x       y       z     vdW  Elec       q    Type
REMARK                         _______ _______ _______ _____ _____    ______ ____
ROOT
ATOM      1  C   UNL     1       4.836   3.724  19.048  0.00  0.00    +0.000 C 
ATOM      2  C   UNL     1       3.677   4.590  19.397  0.00  0.00    +0.000 A 
ATOM      3  N   UNL     1       3.573   5.841  18.793  0.00  0.00    +0.000 NA
ATOM      4  C   UNL     1       2.560   6.506  19.304  0.00  0.00    +0.000 A 
ATOM      5  N   UNL     1       2.174   7.761  18.931  0.00  0.00    +0.000 N 
ATOM      6  C   UNL     1       2.601   8.383  17.818  0.00  0.00    +0.000 A 
ATOM      7  N   UNL     1       2.124   9.579  17.641  0.00  0.00    +0.000 NA
ATOM      8  N   UNL     1       1.311   9.770  18.744  0.00  0.00    +0.000 N 
ATOM      9  C   UNL     1       1.352   8.647  19.585  0.00  0.00    +0.000 A 
ATOM     10  O   UNL     1       0.798   8.551  20.668  0.00  0.00    +0.000 OA
ATOM     11  S   UNL     1       1.644   5.655  20.468  0.00  0.00    +0.000 S 
ATOM     12  C   UNL     1       2.643   4.278  20.267  0.00  0.00    +0.000 A 
ENDROOT
BRANCH  12  13
ATOM     13  C   UNL     1       2.387   3.026  20.948  0.00  0.00    +0.000 C 
ATOM     14  N   UNL     1       1.613   2.109  20.289  0.00  0.00    +0.000 N 
ATOM     15  O   UNL     1       2.841   2.732  22.049  0.00  0.00    +0.000 OA
ATOM     16  H   UNL     1       1.235   2.280  19.368  0.00  0.00    +0.000 HD
ATOM     17  H   UNL     1       1.469   1.209  20.727  0.00  0.00    +0.000 HD
ENDBRANCH  12  13
BRANCH   8  18
ATOM     18  C   UNL     1       0.664  11.024  19.052  0.00  0.00    +0.000 C 
BRANCH  18  19
ATOM     19  C   UNL     1      -0.791  11.032  18.646  0.00  0.00    +0.000 A 
ATOM     20  C   UNL     1      -1.690  11.923  19.254  0.00  0.00    +0.000 A 
ATOM     21  C   UNL     1      -3.044  11.903  18.914  0.00  0.00    +0.000 A 
ATOM     22  C   UNL     1      -3.500  10.990  17.970  0.00  0.00    +0.000 A 
ATOM     23  F   UNL     1      -4.802  10.960  17.658  0.00  0.00    +0.000 F 
ATOM     24  C   UNL     1      -2.627  10.102  17.353  0.00  0.00    +0.000 A 
ATOM     25  C   UNL     1      -1.273  10.120  17.692  0.00  0.00    +0.000 A 
ENDBRANCH  18  19
ENDBRANCH   8  18
TORSDOF 3
ENDMDL
MODEL 5
REMARK VINA RESULT:      -7.5      1.641      2.175
REMARK  Name = 
REMARK  4 active torsions:
REMARK  status: ('A' for Active; 'I' for Inactive)
REMARK    1  A    between atoms: C_1  and  C_2
REMARK    2  A    between atoms: N_8  and  C_9
REMARK    3  A    between atoms: C_9  and  C_10
REMARK    4  A    between atoms: C_20  and  C_21
REMARK                            x       y       z     vdW  Elec       q    Type
REMARK                         _______ _______ _______ _____ _____    ______ ____
ROOT
ATOM      1  C   UNL     1       4.781   3.644  19.015  0.00  0.00    +0.000 C 
ATOM      2  C   UNL     1       3.648   4.536  19.388  0.00  0.00    +0.000 A 
ATOM      3  N   UNL     1       3.564   5.792  18.793  0.00  0.00    +0.000 NA
ATOM      4  C   UNL     1       2.577   6.478  19.324  0.00  0.00    +0.000 A 
ATOM      5  N   UNL     1       2.214   7.744  18.965  0.00  0.00    +0.000 N 
ATOM      6  C   UNL     1       2.637   8.362  17.848  0.00  0.00    +0.000 A 
ATOM      7  N   UNL     1       2.186   9.570  17.685  0.00  0.00    +0.000 NA
ATOM      8  N   UNL     1       1.397   9.774  18.803  0.00  0.00    +0.000 N 
ATOM      9  C   UNL     1       1.425   8.646  19.637  0.00  0.00    +0.000 A 
ATOM     10  O   UNL     1       0.886   8.556  20.728  0.00  0.00    +0.000 OA
ATOM     11  S   UNL     1       1.659   5.642  20.499  0.00  0.00    +0.000 S 
ATOM     12  C   UNL     1       2.621   4.243  20.273  0.00  0.00    +0.000 A 
ENDROOT
BRANCH  12  13
ATOM     13  C   UNL     1       2.347   2.993  20.951  0.00  0.00    +0.000 C 
ATOM     14  N   UNL     1       1.769   1.999  20.209  0.00  0.00    +0.000 N 
ATOM     15  O   UNL     1       2.625   2.767  22.125  0.00  0.00    +0.000 OA
ATOM     16  H   UNL     1       1.544   2.114  19.230  0.00  0.00    +0.000 HD
ATOM     17  H   UNL     1       1.620   1.103  20.652  0.00  0.00    +0.000 HD
ENDBRANCH  12  13
BRANCH   8  18
ATOM     18  C   UNL     1       0.785  11.041  19.129  0.00  0.00    +0.000 C 
BRANCH  18  19
ATOM     19  C   UNL     1      -0.690  11.065  18.802  0.00  0.00    +0.000 A 
ATOM     20  C   UNL     1      -1.203  10.238  17.790  0.00  0.00    +0.000 A 
ATOM     21  C   UNL     1      -2.557  10.290  17.454  0.00  0.00    +0.000 A 
ATOM     22  C   UNL     1      -3.397  11.172  18.125  0.00  0.00    +0.000 A 
ATOM     23  F   UNL     1      -4.692  11.233  17.790  0.00  0.00    +0.000 F 
ATOM     24  C   UNL     1      -2.911  11.996  19.132  0.00  0.00    +0.000 A 
ATOM     25  C   UNL     1      -1.556  11.946  19.470  0.00  0.00    +0.000 A 
ENDBRANCH  18  19
ENDBRANCH   8  18
TORSDOF 3
ENDMDL
MODEL 6
REMARK VINA RESULT:      -7.5      3.785      7.848
REMARK  Name = 
REMARK  4 active torsions:
REMARK  status: ('A' for Active; 'I' for Inactive)
REMARK    1  A    between atoms: C_1  and  C_2
REMARK    2  A    between atoms: N_8  and  C_9
REMARK    3  A    between atoms: C_9  and  C_10
REMARK    4  A    between atoms: C_20  and  C_21
REMARK                            x       y       z     vdW  Elec       q    Type
REMARK                         _______ _______ _______ _____ _____    ______ ____
ROOT
ATOM      1  C   UNL     1      -2.927  12.574  19.824  0.00  0.00    +0.000 C 
ATOM      2  C   UNL     1      -1.807  11.776  20.396  0.00  0.00    +0.000 A 
ATOM      3  N   UNL     1      -1.020  11.018  19.533  0.00  0.00    +0.000 NA
ATOM      4  C   UNL     1      -0.164  10.295  20.220  0.00  0.00    +0.000 A 
ATOM      5  N   UNL     1       0.761   9.446  19.683  0.00  0.00    +0.000 N 
ATOM      6  C   UNL     1       1.103   9.428  18.383  0.00  0.00    +0.000 A 
ATOM      7  N   UNL     1       1.998   8.541  18.064  0.00  0.00    +0.000 NA
ATOM      8  N   UNL     1       2.267   7.907  19.263  0.00  0.00    +0.000 N 
ATOM      9  C   UNL     1       1.475   8.443  20.291  0.00  0.00    +0.000 A 
ATOM     10  O   UNL     1       1.437   8.038  21.442  0.00  0.00    +0.000 OA
ATOM     11  S   UNL     1      -0.202  10.535  21.912  0.00  0.00    +0.000 S 
ATOM     12  C   UNL     1      -1.432  11.714  21.730  0.00  0.00    +0.000 A 
ENDROOT
BRANCH  12  13
ATOM     13  C   UNL     1      -1.953  12.472  22.848  0.00  0.00    +0.000 C 
ATOM     14  N   UNL     1      -3.097  12.004  23.434  0.00  0.00    +0.000 N 
ATOM     15  O   UNL     1      -1.421  13.477  23.310  0.00  0.00    +0.000 OA
ATOM     16  H   UNL     1      -3.565  11.166  23.119  0.00  0.00    +0.000 HD
ATOM     17  H   UNL     1      -3.444  12.491  24.250  0.00  0.00    +0.000 HD
ENDBRANCH  12  13
BRANCH   8  18
ATOM     18  C   UNL     1       3.114   6.743  19.379  0.00  0.00    +0.000 C 
BRANCH  18  19
ATOM     19  C   UNL     1       2.349   5.456  19.182  0.00  0.00    +0.000 A 
ATOM     20  C   UNL     1       2.217   4.901  17.899  0.00  0.00    +0.000 A 
ATOM     21  C   UNL     1       1.473   3.736  17.706  0.00  0.00    +0.000 A 
ATOM     22  C   UNL     1       0.857   3.128  18.794  0.00  0.00    +0.000 A 
ATOM     23  F   UNL     1       0.129   2.020  18.604  0.00  0.00    +0.000 F 
ATOM     24  C   UNL     1       0.977   3.658  20.072  0.00  0.00    +0.000 A 
ATOM     25  C   UNL     1       1.721   4.823  20.268  0.00  0.00    +0.000 A 
ENDBRANCH  18  19
ENDBRANCH   8  18
TORSDOF 3
ENDMDL
MODEL 7
REMARK VINA RESULT:      -7.3      1.584      1.775
REMARK  Name = 
REMARK  4 active torsions:
REMARK  status: ('A' for Active; 'I' for Inactive)
REMARK    1  A    between atoms: C_1  and  C_2
REMARK    2  A    between atoms: N_8  and  C_9
REMARK    3  A    between atoms: C_9  and  C_10
REMARK    4  A    between atoms: C_20  and  C_21
REMARK                            x       y       z     vdW  Elec       q    Type
REMARK                         _______ _______ _______ _____ _____    ______ ____
ROOT
ATOM      1  C   UNL     1       3.730   2.961  18.597  0.00  0.00    +0.000 C 
ATOM      2  C   UNL     1       3.779   4.416  18.285  0.00  0.00    +0.000 A 
ATOM      3  N   UNL     1       2.940   5.277  18.986  0.00  0.00    +0.000 NA
ATOM      4  C   UNL     1       3.035   6.495  18.500  0.00  0.00    +0.000 A 
ATOM      5  N   UNL     1       2.354   7.584  18.964  0.00  0.00    +0.000 N 
ATOM      6  C   UNL     1       1.697   7.620  20.137  0.00  0.00    +0.000 A 
ATOM      7  N   UNL     1       1.103   8.746  20.397  0.00  0.00    +0.000 NA
ATOM      8  N   UNL     1       1.384   9.525  19.289  0.00  0.00    +0.000 N 
ATOM      9  C   UNL     1       2.147   8.800  18.361  0.00  0.00    +0.000 A 
ATOM     10  O   UNL     1       2.485   9.196  17.257  0.00  0.00    +0.000 OA
ATOM     11  S   UNL     1       4.175   6.690  17.243  0.00  0.00    +0.000 S 
ATOM     12  C   UNL     1       4.607   5.036  17.360  0.00  0.00    +0.000 A 
ENDROOT
BRANCH  12  13
ATOM     13  C   UNL     1       5.671   4.452  16.571  0.00  0.00    +0.000 C 
ATOM     14  N   UNL     1       6.854   4.203  17.213  0.00  0.00    +0.000 N 
ATOM     15  O   UNL     1       5.567   4.145  15.388  0.00  0.00    +0.000 OA
ATOM     16  H   UNL     1       6.992   4.406  18.194  0.00  0.00    +0.000 HD
ATOM     17  H   UNL     1       7.589   3.746  16.691  0.00  0.00    +0.000 HD
ENDBRANCH  12  13
BRANCH   8  18
ATOM     18  C   UNL     1       0.813  10.833  19.066  0.00  0.00    +0.000 C 
BRANCH  18  19
ATOM     19  C   UNL     1      -0.634  10.760  18.641  0.00  0.00    +0.000 A 
ATOM     20  C   UNL     1      -1.039   9.837  17.664  0.00  0.00    +0.000 A 
ATOM     21  C   UNL     1      -2.367   9.796  17.236  0.00  0.00    +0.000 A 
ATOM     22  C   UNL     1      -3.290  10.682  17.781  0.00  0.00    +0.000 A 
ATOM     23  F   UNL     1      -4.560  10.654  17.357  0.00  0.00    +0.000 F 
ATOM     24  C   UNL     1      -2.912  11.601  18.752  0.00  0.00    +0.000 A 
ATOM     25  C   UNL     1      -1.584  11.643  19.181  0.00  0.00    +0.000 A 
ENDBRANCH  18  19
ENDBRANCH   8  18
TORSDOF 3
ENDMDL
MODEL 8
REMARK VINA RESULT:      -7.3      3.999      8.072
REMARK  Name = 
REMARK  4 active torsions:
REMARK  status: ('A' for Active; 'I' for Inactive)
REMARK    1  A    between atoms: C_1  and  C_2
REMARK    2  A    between atoms: N_8  and  C_9
REMARK    3  A    between atoms: C_9  and  C_10
REMARK    4  A    between atoms: C_20  and  C_21
REMARK                            x       y       z     vdW  Elec       q    Type
REMARK                         _______ _______ _______ _____ _____    ______ ____
ROOT
ATOM      1  C   UNL     1      -1.088  12.048  22.827  0.00  0.00    +0.000 C 
ATOM      2  C   UNL     1      -0.758  11.439  21.509  0.00  0.00    +0.000 A 
ATOM      3  N   UNL     1       0.083  10.330  21.478  0.00  0.00    +0.000 NA
ATOM      4  C   UNL     1       0.354  10.003  20.234  0.00  0.00    +0.000 A 
ATOM      5  N   UNL     1       1.142   8.957  19.848  0.00  0.00    +0.000 N 
ATOM      6  C   UNL     1       1.532   7.963  20.666  0.00  0.00    +0.000 A 
ATOM      7  N   UNL     1       2.288   7.062  20.113  0.00  0.00    +0.000 NA
ATOM      8  N   UNL     1       2.417   7.504  18.809  0.00  0.00    +0.000 N 
ATOM      9  C   UNL     1       1.727   8.713  18.629  0.00  0.00    +0.000 A 
ATOM     10  O   UNL     1       1.718   9.381  17.607  0.00  0.00    +0.000 OA
ATOM     11  S   UNL     1      -0.430  10.947  19.046  0.00  0.00    +0.000 S 
ATOM     12  C   UNL     1      -1.222  11.850  20.268  0.00  0.00    +0.000 A 
ENDROOT
BRANCH  12  13
ATOM     13  C   UNL     1      -2.199  12.875  19.967  0.00  0.00    +0.000 C 
ATOM     14  N   UNL     1      -1.728  14.147  19.784  0.00  0.00    +0.000 N 
ATOM     15  O   UNL     1      -3.402  12.668  19.839  0.00  0.00    +0.000 OA
ATOM     16  H   UNL     1      -0.745  14.375  19.846  0.00  0.00    +0.000 HD
ATOM     17  H   UNL     1      -2.390  14.864  19.520  0.00  0.00    +0.000 HD
ENDBRANCH  12  13
BRANCH   8  18
ATOM     18  C   UNL     1       3.289   6.886  17.838  0.00  0.00    +0.000 C 
BRANCH  18  19
ATOM     19  C   UNL     1       3.314   5.381  17.968  0.00  0.00    +0.000 A 
ATOM     20  C   UNL     1       4.482   4.727  18.388  0.00  0.00    +0.000 A 
ATOM     21  C   UNL     1       4.524   3.333  18.466  0.00  0.00    +0.000 A 
ATOM     22  C   UNL     1       3.399   2.594  18.119  0.00  0.00    +0.000 A 
ATOM     23  F   UNL     1       3.445   1.257  18.178  0.00  0.00    +0.000 F 
ATOM     24  C   UNL     1       2.230   3.221  17.705  0.00  0.00    +0.000 A 
ATOM     25  C   UNL     1       2.187   4.615  17.626  0.00  0.00    +0.000 A 
ENDBRANCH  18  19
ENDBRANCH   8  18
TORSDOF 3
ENDMDL
MODEL 9
REMARK VINA RESULT:      -7.2      3.972      8.076
REMARK  Name = 
REMARK  4 active torsions:
REMARK  status: ('A' for Active; 'I' for Inactive)
REMARK    1  A    between atoms: C_1  and  C_2
REMARK    2  A    between atoms: N_8  and  C_9
REMARK    3  A    between atoms: C_9  and  C_10
REMARK    4  A    between atoms: C_20  and  C_21
REMARK                            x       y       z     vdW  Elec       q    Type
REMARK                         _______ _______ _______ _____ _____    ______ ____
ROOT
ATOM      1  C   UNL     1      -1.127  11.823  22.764  0.00  0.00    +0.000 C 
ATOM      2  C   UNL     1      -0.701  11.282  21.443  0.00  0.00    +0.000 A 
ATOM      3  N   UNL     1       0.074  10.127  21.415  0.00  0.00    +0.000 NA
ATOM      4  C   UNL     1       0.450   9.866  20.182  0.00  0.00    +0.000 A 
ATOM      5  N   UNL     1       1.213   8.799  19.800  0.00  0.00    +0.000 N 
ATOM      6  C   UNL     1       1.463   7.732  20.579  0.00  0.00    +0.000 A 
ATOM      7  N   UNL     1       2.217   6.823  20.038  0.00  0.00    +0.000 NA
ATOM      8  N   UNL     1       2.501   7.341  18.787  0.00  0.00    +0.000 N 
ATOM      9  C   UNL     1       1.902   8.600  18.629  0.00  0.00    +0.000 A 
ATOM     10  O   UNL     1       2.034   9.332  17.661  0.00  0.00    +0.000 OA
ATOM     11  S   UNL     1      -0.157  10.934  18.995  0.00  0.00    +0.000 S 
ATOM     12  C   UNL     1      -1.015  11.803  20.196  0.00  0.00    +0.000 A 
ENDROOT
BRANCH  12  13
ATOM     13  C   UNL     1      -1.898  12.905  19.877  0.00  0.00    +0.000 C 
ATOM     14  N   UNL     1      -3.098  12.590  19.301  0.00  0.00    +0.000 N 
ATOM     15  O   UNL     1      -1.648  14.082  20.116  0.00  0.00    +0.000 OA
ATOM     16  H   UNL     1      -3.374  11.638  19.108  0.00  0.00    +0.000 HD
ATOM     17  H   UNL     1      -3.749  13.343  19.122  0.00  0.00    +0.000 HD
ENDBRANCH  12  13
BRANCH   8  18
ATOM     18  C   UNL     1       3.430   6.733  17.863  0.00  0.00    +0.000 C 
BRANCH  18  19
ATOM     19  C   UNL     1       3.437   5.226  17.966  0.00  0.00    +0.000 A 
ATOM     20  C   UNL     1       2.298   4.488  17.609  0.00  0.00    +0.000 A 
ATOM     21  C   UNL     1       2.284   3.099  17.746  0.00  0.00    +0.000 A 
ATOM     22  C   UNL     1       3.407   2.448  18.243  0.00  0.00    +0.000 A 
ATOM     23  F   UNL     1       3.387   1.117  18.390  0.00  0.00    +0.000 F 
ATOM     24  C   UNL     1       4.547   3.158  18.598  0.00  0.00    +0.000 A 
ATOM     25  C   UNL     1       4.563   4.548  18.463  0.00  0.00    +0.000 A 
ENDBRANCH  18  19
ENDBRANCH   8  18
TORSDOF 3
ENDMDL
