MODEL 1
REMARK VINA RESULT:      -7.4      0.000      0.000
REMARK  Name = 
REMARK  8 active torsions:
REMARK  status: ('A' for Active; 'I' for Inactive)
REMARK    1  A    between atoms: C_1  and  N_2
REMARK    2  A    between atoms: N_2  and  C_3
REMARK    3  A    between atoms: C_4  and  C_6
REMARK    4  A    between atoms: C_8  and  C_9
REMARK    5  A    between atoms: C_13  and  C_14
REMARK    6  A    between atoms: N_21  and  C_22
REMARK    7  A    between atoms: C_26  and  C_27
REMARK    8  A    between atoms: N_34  and  C_35
REMARK                            x       y       z     vdW  Elec       q    Type
REMARK                         _______ _______ _______ _____ _____    ______ ____
ROOT
ATOM      1  C   UNL     1      -1.224  11.027  20.389  0.00  0.00    +0.000 C 
ATOM      2  C   UNL     1      -0.452  10.127  21.274  0.00  0.00    +0.000 C 
ATOM      3  C   UNL     1       0.509   9.300  20.873  0.00  0.00    +0.000 C 
ATOM      4  C   UNL     1       1.387   8.793  21.979  0.00  0.00    +0.000 C 
ATOM      5  C   UNL     1       0.884   9.506  23.228  0.00  0.00    +0.000 C 
ATOM      6  C   UNL     1      -0.332  10.226  22.734  0.00  0.00    +0.000 C 
ATOM      7  O   UNL     1      -1.078  10.873  23.451  0.00  0.00    +0.000 OA
ATOM      8  N   UNL     1       0.771   9.131  19.528  0.00  0.00    +0.000 N 
ATOM      9  C   UNL     1       0.039   9.817  18.531  0.00  0.00    +0.000 C 
ATOM     10  O   UNL     1       0.218   9.626  17.325  0.00  0.00    +0.000 OA
ATOM     11  N   UNL     1      -0.934  10.717  18.976  0.00  0.00    +0.000 N 
ATOM     12  C   UNL     1      -1.845  11.296  17.996  0.00  0.00    +0.000 C 
ENDROOT
BRANCH   1  18
ATOM     13  C   UNL     1      -1.763  13.393  21.331  0.00  0.00    +0.000 A 
ATOM     14  C   UNL     1      -1.243  14.442  22.106  0.00  0.00    +0.000 A 
ATOM     15  C   UNL     1       0.132  14.685  22.195  0.00  0.00    +0.000 A 
ATOM     16  C   UNL     1       1.030  13.861  21.531  0.00  0.00    +0.000 A 
ATOM     17  C   UNL     1       0.548  12.763  20.827  0.00  0.00    +0.000 A 
ATOM     18  C   UNL     1      -0.844  12.472  20.763  0.00  0.00    +0.000 A 
BRANCH  13  22
ATOM     19  C   UNL     1      -5.478  12.815  22.115  0.00  0.00    +0.000 C 
ATOM     20  N   UNL     1      -4.045  12.909  22.353  0.00  0.00    +0.000 N 
ATOM     21  C   UNL     1      -3.613  12.815  23.741  0.00  0.00    +0.000 C 
ATOM     22  C   UNL     1      -3.256  13.217  21.232  0.00  0.00    +0.000 C 
ATOM     23  O   UNL     1      -3.801  13.389  20.143  0.00  0.00    +0.000 OA
ENDBRANCH  13  22
BRANCH  15  24
ATOM     24  C   UNL     1       0.610  15.776  22.989  0.00  0.00    +0.000 C 
ATOM     25  N   UNL     1       1.009  16.657  23.634  0.00  0.00    +0.000 NA
ENDBRANCH  15  24
ENDBRANCH   1  18
BRANCH   8  26
ATOM     26  C   UNL     1       1.792   8.229  19.090  0.00  0.00    +0.000 A 
ATOM     27  C   UNL     1       2.609   8.563  17.996  0.00  0.00    +0.000 A 
ATOM     28  C   UNL     1       3.557   7.661  17.525  0.00  0.00    +0.000 A 
ATOM     29  C   UNL     1       3.684   6.409  18.125  0.00  0.00    +0.000 A 
ATOM     30  C   UNL     1       2.881   6.058  19.221  0.00  0.00    +0.000 A 
ATOM     31  C   UNL     1       1.954   6.990  19.712  0.00  0.00    +0.000 A 
BRANCH  30  32
ATOM     32  C   UNL     1       2.973   4.693  19.854  0.00  0.00    +0.000 C 
ATOM     33  F   UNL     1       2.610   4.676  21.167  0.00  0.00    +0.000 F 
ATOM     34  F   UNL     1       2.191   3.767  19.236  0.00  0.00    +0.000 F 
ATOM     35  F   UNL     1       4.242   4.195  19.817  0.00  0.00    +0.000 F 
ENDBRANCH  30  32
ENDBRANCH   8  26
TORSDOF 5
ENDMDL
MODEL 2
REMARK VINA RESULT:      -7.1      0.659      1.014
REMARK  Name = 
REMARK  8 active torsions:
REMARK  status: ('A' for Active; 'I' for Inactive)
REMARK    1  A    between atoms: C_1  and  N_2
REMARK    2  A    between atoms: N_2  and  C_3
REMARK    3  A    between atoms: C_4  and  C_6
REMARK    4  A    between atoms: C_8  and  C_9
REMARK    5  A    between atoms: C_13  and  C_14
REMARK    6  A    between atoms: N_21  and  C_22
REMARK    7  A    between atoms: C_26  and  C_27
REMARK    8  A    between atoms: N_34  and  C_35
REMARK                            x       y       z     vdW  Elec       q    Type
REMARK                         _______ _______ _______ _____ _____    ______ ____
ROOT
ATOM      1  C   UNL     1      -1.036  10.858  20.231  0.00  0.00    +0.000 C 
ATOM      2  C   UNL     1      -0.218   9.956  21.072  0.00  0.00    +0.000 C 
ATOM      3  C   UNL     1       0.700   9.111  20.617  0.00  0.00    +0.000 C 
ATOM      4  C   UNL     1       1.645   8.602  21.666  0.00  0.00    +0.000 C 
ATOM      5  C   UNL     1       1.239   9.337  22.938  0.00  0.00    +0.000 C 
ATOM      6  C   UNL     1       0.002  10.070  22.519  0.00  0.00    +0.000 C 
ATOM      7  O   UNL     1      -0.684  10.736  23.278  0.00  0.00    +0.000 OA
ATOM      8  N   UNL     1       0.868   8.923  19.259  0.00  0.00    +0.000 N 
ATOM      9  C   UNL     1       0.079   9.609  18.306  0.00  0.00    +0.000 C 
ATOM     10  O   UNL     1       0.173   9.402  17.093  0.00  0.00    +0.000 OA
ATOM     11  N   UNL     1      -0.848  10.528  18.805  0.00  0.00    +0.000 N 
ATOM     12  C   UNL     1      -1.816  11.110  17.883  0.00  0.00    +0.000 C 
ENDROOT
BRANCH   1  18
ATOM     13  C   UNL     1      -1.485  13.253  21.149  0.00  0.00    +0.000 A 
ATOM     14  C   UNL     1      -0.911  14.304  21.881  0.00  0.00    +0.000 A 
ATOM     15  C   UNL     1       0.471  14.519  21.908  0.00  0.00    +0.000 A 
ATOM     16  C   UNL     1       1.323  13.664  21.223  0.00  0.00    +0.000 A 
ATOM     17  C   UNL     1       0.789  12.563  20.561  0.00  0.00    +0.000 A 
ATOM     18  C   UNL     1      -0.610  12.301  20.561  0.00  0.00    +0.000 A 
BRANCH  13  22
ATOM     19  C   UNL     1      -5.173  12.747  22.096  0.00  0.00    +0.000 C 
ATOM     20  N   UNL     1      -3.728  12.811  22.271  0.00  0.00    +0.000 N 
ATOM     21  C   UNL     1      -3.238  12.703  23.638  0.00  0.00    +0.000 C 
ATOM     22  C   UNL     1      -2.985  13.107  21.116  0.00  0.00    +0.000 C 
ATOM     23  O   UNL     1      -3.574  13.295  20.053  0.00  0.00    +0.000 OA
ENDBRANCH  13  22
BRANCH  15  24
ATOM     24  C   UNL     1       1.006  15.614  22.660  0.00  0.00    +0.000 C 
ATOM     25  N   UNL     1       1.430  16.505  23.274  0.00  0.00    +0.000 NA
ENDBRANCH  15  24
ENDBRANCH   1  18
BRANCH   8  26
ATOM     26  C   UNL     1       1.843   8.001  18.763  0.00  0.00    +0.000 A 
ATOM     27  C   UNL     1       2.960   8.469  18.048  0.00  0.00    +0.000 A 
ATOM     28  C   UNL     1       3.875   7.571  17.507  0.00  0.00    +0.000 A 
ATOM     29  C   UNL     1       3.673   6.199  17.653  0.00  0.00    +0.000 A 
ATOM     30  C   UNL     1       2.567   5.712  18.367  0.00  0.00    +0.000 A 
ATOM     31  C   UNL     1       1.670   6.627  18.941  0.00  0.00    +0.000 A 
BRANCH  30  32
ATOM     32  C   UNL     1       2.309   4.233  18.497  0.00  0.00    +0.000 C 
ATOM     33  F   UNL     1       3.117   3.468  17.710  0.00  0.00    +0.000 F 
ATOM     34  F   UNL     1       2.478   3.774  19.767  0.00  0.00    +0.000 F 
ATOM     35  F   UNL     1       1.034   3.902  18.146  0.00  0.00    +0.000 F 
ENDBRANCH  30  32
ENDBRANCH   8  26
TORSDOF 5
ENDMDL
MODEL 3
REMARK VINA RESULT:      -7.1      0.969      1.397
REMARK  Name = 
REMARK  8 active torsions:
REMARK  status: ('A' for Active; 'I' for Inactive)
REMARK    1  A    between atoms: C_1  and  N_2
REMARK    2  A    between atoms: N_2  and  C_3
REMARK    3  A    between atoms: C_4  and  C_6
REMARK    4  A    between atoms: C_8  and  C_9
REMARK    5  A    between atoms: C_13  and  C_14
REMARK    6  A    between atoms: N_21  and  C_22
REMARK    7  A    between atoms: C_26  and  C_27
REMARK    8  A    between atoms: N_34  and  C_35
REMARK                            x       y       z     vdW  Elec       q    Type
REMARK                         _______ _______ _______ _____ _____    ______ ____
ROOT
ATOM      1  C   UNL     1      -1.395  10.877  20.609  0.00  0.00    +0.000 C 
ATOM      2  C   UNL     1      -0.447  10.005  21.336  0.00  0.00    +0.000 C 
ATOM      3  C   UNL     1       0.513   9.280  20.769  0.00  0.00    +0.000 C 
ATOM      4  C   UNL     1       1.566   8.798  21.722  0.00  0.00    +0.000 C 
ATOM      5  C   UNL     1       1.179   9.409  23.064  0.00  0.00    +0.000 C 
ATOM      6  C   UNL     1      -0.143  10.047  22.771  0.00  0.00    +0.000 C 
ATOM      7  O   UNL     1      -0.835  10.596  23.613  0.00  0.00    +0.000 OA
ATOM      8  N   UNL     1       0.607   9.196  19.394  0.00  0.00    +0.000 N 
ATOM      9  C   UNL     1      -0.301   9.864  18.539  0.00  0.00    +0.000 C 
ATOM     10  O   UNL     1      -0.268   9.744  17.311  0.00  0.00    +0.000 OA
ATOM     11  N   UNL     1      -1.272  10.658  19.155  0.00  0.00    +0.000 N 
ATOM     12  C   UNL     1      -2.346  11.204  18.334  0.00  0.00    +0.000 C 
ENDROOT
BRANCH   1  18
ATOM     13  C   UNL     1      -1.881  13.074  21.920  0.00  0.00    +0.000 A 
ATOM     14  C   UNL     1      -1.269  14.125  22.620  0.00  0.00    +0.000 A 
ATOM     15  C   UNL     1       0.033  14.548  22.332  0.00  0.00    +0.000 A 
ATOM     16  C   UNL     1       0.773  13.905  21.349  0.00  0.00    +0.000 A 
ATOM     17  C   UNL     1       0.224  12.805  20.699  0.00  0.00    +0.000 A 
ATOM     18  C   UNL     1      -1.081  12.330  21.012  0.00  0.00    +0.000 A 
BRANCH  13  22
ATOM     19  C   UNL     1      -5.695  12.630  21.841  0.00  0.00    +0.000 C 
ATOM     20  N   UNL     1      -4.380  13.105  21.433  0.00  0.00    +0.000 N 
ATOM     21  C   UNL     1      -4.316  13.816  20.164  0.00  0.00    +0.000 C 
ATOM     22  C   UNL     1      -3.305  12.701  22.242  0.00  0.00    +0.000 C 
ATOM     23  O   UNL     1      -3.523  11.988  23.220  0.00  0.00    +0.000 OA
ENDBRANCH  13  22
BRANCH  15  24
ATOM     24  C   UNL     1       0.607  15.635  23.066  0.00  0.00    +0.000 C 
ATOM     25  N   UNL     1       1.078  16.510  23.669  0.00  0.00    +0.000 NA
ENDBRANCH  15  24
ENDBRANCH   1  18
BRANCH   8  26
ATOM     26  C   UNL     1       1.627   8.404  18.779  0.00  0.00    +0.000 A 
ATOM     27  C   UNL     1       2.674   9.021  18.071  0.00  0.00    +0.000 A 
ATOM     28  C   UNL     1       3.629   8.252  17.415  0.00  0.00    +0.000 A 
ATOM     29  C   UNL     1       3.538   6.861  17.438  0.00  0.00    +0.000 A 
ATOM     30  C   UNL     1       2.504   6.225  18.141  0.00  0.00    +0.000 A 
ATOM     31  C   UNL     1       1.567   7.010  18.832  0.00  0.00    +0.000 A 
BRANCH  30  32
ATOM     32  C   UNL     1       2.364   4.724  18.140  0.00  0.00    +0.000 C 
ATOM     33  F   UNL     1       3.196   4.101  17.259  0.00  0.00    +0.000 F 
ATOM     34  F   UNL     1       2.618   4.167  19.355  0.00  0.00    +0.000 F 
ATOM     35  F   UNL     1       1.105   4.327  17.801  0.00  0.00    +0.000 F 
ENDBRANCH  30  32
ENDBRANCH   8  26
TORSDOF 5
ENDMDL
MODEL 4
REMARK VINA RESULT:      -7.0      4.946      6.249
REMARK  Name = 
REMARK  8 active torsions:
REMARK  status: ('A' for Active; 'I' for Inactive)
REMARK    1  A    between atoms: C_1  and  N_2
REMARK    2  A    between atoms: N_2  and  C_3
REMARK    3  A    between atoms: C_4  and  C_6
REMARK    4  A    between atoms: C_8  and  C_9
REMARK    5  A    between atoms: C_13  and  C_14
REMARK    6  A    between atoms: N_21  and  C_22
REMARK    7  A    between atoms: C_26  and  C_27
REMARK    8  A    between atoms: N_34  and  C_35
REMARK                            x       y       z     vdW  Elec       q    Type
REMARK                         _______ _______ _______ _____ _____    ______ ____
ROOT
ATOM      1  C   UNL     1      -3.518  12.732  20.895  0.00  0.00    +0.000 C 
ATOM      2  C   UNL     1      -2.283  13.061  21.641  0.00  0.00    +0.000 C 
ATOM      3  C   UNL     1      -1.082  13.222  21.096  0.00  0.00    +0.000 C 
ATOM      4  C   UNL     1      -0.091  13.918  21.982  0.00  0.00    +0.000 C 
ATOM      5  C   UNL     1      -0.882  14.281  23.233  0.00  0.00    +0.000 C 
ATOM      6  C   UNL     1      -2.201  13.613  22.998  0.00  0.00    +0.000 C 
ATOM      7  O   UNL     1      -3.113  13.603  23.810  0.00  0.00    +0.000 OA
ATOM      8  N   UNL     1      -0.879  12.957  19.756  0.00  0.00    +0.000 N 
ATOM      9  C   UNL     1      -1.924  12.506  18.915  0.00  0.00    +0.000 C 
ATOM     10  O   UNL     1      -1.742  12.202  17.733  0.00  0.00    +0.000 OA
ATOM     11  N   UNL     1      -3.189  12.389  19.498  0.00  0.00    +0.000 N 
ATOM     12  C   UNL     1      -4.249  11.743  18.733  0.00  0.00    +0.000 C 
ENDROOT
BRANCH   1  18
ATOM     13  C   UNL     1      -5.721  13.909  21.630  0.00  0.00    +0.000 A 
ATOM     14  C   UNL     1      -6.240  15.110  22.137  0.00  0.00    +0.000 A 
ATOM     15  C   UNL     1      -5.625  16.343  21.896  0.00  0.00    +0.000 A 
ATOM     16  C   UNL     1      -4.450  16.403  21.161  0.00  0.00    +0.000 A 
ATOM     17  C   UNL     1      -3.866  15.221  20.719  0.00  0.00    +0.000 A 
ATOM     18  C   UNL     1      -4.452  13.953  20.996  0.00  0.00    +0.000 A 
BRANCH  13  22
ATOM     19  C   UNL     1      -7.908  10.771  21.275  0.00  0.00    +0.000 C 
ATOM     20  N   UNL     1      -7.297  12.042  20.911  0.00  0.00    +0.000 N 
ATOM     21  C   UNL     1      -7.508  12.490  19.541  0.00  0.00    +0.000 C 
ATOM     22  C   UNL     1      -6.460  12.620  21.880  0.00  0.00    +0.000 C 
ATOM     23  O   UNL     1      -6.290  12.039  22.951  0.00  0.00    +0.000 OA
ENDBRANCH  13  22
BRANCH  15  24
ATOM     24  C   UNL     1      -6.203  17.541  22.426  0.00  0.00    +0.000 C 
ATOM     25  N   UNL     1      -6.680  18.508  22.859  0.00  0.00    +0.000 NA
ENDBRANCH  15  24
ENDBRANCH   1  18
BRANCH   8  26
ATOM     26  C   UNL     1       0.416  13.112  19.168  0.00  0.00    +0.000 A 
ATOM     27  C   UNL     1       1.242  11.991  18.970  0.00  0.00    +0.000 A 
ATOM     28  C   UNL     1       2.527  12.146  18.460  0.00  0.00    +0.000 A 
ATOM     29  C   UNL     1       3.010  13.420  18.166  0.00  0.00    +0.000 A 
ATOM     30  C   UNL     1       2.201  14.551  18.352  0.00  0.00    +0.000 A 
ATOM     31  C   UNL     1       0.892  14.380  18.831  0.00  0.00    +0.000 A 
BRANCH  30  32
ATOM     32  C   UNL     1       2.721  15.940  18.082  0.00  0.00    +0.000 C 
ATOM     33  F   UNL     1       1.750  16.897  18.096  0.00  0.00    +0.000 F 
ATOM     34  F   UNL     1       3.657  16.341  18.984  0.00  0.00    +0.000 F 
ATOM     35  F   UNL     1       3.314  16.036  16.858  0.00  0.00    +0.000 F 
ENDBRANCH  30  32
ENDBRANCH   8  26
TORSDOF 5
ENDMDL
MODEL 5
REMARK VINA RESULT:      -6.8      0.823      1.149
REMARK  Name = 
REMARK  8 active torsions:
REMARK  status: ('A' for Active; 'I' for Inactive)
REMARK    1  A    between atoms: C_1  and  N_2
REMARK    2  A    between atoms: N_2  and  C_3
REMARK    3  A    between atoms: C_4  and  C_6
REMARK    4  A    between atoms: C_8  and  C_9
REMARK    5  A    between atoms: C_13  and  C_14
REMARK    6  A    between atoms: N_21  and  C_22
REMARK    7  A    between atoms: C_26  and  C_27
REMARK    8  A    between atoms: N_34  and  C_35
REMARK                            x       y       z     vdW  Elec       q    Type
REMARK                         _______ _______ _______ _____ _____    ______ ____
ROOT
ATOM      1  C   UNL     1      -1.243  11.335  20.396  0.00  0.00    +0.000 C 
ATOM      2  C   UNL     1      -0.580  10.382  21.313  0.00  0.00    +0.000 C 
ATOM      3  C   UNL     1       0.332   9.485  20.954  0.00  0.00    +0.000 C 
ATOM      4  C   UNL     1       1.120   8.916  22.097  0.00  0.00    +0.000 C 
ATOM      5  C   UNL     1       0.617   9.667  23.324  0.00  0.00    +0.000 C 
ATOM      6  C   UNL     1      -0.519  10.475  22.777  0.00  0.00    +0.000 C 
ATOM      7  O   UNL     1      -1.246  11.178  23.461  0.00  0.00    +0.000 OA
ATOM      8  N   UNL     1       0.641   9.294  19.622  0.00  0.00    +0.000 N 
ATOM      9  C   UNL     1       0.008  10.031  18.594  0.00  0.00    +0.000 C 
ATOM     10  O   UNL     1       0.225   9.824  17.397  0.00  0.00    +0.000 OA
ATOM     11  N   UNL     1      -0.914  11.002  18.996  0.00  0.00    +0.000 N 
ATOM     12  C   UNL     1      -1.735  11.645  17.977  0.00  0.00    +0.000 C 
ENDROOT
BRANCH   1  18
ATOM     13  C   UNL     1      -1.598  13.679  21.473  0.00  0.00    +0.000 A 
ATOM     14  C   UNL     1      -0.968  14.674  22.236  0.00  0.00    +0.000 A 
ATOM     15  C   UNL     1       0.418  14.863  22.208  0.00  0.00    +0.000 A 
ATOM     16  C   UNL     1       1.217  14.036  21.432  0.00  0.00    +0.000 A 
ATOM     17  C   UNL     1       0.630  12.986  20.733  0.00  0.00    +0.000 A 
ATOM     18  C   UNL     1      -0.773  12.749  20.788  0.00  0.00    +0.000 A 
BRANCH  13  22
ATOM     19  C   UNL     1      -5.368  14.358  21.191  0.00  0.00    +0.000 C 
ATOM     20  N   UNL     1      -3.938  14.632  21.157  0.00  0.00    +0.000 N 
ATOM     21  C   UNL     1      -3.543  15.932  20.630  0.00  0.00    +0.000 C 
ATOM     22  C   UNL     1      -3.100  13.561  21.507  0.00  0.00    +0.000 C 
ATOM     23  O   UNL     1      -3.602  12.480  21.811  0.00  0.00    +0.000 OA
ENDBRANCH  13  22
BRANCH  15  24
ATOM     24  C   UNL     1       1.010  15.902  22.995  0.00  0.00    +0.000 C 
ATOM     25  N   UNL     1       1.498  16.738  23.638  0.00  0.00    +0.000 NA
ENDBRANCH  15  24
ENDBRANCH   1  18
BRANCH   8  26
ATOM     26  C   UNL     1       1.610   8.317  19.229  0.00  0.00    +0.000 A 
ATOM     27  C   UNL     1       2.493   8.584  18.168  0.00  0.00    +0.000 A 
ATOM     28  C   UNL     1       3.391   7.612  17.739  0.00  0.00    +0.000 A 
ATOM     29  C   UNL     1       3.401   6.357  18.347  0.00  0.00    +0.000 A 
ATOM     30  C   UNL     1       2.531   6.072  19.411  0.00  0.00    +0.000 A 
ATOM     31  C   UNL     1       1.655   7.073  19.861  0.00  0.00    +0.000 A 
BRANCH  30  32
ATOM     32  C   UNL     1       2.497   4.708  20.051  0.00  0.00    +0.000 C 
ATOM     33  F   UNL     1       1.409   3.968  19.697  0.00  0.00    +0.000 F 
ATOM     34  F   UNL     1       3.583   3.950  19.742  0.00  0.00    +0.000 F 
ATOM     35  F   UNL     1       2.465   4.781  21.412  0.00  0.00    +0.000 F 
ENDBRANCH  30  32
ENDBRANCH   8  26
TORSDOF 5
ENDMDL
MODEL 6
REMARK VINA RESULT:      -6.8      7.520      9.695
REMARK  Name = 
REMARK  8 active torsions:
REMARK  status: ('A' for Active; 'I' for Inactive)
REMARK    1  A    between atoms: C_1  and  N_2
REMARK    2  A    between atoms: N_2  and  C_3
REMARK    3  A    between atoms: C_4  and  C_6
REMARK    4  A    between atoms: C_8  and  C_9
REMARK    5  A    between atoms: C_13  and  C_14
REMARK    6  A    between atoms: N_21  and  C_22
REMARK    7  A    between atoms: C_26  and  C_27
REMARK    8  A    between atoms: N_34  and  C_35
REMARK                            x       y       z     vdW  Elec       q    Type
REMARK                         _______ _______ _______ _____ _____    ______ ____
ROOT
ATOM      1  C   UNL     1       7.175  15.429  24.292  0.00  0.00    +0.000 C 
ATOM      2  C   UNL     1       6.353  15.290  23.069  0.00  0.00    +0.000 C 
ATOM      3  C   UNL     1       6.818  14.954  21.870  0.00  0.00    +0.000 C 
ATOM      4  C   UNL     1       5.762  14.508  20.902  0.00  0.00    +0.000 C 
ATOM      5  C   UNL     1       4.468  14.528  21.708  0.00  0.00    +0.000 C 
ATOM      6  C   UNL     1       4.894  15.136  23.008  0.00  0.00    +0.000 C 
ATOM      7  O   UNL     1       4.128  15.395  23.922  0.00  0.00    +0.000 OA
ATOM      8  N   UNL     1       8.176  14.829  21.655  0.00  0.00    +0.000 N 
ATOM      9  C   UNL     1       9.120  15.054  22.684  0.00  0.00    +0.000 C 
ATOM     10  O   UNL     1      10.338  15.012  22.490  0.00  0.00    +0.000 OA
ATOM     11  N   UNL     1       8.608  15.361  23.948  0.00  0.00    +0.000 N 
ATOM     12  C   UNL     1       9.535  15.794  24.987  0.00  0.00    +0.000 C 
ENDROOT
BRANCH   1  18
ATOM     13  C   UNL     1       6.191  14.559  26.540  0.00  0.00    +0.000 A 
ATOM     14  C   UNL     1       5.370  13.569  27.101  0.00  0.00    +0.000 A 
ATOM     15  C   UNL     1       5.223  12.308  26.513  0.00  0.00    +0.000 A 
ATOM     16  C   UNL     1       5.875  12.014  25.324  0.00  0.00    +0.000 A 
ATOM     17  C   UNL     1       6.626  13.005  24.700  0.00  0.00    +0.000 A 
ATOM     18  C   UNL     1       6.748  14.308  25.258  0.00  0.00    +0.000 A 
BRANCH  13  22
ATOM     19  C   UNL     1       5.579  18.011  28.109  0.00  0.00    +0.000 C 
ATOM     20  N   UNL     1       5.294  16.800  27.353  0.00  0.00    +0.000 N 
ATOM     21  C   UNL     1       3.916  16.621  26.918  0.00  0.00    +0.000 C 
ATOM     22  C   UNL     1       6.349  15.879  27.251  0.00  0.00    +0.000 C 
ATOM     23  O   UNL     1       7.425  16.134  27.791  0.00  0.00    +0.000 OA
ENDBRANCH  13  22
BRANCH  15  24
ATOM     24  C   UNL     1       4.383  11.328  27.132  0.00  0.00    +0.000 C 
ATOM     25  N   UNL     1       3.693  10.538  27.632  0.00  0.00    +0.000 NA
ENDBRANCH  15  24
ENDBRANCH   1  18
BRANCH   8  26
ATOM     26  C   UNL     1       8.683  14.485  20.362  0.00  0.00    +0.000 A 
ATOM     27  C   UNL     1       8.838  15.474  19.376  0.00  0.00    +0.000 A 
ATOM     28  C   UNL     1       9.268  15.132  18.098  0.00  0.00    +0.000 A 
ATOM     29  C   UNL     1       9.522  13.798  17.783  0.00  0.00    +0.000 A 
ATOM     30  C   UNL     1       9.377  12.795  18.754  0.00  0.00    +0.000 A 
ATOM     31  C   UNL     1       8.981  13.156  20.052  0.00  0.00    +0.000 A 
BRANCH  30  32
ATOM     32  C   UNL     1       9.606  11.343  18.421  0.00  0.00    +0.000 C 
ATOM     33  F   UNL     1      10.558  11.147  17.466  0.00  0.00    +0.000 F 
ATOM     34  F   UNL     1       9.996  10.607  19.497  0.00  0.00    +0.000 F 
ATOM     35  F   UNL     1       8.478  10.743  17.945  0.00  0.00    +0.000 F 
ENDBRANCH  30  32
ENDBRANCH   8  26
TORSDOF 5
ENDMDL
MODEL 7
REMARK VINA RESULT:      -6.5      5.531      8.439
REMARK  Name = 
REMARK  8 active torsions:
REMARK  status: ('A' for Active; 'I' for Inactive)
REMARK    1  A    between atoms: C_1  and  N_2
REMARK    2  A    between atoms: N_2  and  C_3
REMARK    3  A    between atoms: C_4  and  C_6
REMARK    4  A    between atoms: C_8  and  C_9
REMARK    5  A    between atoms: C_13  and  C_14
REMARK    6  A    between atoms: N_21  and  C_22
REMARK    7  A    between atoms: C_26  and  C_27
REMARK    8  A    between atoms: N_34  and  C_35
REMARK                            x       y       z     vdW  Elec       q    Type
REMARK                         _______ _______ _______ _____ _____    ______ ____
ROOT
ATOM      1  C   UNL     1       0.040  14.593  21.930  0.00  0.00    +0.000 C 
ATOM      2  C   UNL     1      -0.657  13.573  21.115  0.00  0.00    +0.000 C 
ATOM      3  C   UNL     1      -1.975  13.420  21.047  0.00  0.00    +0.000 C 
ATOM      4  C   UNL     1      -2.441  12.598  19.882  0.00  0.00    +0.000 C 
ATOM      5  C   UNL     1      -1.170  12.276  19.105  0.00  0.00    +0.000 C 
ATOM      6  C   UNL     1      -0.092  12.814  19.993  0.00  0.00    +0.000 C 
ATOM      7  O   UNL     1       1.101  12.696  19.763  0.00  0.00    +0.000 OA
ATOM      8  N   UNL     1      -2.809  14.155  21.866  0.00  0.00    +0.000 N 
ATOM      9  C   UNL     1      -2.306  15.087  22.804  0.00  0.00    +0.000 C 
ATOM     10  O   UNL     1      -3.035  15.701  23.587  0.00  0.00    +0.000 OA
ATOM     11  N   UNL     1      -0.920  15.267  22.825  0.00  0.00    +0.000 N 
ATOM     12  C   UNL     1      -0.339  16.062  23.901  0.00  0.00    +0.000 C 
ENDROOT
BRANCH   1  18
ATOM     13  C   UNL     1       2.127  15.636  20.776  0.00  0.00    +0.000 A 
ATOM     14  C   UNL     1       2.608  16.128  19.553  0.00  0.00    +0.000 A 
ATOM     15  C   UNL     1       1.758  16.692  18.594  0.00  0.00    +0.000 A 
ATOM     16  C   UNL     1       0.391  16.750  18.825  0.00  0.00    +0.000 A 
ATOM     17  C   UNL     1      -0.124  16.191  19.990  0.00  0.00    +0.000 A 
ATOM     18  C   UNL     1       0.720  15.571  20.954  0.00  0.00    +0.000 A 
BRANCH  13  22
ATOM     19  C   UNL     1       4.586  15.236  23.699  0.00  0.00    +0.000 C 
ATOM     20  N   UNL     1       3.703  15.910  22.757  0.00  0.00    +0.000 N 
ATOM     21  C   UNL     1       3.437  17.318  23.017  0.00  0.00    +0.000 C 
ATOM     22  C   UNL     1       3.101  15.091  21.788  0.00  0.00    +0.000 C 
ATOM     23  O   UNL     1       3.341  13.884  21.787  0.00  0.00    +0.000 OA
ENDBRANCH  13  22
BRANCH  15  24
ATOM     24  C   UNL     1       2.301  17.191  17.368  0.00  0.00    +0.000 C 
ATOM     25  N   UNL     1       2.736  17.606  16.373  0.00  0.00    +0.000 NA
ENDBRANCH  15  24
ENDBRANCH   1  18
BRANCH   8  26
ATOM     26  C   UNL     1      -4.228  13.982  21.809  0.00  0.00    +0.000 A 
ATOM     27  C   UNL     1      -4.967  14.537  20.750  0.00  0.00    +0.000 A 
ATOM     28  C   UNL     1      -6.354  14.428  20.727  0.00  0.00    +0.000 A 
ATOM     29  C   UNL     1      -7.019  13.786  21.770  0.00  0.00    +0.000 A 
ATOM     30  C   UNL     1      -6.300  13.221  22.834  0.00  0.00    +0.000 A 
ATOM     31  C   UNL     1      -4.898  13.303  22.829  0.00  0.00    +0.000 A 
BRANCH  30  32
ATOM     32  C   UNL     1      -7.004  12.562  23.993  0.00  0.00    +0.000 C 
ATOM     33  F   UNL     1      -6.162  11.897  24.834  0.00  0.00    +0.000 F 
ATOM     34  F   UNL     1      -7.690  13.444  24.768  0.00  0.00    +0.000 F 
ATOM     35  F   UNL     1      -7.917  11.638  23.579  0.00  0.00    +0.000 F 
ENDBRANCH  30  32
ENDBRANCH   8  26
TORSDOF 5
ENDMDL
MODEL 8
REMARK VINA RESULT:      -6.5      1.710      2.198
REMARK  Name = 
REMARK  8 active torsions:
REMARK  status: ('A' for Active; 'I' for Inactive)
REMARK    1  A    between atoms: C_1  and  N_2
REMARK    2  A    between atoms: N_2  and  C_3
REMARK    3  A    between atoms: C_4  and  C_6
REMARK    4  A    between atoms: C_8  and  C_9
REMARK    5  A    between atoms: C_13  and  C_14
REMARK    6  A    between atoms: N_21  and  C_22
REMARK    7  A    between atoms: C_26  and  C_27
REMARK    8  A    between atoms: N_34  and  C_35
REMARK                            x       y       z     vdW  Elec       q    Type
REMARK                         _______ _______ _______ _____ _____    ______ ____
ROOT
ATOM      1  C   UNL     1      -0.537  10.647  20.075  0.00  0.00    +0.000 C 
ATOM      2  C   UNL     1       0.133   9.786  21.075  0.00  0.00    +0.000 C 
ATOM      3  C   UNL     1       1.008   8.827  20.793  0.00  0.00    +0.000 C 
ATOM      4  C   UNL     1       1.821   8.369  21.968  0.00  0.00    +0.000 C 
ATOM      5  C   UNL     1       1.382   9.272  23.115  0.00  0.00    +0.000 C 
ATOM      6  C   UNL     1       0.249  10.046  22.515  0.00  0.00    +0.000 C 
ATOM      7  O   UNL     1      -0.433  10.844  23.136  0.00  0.00    +0.000 OA
ATOM      8  N   UNL     1       1.264   8.474  19.483  0.00  0.00    +0.000 N 
ATOM      9  C   UNL     1       0.613   9.106  18.397  0.00  0.00    +0.000 C 
ATOM     10  O   UNL     1       0.782   8.757  17.226  0.00  0.00    +0.000 OA
ATOM     11  N   UNL     1      -0.267  10.144  18.714  0.00  0.00    +0.000 N 
ATOM     12  C   UNL     1      -1.107  10.691  17.654  0.00  0.00    +0.000 C 
ENDROOT
BRANCH   1  18
ATOM     13  C   UNL     1      -0.803  13.117  20.854  0.00  0.00    +0.000 A 
ATOM     14  C   UNL     1      -0.133  14.178  21.482  0.00  0.00    +0.000 A 
ATOM     15  C   UNL     1       1.259  14.315  21.422  0.00  0.00    +0.000 A 
ATOM     16  C   UNL     1       2.022  13.370  20.751  0.00  0.00    +0.000 A 
ATOM     17  C   UNL     1       1.393  12.262  20.193  0.00  0.00    +0.000 A 
ATOM     18  C   UNL     1      -0.016  12.082  20.285  0.00  0.00    +0.000 A 
BRANCH  13  22
ATOM     19  C   UNL     1      -4.462  13.096  22.023  0.00  0.00    +0.000 C 
ATOM     20  N   UNL     1      -3.009  13.119  22.126  0.00  0.00    +0.000 N 
ATOM     21  C   UNL     1      -2.460  13.346  23.456  0.00  0.00    +0.000 C 
ATOM     22  C   UNL     1      -2.308  13.056  20.911  0.00  0.00    +0.000 C 
ATOM     23  O   UNL     1      -2.937  12.991  19.856  0.00  0.00    +0.000 OA
ENDBRANCH  13  22
BRANCH  15  24
ATOM     24  C   UNL     1       1.893  15.422  22.070  0.00  0.00    +0.000 C 
ATOM     25  N   UNL     1       2.418  16.319  22.591  0.00  0.00    +0.000 NA
ENDBRANCH  15  24
ENDBRANCH   1  18
BRANCH   8  26
ATOM     26  C   UNL     1       2.192   7.430  19.175  0.00  0.00    +0.000 A 
ATOM     27  C   UNL     1       2.249   6.275  19.974  0.00  0.00    +0.000 A 
ATOM     28  C   UNL     1       3.195   5.288  19.717  0.00  0.00    +0.000 A 
ATOM     29  C   UNL     1       4.108   5.453  18.677  0.00  0.00    +0.000 A 
ATOM     30  C   UNL     1       4.066   6.597  17.865  0.00  0.00    +0.000 A 
ATOM     31  C   UNL     1       3.082   7.569  18.109  0.00  0.00    +0.000 A 
BRANCH  30  32
ATOM     32  C   UNL     1       5.072   6.814  16.764  0.00  0.00    +0.000 C 
ATOM     33  F   UNL     1       4.546   7.402  15.653  0.00  0.00    +0.000 F 
ATOM     34  F   UNL     1       6.115   7.599  17.146  0.00  0.00    +0.000 F 
ATOM     35  F   UNL     1       5.622   5.643  16.334  0.00  0.00    +0.000 F 
ENDBRANCH  30  32
ENDBRANCH   8  26
TORSDOF 5
ENDMDL
MODEL 9
REMARK VINA RESULT:      -6.5      2.065      3.953
REMARK  Name = 
REMARK  8 active torsions:
REMARK  status: ('A' for Active; 'I' for Inactive)
REMARK    1  A    between atoms: C_1  and  N_2
REMARK    2  A    between atoms: N_2  and  C_3
REMARK    3  A    between atoms: C_4  and  C_6
REMARK    4  A    between atoms: C_8  and  C_9
REMARK    5  A    between atoms: C_13  and  C_14
REMARK    6  A    between atoms: N_21  and  C_22
REMARK    7  A    between atoms: C_26  and  C_27
REMARK    8  A    between atoms: N_34  and  C_35
REMARK                            x       y       z     vdW  Elec       q    Type
REMARK                         _______ _______ _______ _____ _____    ______ ____
ROOT
ATOM      1  C   UNL     1      -0.976  13.466  20.469  0.00  0.00    +0.000 C 
ATOM      2  C   UNL     1      -1.467  12.429  19.535  0.00  0.00    +0.000 C 
ATOM      3  C   UNL     1      -0.788  11.346  19.171  0.00  0.00    +0.000 C 
ATOM      4  C   UNL     1      -1.627  10.276  18.539  0.00  0.00    +0.000 C 
ATOM      5  C   UNL     1      -3.053  10.811  18.613  0.00  0.00    +0.000 C 
ATOM      6  C   UNL     1      -2.860  12.200  19.135  0.00  0.00    +0.000 C 
ATOM      7  O   UNL     1      -3.767  13.005  19.278  0.00  0.00    +0.000 OA
ATOM      8  N   UNL     1       0.526  11.178  19.562  0.00  0.00    +0.000 N 
ATOM      9  C   UNL     1       1.200  12.138  20.353  0.00  0.00    +0.000 C 
ATOM     10  O   UNL     1       2.392  12.033  20.654  0.00  0.00    +0.000 OA
ATOM     11  N   UNL     1       0.453  13.246  20.764  0.00  0.00    +0.000 N 
ATOM     12  C   UNL     1       1.150  14.353  21.408  0.00  0.00    +0.000 C 
ENDROOT
BRANCH   1  18
ATOM     13  C   UNL     1      -2.819  14.384  22.063  0.00  0.00    +0.000 A 
ATOM     14  C   UNL     1      -3.894  14.000  22.879  0.00  0.00    +0.000 A 
ATOM     15  C   UNL     1      -3.950  12.742  23.489  0.00  0.00    +0.000 A 
ATOM     16  C   UNL     1      -2.937  11.818  23.272  0.00  0.00    +0.000 A 
ATOM     17  C   UNL     1      -1.903  12.139  22.399  0.00  0.00    +0.000 A 
ATOM     18  C   UNL     1      -1.854  13.396  21.733  0.00  0.00    +0.000 A 
BRANCH  13  22
ATOM     19  C   UNL     1      -2.081  18.087  21.362  0.00  0.00    +0.000 C 
ATOM     20  N   UNL     1      -2.049  16.812  22.063  0.00  0.00    +0.000 N 
ATOM     21  C   UNL     1      -1.143  16.722  23.200  0.00  0.00    +0.000 C 
ATOM     22  C   UNL     1      -2.793  15.773  21.479  0.00  0.00    +0.000 C 
ATOM     23  O   UNL     1      -3.409  15.988  20.436  0.00  0.00    +0.000 OA
ENDBRANCH  13  22
BRANCH  15  24
ATOM     24  C   UNL     1      -5.063  12.405  24.322  0.00  0.00    +0.000 C 
ATOM     25  N   UNL     1      -5.961  12.123  25.005  0.00  0.00    +0.000 NA
ENDBRANCH  15  24
ENDBRANCH   1  18
BRANCH   8  26
ATOM     26  C   UNL     1       1.267  10.023  19.159  0.00  0.00    +0.000 A 
ATOM     27  C   UNL     1       1.921  10.001  17.914  0.00  0.00    +0.000 A 
ATOM     28  C   UNL     1       2.587   8.855  17.490  0.00  0.00    +0.000 A 
ATOM     29  C   UNL     1       2.586   7.713  18.290  0.00  0.00    +0.000 A 
ATOM     30  C   UNL     1       1.943   7.716  19.537  0.00  0.00    +0.000 A 
ATOM     31  C   UNL     1       1.306   8.890  19.973  0.00  0.00    +0.000 A 
BRANCH  30  32
ATOM     32  C   UNL     1       1.894   6.478  20.396  0.00  0.00    +0.000 C 
ATOM     33  F   UNL     1       1.053   5.518  19.918  0.00  0.00    +0.000 F 
ATOM     34  F   UNL     1       3.108   5.880  20.534  0.00  0.00    +0.000 F 
ATOM     35  F   UNL     1       1.463   6.749  21.660  0.00  0.00    +0.000 F 
ENDBRANCH  30  32
ENDBRANCH   8  26
TORSDOF 5
ENDMDL
