MODEL 1
REMARK VINA RESULT:      -7.2      0.000      0.000
REMARK  Name = 
REMARK  4 active torsions:
REMARK  status: ('A' for Active; 'I' for Inactive)
REMARK    1  A    between atoms: C_2  and  C_3
REMARK    2  A    between atoms: C_3  and  C_4
REMARK    3  A    between atoms: C_4  and  O_5
REMARK    4  A    between atoms: C_8  and  N_9
REMARK                            x       y       z     vdW  Elec       q    Type
REMARK                         _______ _______ _______ _____ _____    ______ ____
ROOT
ATOM      1  C   UNL     1       2.521   4.066  19.516  0.00  0.00    +0.000 C 
ATOM      2  C   UNL     1       2.308   5.541  19.825  0.00  0.00    +0.000 C 
ATOM      3  C   UNL     1       3.382   6.206  19.008  0.00  0.00    +0.000 C 
ATOM      4  C   UNL     1       4.527   5.193  19.034  0.00  0.00    +0.000 C 
ATOM      5  O   UNL     1       3.943   3.900  19.355  0.00  0.00    +0.000 OA
ENDROOT
BRANCH   4   6
ATOM      6  N   UNL     1       5.295   5.177  17.784  0.00  0.00    +0.000 N 
ATOM      7  C   UNL     1       4.715   5.416  16.557  0.00  0.00    +0.000 A 
ATOM      8  C   UNL     1       5.433   5.417  15.436  0.00  0.00    +0.000 A 
ATOM      9  C   UNL     1       6.877   5.158  15.590  0.00  0.00    +0.000 A 
ATOM     10  N   UNL     1       7.694   5.181  14.493  0.00  0.00    +0.000 N 
ATOM     11  N   UNL     1       7.428   4.897  16.733  0.00  0.00    +0.000 NA
ATOM     12  C   UNL     1       6.665   4.882  17.878  0.00  0.00    +0.000 A 
ATOM     13  O   UNL     1       7.185   4.631  18.965  0.00  0.00    +0.000 OA
ATOM     14  H   UNL     1       7.290   4.996  13.584  0.00  0.00    +0.000 HD
ATOM     15  H   UNL     1       8.592   4.733  14.651  0.00  0.00    +0.000 HD
ENDBRANCH   4   6
BRANCH   1  17
ATOM     16  C   UNL     1       1.430   2.474  21.578  0.00  0.00    +0.000 C 
ATOM     17  C   UNL     1       1.933   3.209  20.626  0.00  0.00    +0.000 C 
ENDBRANCH   1  17
BRANCH   1  18
ATOM     18  C   UNL     1       1.784   3.659  18.201  0.00  0.00    +0.000 C 
BRANCH  18  19
ATOM     19  O   UNL     1       1.752   2.238  17.993  0.00  0.00    +0.000 OA
ATOM     20  H   UNL     1       2.661   1.906  18.100  0.00  0.00    +0.000 HD
ENDBRANCH  18  19
ENDBRANCH   1  18
TORSDOF 4
ENDMDL
MODEL 2
REMARK VINA RESULT:      -7.1      1.738      2.208
REMARK  Name = 
REMARK  4 active torsions:
REMARK  status: ('A' for Active; 'I' for Inactive)
REMARK    1  A    between atoms: C_2  and  C_3
REMARK    2  A    between atoms: C_3  and  C_4
REMARK    3  A    between atoms: C_4  and  O_5
REMARK    4  A    between atoms: C_8  and  N_9
REMARK                            x       y       z     vdW  Elec       q    Type
REMARK                         _______ _______ _______ _____ _____    ______ ____
ROOT
ATOM      1  C   UNL     1       2.818   3.060  19.362  0.00  0.00    +0.000 C 
ATOM      2  C   UNL     1       1.653   3.029  18.383  0.00  0.00    +0.000 C 
ATOM      3  C   UNL     1       2.248   3.641  17.145  0.00  0.00    +0.000 C 
ATOM      4  C   UNL     1       3.241   4.665  17.695  0.00  0.00    +0.000 C 
ATOM      5  O   UNL     1       3.553   4.262  19.058  0.00  0.00    +0.000 OA
ENDROOT
BRANCH   4   6
ATOM      6  N   UNL     1       4.435   4.800  16.854  0.00  0.00    +0.000 N 
ATOM      7  C   UNL     1       5.046   3.718  16.256  0.00  0.00    +0.000 A 
ATOM      8  C   UNL     1       6.117   3.866  15.479  0.00  0.00    +0.000 A 
ATOM      9  C   UNL     1       6.599   5.247  15.293  0.00  0.00    +0.000 A 
ATOM     10  N   UNL     1       7.671   5.491  14.479  0.00  0.00    +0.000 N 
ATOM     11  N   UNL     1       6.057   6.268  15.879  0.00  0.00    +0.000 NA
ATOM     12  C   UNL     1       4.961   6.093  16.693  0.00  0.00    +0.000 A 
ATOM     13  O   UNL     1       4.446   7.060  17.253  0.00  0.00    +0.000 OA
ATOM     14  H   UNL     1       8.339   4.747  14.321  0.00  0.00    +0.000 HD
ATOM     15  H   UNL     1       8.089   6.404  14.626  0.00  0.00    +0.000 HD
ENDBRANCH   4   6
BRANCH   1  17
ATOM     16  C   UNL     1       1.861   2.969  22.017  0.00  0.00    +0.000 C 
ATOM     17  C   UNL     1       2.303   3.011  20.791  0.00  0.00    +0.000 C 
ENDBRANCH   1  17
BRANCH   1  18
ATOM     18  C   UNL     1       3.738   1.812  19.176  0.00  0.00    +0.000 C 
BRANCH  18  19
ATOM     19  O   UNL     1       5.067   2.015  19.679  0.00  0.00    +0.000 OA
ATOM     20  H   UNL     1       5.081   1.706  20.603  0.00  0.00    +0.000 HD
ENDBRANCH  18  19
ENDBRANCH   1  18
TORSDOF 4
ENDMDL
MODEL 3
REMARK VINA RESULT:      -7.1      1.124      1.179
REMARK  Name = 
REMARK  4 active torsions:
REMARK  status: ('A' for Active; 'I' for Inactive)
REMARK    1  A    between atoms: C_2  and  C_3
REMARK    2  A    between atoms: C_3  and  C_4
REMARK    3  A    between atoms: C_4  and  O_5
REMARK    4  A    between atoms: C_8  and  N_9
REMARK                            x       y       z     vdW  Elec       q    Type
REMARK                         _______ _______ _______ _____ _____    ______ ____
ROOT
ATOM      1  C   UNL     1       2.897   4.218  19.074  0.00  0.00    +0.000 C 
ATOM      2  C   UNL     1       3.622   5.184  20.000  0.00  0.00    +0.000 C 
ATOM      3  C   UNL     1       4.875   5.500  19.228  0.00  0.00    +0.000 C 
ATOM      4  C   UNL     1       5.174   4.197  18.486  0.00  0.00    +0.000 C 
ATOM      5  O   UNL     1       3.928   3.449  18.425  0.00  0.00    +0.000 OA
ENDROOT
BRANCH   4   6
ATOM      6  N   UNL     1       5.767   4.425  17.164  0.00  0.00    +0.000 N 
ATOM      7  C   UNL     1       5.007   4.520  16.018  0.00  0.00    +0.000 A 
ATOM      8  C   UNL     1       5.564   4.747  14.831  0.00  0.00    +0.000 A 
ATOM      9  C   UNL     1       7.031   4.900  14.820  0.00  0.00    +0.000 A 
ATOM     10  N   UNL     1       7.680   5.175  13.647  0.00  0.00    +0.000 N 
ATOM     11  N   UNL     1       7.760   4.777  15.884  0.00  0.00    +0.000 NA
ATOM     12  C   UNL     1       7.168   4.523  17.100  0.00  0.00    +0.000 A 
ATOM     13  O   UNL     1       7.857   4.403  18.112  0.00  0.00    +0.000 OA
ATOM     14  H   UNL     1       7.241   4.905  12.776  0.00  0.00    +0.000 HD
ATOM     15  H   UNL     1       8.678   4.993  13.687  0.00  0.00    +0.000 HD
ENDBRANCH   4   6
BRANCH   1  17
ATOM     16  C   UNL     1       1.078   2.640  20.548  0.00  0.00    +0.000 C 
ATOM     17  C   UNL     1       1.918   3.368  19.867  0.00  0.00    +0.000 C 
ENDBRANCH   1  17
BRANCH   1  18
ATOM     18  C   UNL     1       2.056   4.990  18.009  0.00  0.00    +0.000 C 
BRANCH  18  19
ATOM     19  O   UNL     1       1.133   4.145  17.303  0.00  0.00    +0.000 OA
ATOM     20  H   UNL     1       1.509   3.247  17.291  0.00  0.00    +0.000 HD
ENDBRANCH  18  19
ENDBRANCH   1  18
TORSDOF 4
ENDMDL
MODEL 4
REMARK VINA RESULT:      -6.9      1.004      1.004
REMARK  Name = 
REMARK  4 active torsions:
REMARK  status: ('A' for Active; 'I' for Inactive)
REMARK    1  A    between atoms: C_2  and  C_3
REMARK    2  A    between atoms: C_3  and  C_4
REMARK    3  A    between atoms: C_4  and  O_5
REMARK    4  A    between atoms: C_8  and  N_9
REMARK                            x       y       z     vdW  Elec       q    Type
REMARK                         _______ _______ _______ _____ _____    ______ ____
ROOT
ATOM      1  C   UNL     1       2.822   4.099  19.199  0.00  0.00    +0.000 C 
ATOM      2  C   UNL     1       2.378   5.555  19.231  0.00  0.00    +0.000 C 
ATOM      3  C   UNL     1       3.350   6.215  18.292  0.00  0.00    +0.000 C 
ATOM      4  C   UNL     1       4.638   5.415  18.491  0.00  0.00    +0.000 C 
ATOM      5  O   UNL     1       4.255   4.129  19.054  0.00  0.00    +0.000 OA
ENDROOT
BRANCH   4   6
ATOM      6  N   UNL     1       5.419   5.287  17.256  0.00  0.00    +0.000 N 
ATOM      7  C   UNL     1       4.989   4.537  16.183  0.00  0.00    +0.000 A 
ATOM      8  C   UNL     1       5.704   4.450  15.063  0.00  0.00    +0.000 A 
ATOM      9  C   UNL     1       6.969   5.209  15.040  0.00  0.00    +0.000 A 
ATOM     10  N   UNL     1       7.744   5.206  13.914  0.00  0.00    +0.000 N 
ATOM     11  N   UNL     1       7.402   5.888  16.055  0.00  0.00    +0.000 NA
ATOM     12  C   UNL     1       6.657   5.950  17.211  0.00  0.00    +0.000 A 
ATOM     13  O   UNL     1       7.067   6.592  18.178  0.00  0.00    +0.000 OA
ATOM     14  H   UNL     1       7.666   4.427  13.273  0.00  0.00    +0.000 HD
ATOM     15  H   UNL     1       8.697   5.517  14.080  0.00  0.00    +0.000 HD
ENDBRANCH   4   6
BRANCH   1  17
ATOM     16  C   UNL     1       1.957   2.766  21.534  0.00  0.00    +0.000 C 
ATOM     17  C   UNL     1       2.357   3.382  20.455  0.00  0.00    +0.000 C 
ENDBRANCH   1  17
BRANCH   1  18
ATOM     18  C   UNL     1       2.179   3.346  17.991  0.00  0.00    +0.000 C 
BRANCH  18  19
ATOM     19  O   UNL     1       1.018   4.011  17.471  0.00  0.00    +0.000 OA
ATOM     20  H   UNL     1       1.029   3.906  16.503  0.00  0.00    +0.000 HD
ENDBRANCH  18  19
ENDBRANCH   1  18
TORSDOF 4
ENDMDL
MODEL 5
REMARK VINA RESULT:      -6.9      2.493      5.819
REMARK  Name = 
REMARK  4 active torsions:
REMARK  status: ('A' for Active; 'I' for Inactive)
REMARK    1  A    between atoms: C_2  and  C_3
REMARK    2  A    between atoms: C_3  and  C_4
REMARK    3  A    between atoms: C_4  and  O_5
REMARK    4  A    between atoms: C_8  and  N_9
REMARK                            x       y       z     vdW  Elec       q    Type
REMARK                         _______ _______ _______ _____ _____    ______ ____
ROOT
ATOM      1  C   UNL     1       5.118   5.002  16.795  0.00  0.00    +0.000 C 
ATOM      2  C   UNL     1       4.618   6.438  16.859  0.00  0.00    +0.000 C 
ATOM      3  C   UNL     1       3.530   6.360  17.895  0.00  0.00    +0.000 C 
ATOM      4  C   UNL     1       2.945   4.961  17.693  0.00  0.00    +0.000 C 
ATOM      5  O   UNL     1       3.960   4.173  17.010  0.00  0.00    +0.000 OA
ENDROOT
BRANCH   4   6
ATOM      6  N   UNL     1       2.498   4.351  18.949  0.00  0.00    +0.000 N 
ATOM      7  C   UNL     1       2.859   4.848  20.183  0.00  0.00    +0.000 A 
ATOM      8  C   UNL     1       2.426   4.291  21.312  0.00  0.00    +0.000 A 
ATOM      9  C   UNL     1       1.537   3.124  21.161  0.00  0.00    +0.000 A 
ATOM     10  N   UNL     1       1.015   2.517  22.270  0.00  0.00    +0.000 N 
ATOM     11  N   UNL     1       1.220   2.625  20.008  0.00  0.00    +0.000 NA
ATOM     12  C   UNL     1       1.692   3.204  18.852  0.00  0.00    +0.000 A 
ATOM     13  O   UNL     1       1.396   2.730  17.756  0.00  0.00    +0.000 OA
ATOM     14  H   UNL     1       1.509   2.605  23.148  0.00  0.00    +0.000 HD
ATOM     15  H   UNL     1       0.652   1.586  22.085  0.00  0.00    +0.000 HD
ENDBRANCH   4   6
BRANCH   1  17
ATOM     16  C   UNL     1       6.394   4.527  14.321  0.00  0.00    +0.000 C 
ATOM     17  C   UNL     1       5.805   4.746  15.463  0.00  0.00    +0.000 C 
ENDBRANCH   1  17
BRANCH   1  18
ATOM     18  C   UNL     1       6.182   4.731  17.905  0.00  0.00    +0.000 C 
BRANCH  18  19
ATOM     19  O   UNL     1       5.860   3.597  18.725  0.00  0.00    +0.000 OA
ATOM     20  H   UNL     1       6.696   3.241  19.075  0.00  0.00    +0.000 HD
ENDBRANCH  18  19
ENDBRANCH   1  18
TORSDOF 4
ENDMDL
MODEL 6
REMARK VINA RESULT:      -6.7      1.398      1.483
REMARK  Name = 
REMARK  4 active torsions:
REMARK  status: ('A' for Active; 'I' for Inactive)
REMARK    1  A    between atoms: C_2  and  C_3
REMARK    2  A    between atoms: C_3  and  C_4
REMARK    3  A    between atoms: C_4  and  O_5
REMARK    4  A    between atoms: C_8  and  N_9
REMARK                            x       y       z     vdW  Elec       q    Type
REMARK                         _______ _______ _______ _____ _____    ______ ____
ROOT
ATOM      1  C   UNL     1       2.550   3.473  19.300  0.00  0.00    +0.000 C 
ATOM      2  C   UNL     1       1.581   4.552  18.836  0.00  0.00    +0.000 C 
ATOM      3  C   UNL     1       2.386   5.292  17.802  0.00  0.00    +0.000 C 
ATOM      4  C   UNL     1       3.817   5.202  18.334  0.00  0.00    +0.000 C 
ATOM      5  O   UNL     1       3.859   4.073  19.251  0.00  0.00    +0.000 OA
ENDROOT
BRANCH   4   6
ATOM      6  N   UNL     1       4.812   5.102  17.261  0.00  0.00    +0.000 N 
ATOM      7  C   UNL     1       5.074   3.919  16.603  0.00  0.00    +0.000 A 
ATOM      8  C   UNL     1       5.966   3.854  15.617  0.00  0.00    +0.000 A 
ATOM      9  C   UNL     1       6.644   5.117  15.270  0.00  0.00    +0.000 A 
ATOM     10  N   UNL     1       7.547   5.146  14.243  0.00  0.00    +0.000 N 
ATOM     11  N   UNL     1       6.434   6.227  15.906  0.00  0.00    +0.000 NA
ATOM     12  C   UNL     1       5.521   6.270  16.934  0.00  0.00    +0.000 A 
ATOM     13  O   UNL     1       5.321   7.322  17.541  0.00  0.00    +0.000 OA
ATOM     14  H   UNL     1       8.019   4.288  13.988  0.00  0.00    +0.000 HD
ATOM     15  H   UNL     1       8.147   5.965  14.258  0.00  0.00    +0.000 HD
ENDBRANCH   4   6
BRANCH   1  17
ATOM     16  C   UNL     1       1.829   2.563  21.875  0.00  0.00    +0.000 C 
ATOM     17  C   UNL     1       2.162   2.983  20.686  0.00  0.00    +0.000 C 
ENDBRANCH   1  17
BRANCH   1  18
ATOM     18  C   UNL     1       2.496   2.231  18.357  0.00  0.00    +0.000 C 
BRANCH  18  19
ATOM     19  O   UNL     1       1.284   1.473  18.496  0.00  0.00    +0.000 OA
ATOM     20  H   UNL     1       0.576   2.096  18.737  0.00  0.00    +0.000 HD
ENDBRANCH  18  19
ENDBRANCH   1  18
TORSDOF 4
ENDMDL
MODEL 7
REMARK VINA RESULT:      -6.7      2.712      5.498
REMARK  Name = 
REMARK  4 active torsions:
REMARK  status: ('A' for Active; 'I' for Inactive)
REMARK    1  A    between atoms: C_2  and  C_3
REMARK    2  A    between atoms: C_3  and  C_4
REMARK    3  A    between atoms: C_4  and  O_5
REMARK    4  A    between atoms: C_8  and  N_9
REMARK                            x       y       z     vdW  Elec       q    Type
REMARK                         _______ _______ _______ _____ _____    ______ ____
ROOT
ATOM      1  C   UNL     1       6.278   6.344  17.213  0.00  0.00    +0.000 C 
ATOM      2  C   UNL     1       6.933   5.281  16.342  0.00  0.00    +0.000 C 
ATOM      3  C   UNL     1       6.049   4.084  16.567  0.00  0.00    +0.000 C 
ATOM      4  C   UNL     1       5.596   4.243  18.019  0.00  0.00    +0.000 C 
ATOM      5  O   UNL     1       5.762   5.647  18.363  0.00  0.00    +0.000 OA
ENDROOT
BRANCH   4   6
ATOM      6  N   UNL     1       4.229   3.760  18.238  0.00  0.00    +0.000 N 
ATOM      7  C   UNL     1       3.161   4.192  17.481  0.00  0.00    +0.000 A 
ATOM      8  C   UNL     1       1.931   3.726  17.684  0.00  0.00    +0.000 A 
ATOM      9  C   UNL     1       1.785   2.719  18.752  0.00  0.00    +0.000 A 
ATOM     10  N   UNL     1       0.562   2.159  18.999  0.00  0.00    +0.000 N 
ATOM     11  N   UNL     1       2.774   2.332  19.494  0.00  0.00    +0.000 NA
ATOM     12  C   UNL     1       4.035   2.840  19.282  0.00  0.00    +0.000 A 
ATOM     13  O   UNL     1       4.976   2.476  19.987  0.00  0.00    +0.000 OA
ATOM     14  H   UNL     1      -0.269   2.676  18.740  0.00  0.00    +0.000 HD
ATOM     15  H   UNL     1       0.504   1.700  19.903  0.00  0.00    +0.000 HD
ENDBRANCH   4   6
BRANCH   1  17
ATOM     16  C   UNL     1       8.150   8.355  17.865  0.00  0.00    +0.000 C 
ATOM     17  C   UNL     1       7.285   7.427  17.564  0.00  0.00    +0.000 C 
ENDBRANCH   1  17
BRANCH   1  18
ATOM     18  C   UNL     1       5.112   7.050  16.450  0.00  0.00    +0.000 C 
BRANCH  18  19
ATOM     19  O   UNL     1       5.215   6.917  15.023  0.00  0.00    +0.000 OA
ATOM     20  H   UNL     1       4.805   7.705  14.625  0.00  0.00    +0.000 HD
ENDBRANCH  18  19
ENDBRANCH   1  18
TORSDOF 4
ENDMDL
MODEL 8
REMARK VINA RESULT:      -6.6      2.423      5.923
REMARK  Name = 
REMARK  4 active torsions:
REMARK  status: ('A' for Active; 'I' for Inactive)
REMARK    1  A    between atoms: C_2  and  C_3
REMARK    2  A    between atoms: C_3  and  C_4
REMARK    3  A    between atoms: C_4  and  O_5
REMARK    4  A    between atoms: C_8  and  N_9
REMARK                            x       y       z     vdW  Elec       q    Type
REMARK                         _______ _______ _______ _____ _____    ______ ____
ROOT
ATOM      1  C   UNL     1       5.808   4.936  16.351  0.00  0.00    +0.000 C 
ATOM      2  C   UNL     1       5.082   6.275  16.357  0.00  0.00    +0.000 C 
ATOM      3  C   UNL     1       3.979   6.045  17.354  0.00  0.00    +0.000 C 
ATOM      4  C   UNL     1       3.635   4.567  17.171  0.00  0.00    +0.000 C 
ATOM      5  O   UNL     1       4.789   3.937  16.548  0.00  0.00    +0.000 OA
ENDROOT
BRANCH   4   6
ATOM      6  N   UNL     1       3.241   3.920  18.427  0.00  0.00    +0.000 N 
ATOM      7  C   UNL     1       4.159   3.525  19.375  0.00  0.00    +0.000 A 
ATOM      8  C   UNL     1       3.779   2.958  20.518  0.00  0.00    +0.000 A 
ATOM      9  C   UNL     1       2.327   2.789  20.708  0.00  0.00    +0.000 A 
ATOM     10  N   UNL     1       1.849   2.251  21.871  0.00  0.00    +0.000 N 
ATOM     11  N   UNL     1       1.455   3.122  19.809  0.00  0.00    +0.000 NA
ATOM     12  C   UNL     1       1.869   3.690  18.626  0.00  0.00    +0.000 A 
ATOM     13  O   UNL     1       1.044   4.005  17.768  0.00  0.00    +0.000 OA
ATOM     14  H   UNL     1       2.454   1.644  22.409  0.00  0.00    +0.000 HD
ATOM     15  H   UNL     1       0.889   1.928  21.801  0.00  0.00    +0.000 HD
ENDBRANCH   4   6
BRANCH   1  17
ATOM     16  C   UNL     1       7.243   4.619  13.940  0.00  0.00    +0.000 C 
ATOM     17  C   UNL     1       6.580   4.765  15.054  0.00  0.00    +0.000 C 
ENDBRANCH   1  17
BRANCH   1  18
ATOM     18  C   UNL     1       6.855   4.865  17.507  0.00  0.00    +0.000 C 
BRANCH  18  19
ATOM     19  O   UNL     1       8.030   4.119  17.152  0.00  0.00    +0.000 OA
ATOM     20  H   UNL     1       8.117   3.389  17.790  0.00  0.00    +0.000 HD
ENDBRANCH  18  19
ENDBRANCH   1  18
TORSDOF 4
ENDMDL
MODEL 9
REMARK VINA RESULT:      -6.1      2.558      5.805
REMARK  Name = 
REMARK  4 active torsions:
REMARK  status: ('A' for Active; 'I' for Inactive)
REMARK    1  A    between atoms: C_2  and  C_3
REMARK    2  A    between atoms: C_3  and  C_4
REMARK    3  A    between atoms: C_4  and  O_5
REMARK    4  A    between atoms: C_8  and  N_9
REMARK                            x       y       z     vdW  Elec       q    Type
REMARK                         _______ _______ _______ _____ _____    ______ ____
ROOT
ATOM      1  C   UNL     1       5.577   4.777  16.203  0.00  0.00    +0.000 C 
ATOM      2  C   UNL     1       5.341   6.271  16.377  0.00  0.00    +0.000 C 
ATOM      3  C   UNL     1       4.381   6.318  17.534  0.00  0.00    +0.000 C 
ATOM      4  C   UNL     1       3.546   5.050  17.356  0.00  0.00    +0.000 C 
ATOM      5  O   UNL     1       4.325   4.142  16.529  0.00  0.00    +0.000 OA
ENDROOT
BRANCH   4   6
ATOM      6  N   UNL     1       3.146   4.455  18.636  0.00  0.00    +0.000 N 
ATOM      7  C   UNL     1       3.411   3.140  18.955  0.00  0.00    +0.000 A 
ATOM      8  C   UNL     1       3.058   2.625  20.131  0.00  0.00    +0.000 A 
ATOM      9  C   UNL     1       2.380   3.543  21.065  0.00  0.00    +0.000 A 
ATOM     10  N   UNL     1       2.019   3.105  22.310  0.00  0.00    +0.000 N 
ATOM     11  N   UNL     1       2.093   4.770  20.763  0.00  0.00    +0.000 NA
ATOM     12  C   UNL     1       2.450   5.279  19.536  0.00  0.00    +0.000 A 
ATOM     13  O   UNL     1       2.176   6.443  19.245  0.00  0.00    +0.000 OA
ATOM     14  H   UNL     1       1.866   2.114  22.449  0.00  0.00    +0.000 HD
ATOM     15  H   UNL     1       1.335   3.702  22.764  0.00  0.00    +0.000 HD
ENDBRANCH   4   6
BRANCH   1  17
ATOM     16  C   UNL     1       6.463   4.231  13.578  0.00  0.00    +0.000 C 
ATOM     17  C   UNL     1       6.054   4.483  14.790  0.00  0.00    +0.000 C 
ENDBRANCH   1  17
BRANCH   1  18
ATOM     18  C   UNL     1       6.698   4.272  17.166  0.00  0.00    +0.000 C 
BRANCH  18  19
ATOM     19  O   UNL     1       8.021   4.534  16.672  0.00  0.00    +0.000 OA
ATOM     20  H   UNL     1       7.929   4.991  15.817  0.00  0.00    +0.000 HD
ENDBRANCH  18  19
ENDBRANCH   1  18
TORSDOF 4
ENDMDL
