MODEL 1
REMARK VINA RESULT:      -8.2      0.000      0.000
REMARK  Name = 
REMARK  6 active torsions:
REMARK  status: ('A' for Active; 'I' for Inactive)
REMARK    1  A    between atoms: N_11  and  C_12
REMARK    2  A    between atoms: C_12  and  C_13
REMARK    3  A    between atoms: C_13  and  C_14
REMARK    4  A    between atoms: C_14  and  C_15
REMARK    5  A    between atoms: C_15  and  S_16
REMARK    6  A    between atoms: S_16  and  N_19
REMARK                            x       y       z     vdW  Elec       q    Type
REMARK                         _______ _______ _______ _____ _____    ______ ____
ROOT
ATOM      1  C   UNL     1       7.939   8.193  17.365  0.00  0.00    +0.000 C 
ENDROOT
BRANCH   1   2
ATOM      2  C   UNL     1       8.069   9.533  18.097  0.00  0.00    +0.000 C 
BRANCH   2   3
ATOM      3  C   UNL     1       9.202   9.549  19.128  0.00  0.00    +0.000 C 
BRANCH   3  14
ATOM      4  O   UNL     1      10.731  11.499  17.500  0.00  0.00    +0.000 OA
ATOM      5  C   UNL     1      10.326  11.714  18.625  0.00  0.00    +0.000 C 
ATOM      6  C   UNL     1      10.539  12.965  19.352  0.00  0.00    +0.000 A 
ATOM      7  C   UNL     1      11.198  14.119  18.976  0.00  0.00    +0.000 A 
ATOM      8  C   UNL     1      11.237  15.164  19.904  0.00  0.00    +0.000 A 
ATOM      9  C   UNL     1      10.629  15.031  21.170  0.00  0.00    +0.000 A 
ATOM     10  C   UNL     1       9.970  13.852  21.529  0.00  0.00    +0.000 A 
ATOM     11  C   UNL     1       9.941  12.835  20.594  0.00  0.00    +0.000 A 
ATOM     12  C   UNL     1       9.342  11.504  20.658  0.00  0.00    +0.000 C 
ATOM     13  O   UNL     1       8.733  11.066  21.615  0.00  0.00    +0.000 OA
ATOM     14  N   UNL     1       9.615  10.897  19.460  0.00  0.00    +0.000 N 
ENDBRANCH   3  14
ENDBRANCH   2   3
ENDBRANCH   1   2
BRANCH   1  15
ATOM     15  C   UNL     1       7.695   7.003  18.298  0.00  0.00    +0.000 C 
BRANCH  15  16
ATOM     16  S   UNL     1       7.284   5.527  17.360  0.00  0.00    +0.000 S 
ATOM     17  O   UNL     1       7.342   5.856  15.953  0.00  0.00    +0.000 OA
ATOM     18  O   UNL     1       8.065   4.440  17.911  0.00  0.00    +0.000 OA
BRANCH  16  19
ATOM     19  N   UNL     1       5.688   5.232  17.742  0.00  0.00    +0.000 NA
ATOM     20  C   UNL     1       4.653   6.231  17.482  0.00  0.00    +0.000 C 
ATOM     21  C   UNL     1       3.375   5.447  17.747  0.00  0.00    +0.000 C 
ATOM     22  C   UNL     1       3.744   4.366  18.782  0.00  0.00    +0.000 C 
ATOM     23  C   UNL     1       3.004   4.517  20.111  0.00  0.00    +0.000 C 
ATOM     24  C   UNL     1       2.579   3.110  20.499  0.00  0.00    +0.000 C 
ATOM     25  O   UNL     1       3.143   2.221  19.537  0.00  0.00    +0.000 OA
ATOM     26  C   UNL     1       3.329   2.969  18.330  0.00  0.00    +0.000 C 
ATOM     27  C   UNL     1       5.284   4.454  18.925  0.00  0.00    +0.000 C 
ENDBRANCH  16  19
ENDBRANCH  15  16
ENDBRANCH   1  15
TORSDOF 6
ENDMDL
MODEL 2
REMARK VINA RESULT:      -8.1      0.923      2.044
REMARK  Name = 
REMARK  6 active torsions:
REMARK  status: ('A' for Active; 'I' for Inactive)
REMARK    1  A    between atoms: N_11  and  C_12
REMARK    2  A    between atoms: C_12  and  C_13
REMARK    3  A    between atoms: C_13  and  C_14
REMARK    4  A    between atoms: C_14  and  C_15
REMARK    5  A    between atoms: C_15  and  S_16
REMARK    6  A    between atoms: S_16  and  N_19
REMARK                            x       y       z     vdW  Elec       q    Type
REMARK                         _______ _______ _______ _____ _____    ______ ____
ROOT
ATOM      1  C   UNL     1       7.887   8.271  17.309  0.00  0.00    +0.000 C 
ENDROOT
BRANCH   1   2
ATOM      2  C   UNL     1       8.052   9.528  18.170  0.00  0.00    +0.000 C 
BRANCH   2   3
ATOM      3  C   UNL     1       9.347   9.533  18.988  0.00  0.00    +0.000 C 
BRANCH   3  14
ATOM      4  O   UNL     1       8.780  10.982  21.512  0.00  0.00    +0.000 OA
ATOM      5  C   UNL     1       9.413  11.445  20.584  0.00  0.00    +0.000 C 
ATOM      6  C   UNL     1       9.984  12.791  20.565  0.00  0.00    +0.000 A 
ATOM      7  C   UNL     1       9.952  13.791  21.517  0.00  0.00    +0.000 A 
ATOM      8  C   UNL     1      10.598  14.991  21.205  0.00  0.00    +0.000 A 
ATOM      9  C   UNL     1      11.248  15.163  19.965  0.00  0.00    +0.000 A 
ATOM     10  C   UNL     1      11.264  14.136  19.016  0.00  0.00    +0.000 A 
ATOM     11  C   UNL     1      10.623  12.959  19.349  0.00  0.00    +0.000 A 
ATOM     12  C   UNL     1      10.465  11.718  18.592  0.00  0.00    +0.000 C 
ATOM     13  O   UNL     1      10.912  11.527  17.478  0.00  0.00    +0.000 OA
ATOM     14  N   UNL     1       9.734  10.872  19.384  0.00  0.00    +0.000 N 
ENDBRANCH   3  14
ENDBRANCH   2   3
ENDBRANCH   1   2
BRANCH   1  15
ATOM     15  C   UNL     1       7.766   6.979  18.123  0.00  0.00    +0.000 C 
BRANCH  15  16
ATOM     16  S   UNL     1       7.105   5.647  17.115  0.00  0.00    +0.000 S 
ATOM     17  O   UNL     1       6.706   6.200  15.841  0.00  0.00    +0.000 OA
ATOM     18  O   UNL     1       8.040   4.545  17.197  0.00  0.00    +0.000 OA
BRANCH  16  19
ATOM     19  N   UNL     1       5.719   5.179  17.916  0.00  0.00    +0.000 NA
ATOM     20  C   UNL     1       5.595   5.337  19.364  0.00  0.00    +0.000 C 
ATOM     21  C   UNL     1       4.122   5.024  19.596  0.00  0.00    +0.000 C 
ATOM     22  C   UNL     1       3.708   4.055  18.472  0.00  0.00    +0.000 C 
ATOM     23  C   UNL     1       3.280   2.679  18.978  0.00  0.00    +0.000 C 
ATOM     24  C   UNL     1       2.041   2.319  18.175  0.00  0.00    +0.000 C 
ATOM     25  O   UNL     1       1.858   3.348  17.203  0.00  0.00    +0.000 OA
ATOM     26  C   UNL     1       2.466   4.534  17.726  0.00  0.00    +0.000 C 
ATOM     27  C   UNL     1       4.927   4.004  17.515  0.00  0.00    +0.000 C 
ENDBRANCH  16  19
ENDBRANCH  15  16
ENDBRANCH   1  15
TORSDOF 6
ENDMDL
MODEL 3
REMARK VINA RESULT:      -7.9      5.902      7.238
REMARK  Name = 
REMARK  6 active torsions:
REMARK  status: ('A' for Active; 'I' for Inactive)
REMARK    1  A    between atoms: N_11  and  C_12
REMARK    2  A    between atoms: C_12  and  C_13
REMARK    3  A    between atoms: C_13  and  C_14
REMARK    4  A    between atoms: C_14  and  C_15
REMARK    5  A    between atoms: C_15  and  S_16
REMARK    6  A    between atoms: S_16  and  N_19
REMARK                            x       y       z     vdW  Elec       q    Type
REMARK                         _______ _______ _______ _____ _____    ______ ____
ROOT
ATOM      1  C   UNL     1       4.262   7.385  17.612  0.00  0.00    +0.000 C 
ENDROOT
BRANCH   1   2
ATOM      2  C   UNL     1       2.814   7.357  18.113  0.00  0.00    +0.000 C 
BRANCH   2   3
ATOM      3  C   UNL     1       2.081   8.687  17.911  0.00  0.00    +0.000 C 
BRANCH   3  14
ATOM      4  O   UNL     1       1.706   7.260  20.483  0.00  0.00    +0.000 OA
ATOM      5  C   UNL     1       1.312   8.388  20.262  0.00  0.00    +0.000 C 
ATOM      6  C   UNL     1       0.585   9.212  21.226  0.00  0.00    +0.000 A 
ATOM      7  C   UNL     1       0.195   8.939  22.523  0.00  0.00    +0.000 A 
ATOM      8  C   UNL     1      -0.501   9.942  23.205  0.00  0.00    +0.000 A 
ATOM      9  C   UNL     1      -0.790  11.174  22.583  0.00  0.00    +0.000 A 
ATOM     10  C   UNL     1      -0.387  11.425  21.268  0.00  0.00    +0.000 A 
ATOM     11  C   UNL     1       0.303  10.422  20.616  0.00  0.00    +0.000 A 
ATOM     12  C   UNL     1       0.854  10.373  19.264  0.00  0.00    +0.000 C 
ATOM     13  O   UNL     1       0.783  11.279  18.456  0.00  0.00    +0.000 OA
ATOM     14  N   UNL     1       1.431   9.138  19.124  0.00  0.00    +0.000 N 
ENDBRANCH   3  14
ENDBRANCH   2   3
ENDBRANCH   1   2
BRANCH   1  15
ATOM     15  C   UNL     1       4.652   6.155  16.787  0.00  0.00    +0.000 C 
BRANCH  15  16
ATOM     16  S   UNL     1       5.628   5.008  17.767  0.00  0.00    +0.000 S 
ATOM     17  O   UNL     1       6.508   4.288  16.875  0.00  0.00    +0.000 OA
ATOM     18  O   UNL     1       6.145   5.748  18.899  0.00  0.00    +0.000 OA
BRANCH  16  19
ATOM     19  N   UNL     1       4.509   3.920  18.356  0.00  0.00    +0.000 NA
ATOM     20  C   UNL     1       3.758   3.049  17.455  0.00  0.00    +0.000 C 
ATOM     21  C   UNL     1       3.076   2.094  18.426  0.00  0.00    +0.000 C 
ATOM     22  C   UNL     1       2.893   2.878  19.740  0.00  0.00    +0.000 C 
ATOM     23  C   UNL     1       1.430   3.083  20.129  0.00  0.00    +0.000 C 
ATOM     24  C   UNL     1       1.367   2.815  21.624  0.00  0.00    +0.000 C 
ATOM     25  O   UNL     1       2.706   2.604  22.069  0.00  0.00    +0.000 OA
ATOM     26  C   UNL     1       3.452   2.126  20.944  0.00  0.00    +0.000 C 
ATOM     27  C   UNL     1       3.662   4.207  19.527  0.00  0.00    +0.000 C 
ENDBRANCH  16  19
ENDBRANCH  15  16
ENDBRANCH   1  15
TORSDOF 6
ENDMDL
MODEL 4
REMARK VINA RESULT:      -7.9      5.973      7.052
REMARK  Name = 
REMARK  6 active torsions:
REMARK  status: ('A' for Active; 'I' for Inactive)
REMARK    1  A    between atoms: N_11  and  C_12
REMARK    2  A    between atoms: C_12  and  C_13
REMARK    3  A    between atoms: C_13  and  C_14
REMARK    4  A    between atoms: C_14  and  C_15
REMARK    5  A    between atoms: C_15  and  S_16
REMARK    6  A    between atoms: S_16  and  N_19
REMARK                            x       y       z     vdW  Elec       q    Type
REMARK                         _______ _______ _______ _____ _____    ______ ____
ROOT
ATOM      1  C   UNL     1       4.438   6.980  17.109  0.00  0.00    +0.000 C 
ENDROOT
BRANCH   1   2
ATOM      2  C   UNL     1       3.447   7.996  17.689  0.00  0.00    +0.000 C 
BRANCH   2   3
ATOM      3  C   UNL     1       2.182   7.347  18.258  0.00  0.00    +0.000 C 
BRANCH   3  14
ATOM      4  O   UNL     1       1.240  10.152  18.078  0.00  0.00    +0.000 OA
ATOM      5  C   UNL     1       1.160   9.466  19.078  0.00  0.00    +0.000 C 
ATOM      6  C   UNL     1       0.597   9.920  20.347  0.00  0.00    +0.000 A 
ATOM      7  C   UNL     1       0.057  11.142  20.702  0.00  0.00    +0.000 A 
ATOM      8  C   UNL     1      -0.406  11.279  22.014  0.00  0.00    +0.000 A 
ATOM      9  C   UNL     1      -0.317  10.209  22.929  0.00  0.00    +0.000 A 
ATOM     10  C   UNL     1       0.236   8.983  22.547  0.00  0.00    +0.000 A 
ATOM     11  C   UNL     1       0.683   8.870  21.245  0.00  0.00    +0.000 A 
ATOM     12  C   UNL     1       1.296   7.743  20.547  0.00  0.00    +0.000 C 
ATOM     13  O   UNL     1       1.516   6.657  21.048  0.00  0.00    +0.000 OA
ATOM     14  N   UNL     1       1.557   8.171  19.271  0.00  0.00    +0.000 N 
ENDBRANCH   3  14
ENDBRANCH   2   3
ENDBRANCH   1   2
BRANCH   1  15
ATOM     15  C   UNL     1       5.277   6.264  18.171  0.00  0.00    +0.000 C 
BRANCH  15  16
ATOM     16  S   UNL     1       5.730   4.614  17.625  0.00  0.00    +0.000 S 
ATOM     17  O   UNL     1       5.557   4.550  16.191  0.00  0.00    +0.000 OA
ATOM     18  O   UNL     1       6.998   4.292  18.244  0.00  0.00    +0.000 OA
BRANCH  16  19
ATOM     19  N   UNL     1       4.578   3.625  18.315  0.00  0.00    +0.000 NA
ATOM     20  C   UNL     1       3.875   2.619  17.522  0.00  0.00    +0.000 C 
ATOM     21  C   UNL     1       3.139   1.823  18.592  0.00  0.00    +0.000 C 
ATOM     22  C   UNL     1       2.885   2.803  19.754  0.00  0.00    +0.000 C 
ATOM     23  C   UNL     1       1.403   3.057  20.025  0.00  0.00    +0.000 C 
ATOM     24  C   UNL     1       1.257   3.027  21.538  0.00  0.00    +0.000 C 
ATOM     25  O   UNL     1       2.569   2.895  22.083  0.00  0.00    +0.000 OA
ATOM     26  C   UNL     1       3.375   2.252  21.090  0.00  0.00    +0.000 C 
ATOM     27  C   UNL     1       3.668   4.086  19.378  0.00  0.00    +0.000 C 
ENDBRANCH  16  19
ENDBRANCH  15  16
ENDBRANCH   1  15
TORSDOF 6
ENDMDL
MODEL 5
REMARK VINA RESULT:      -7.9      1.626      2.086
REMARK  Name = 
REMARK  6 active torsions:
REMARK  status: ('A' for Active; 'I' for Inactive)
REMARK    1  A    between atoms: N_11  and  C_12
REMARK    2  A    between atoms: C_12  and  C_13
REMARK    3  A    between atoms: C_13  and  C_14
REMARK    4  A    between atoms: C_14  and  C_15
REMARK    5  A    between atoms: C_15  and  S_16
REMARK    6  A    between atoms: S_16  and  N_19
REMARK                            x       y       z     vdW  Elec       q    Type
REMARK                         _______ _______ _______ _____ _____    ______ ____
ROOT
ATOM      1  C   UNL     1       7.733   8.396  17.657  0.00  0.00    +0.000 C 
ENDROOT
BRANCH   1   2
ATOM      2  C   UNL     1       8.459   9.402  18.558  0.00  0.00    +0.000 C 
BRANCH   2   3
ATOM      3  C   UNL     1       9.443  10.293  17.795  0.00  0.00    +0.000 C 
BRANCH   3  14
ATOM      4  O   UNL     1      11.150  11.562  19.861  0.00  0.00    +0.000 OA
ATOM      5  C   UNL     1      10.272  12.138  19.250  0.00  0.00    +0.000 C 
ATOM      6  C   UNL     1       9.915  13.542  19.446  0.00  0.00    +0.000 A 
ATOM      7  C   UNL     1      10.443  14.489  20.303  0.00  0.00    +0.000 A 
ATOM      8  C   UNL     1       9.882  15.769  20.263  0.00  0.00    +0.000 A 
ATOM      9  C   UNL     1       8.820  16.068  19.384  0.00  0.00    +0.000 A 
ATOM     10  C   UNL     1       8.301  15.091  18.529  0.00  0.00    +0.000 A 
ATOM     11  C   UNL     1       8.874  13.836  18.583  0.00  0.00    +0.000 A 
ATOM     12  C   UNL     1       8.569  12.620  17.831  0.00  0.00    +0.000 C 
ATOM     13  O   UNL     1       7.703  12.533  16.982  0.00  0.00    +0.000 OA
ATOM     14  N   UNL     1       9.432  11.657  18.284  0.00  0.00    +0.000 N 
ENDBRANCH   3  14
ENDBRANCH   2   3
ENDBRANCH   1   2
BRANCH   1  15
ATOM     15  C   UNL     1       7.777   6.957  18.181  0.00  0.00    +0.000 C 
BRANCH  15  16
ATOM     16  S   UNL     1       6.980   5.832  17.030  0.00  0.00    +0.000 S 
ATOM     17  O   UNL     1       6.509   6.601  15.900  0.00  0.00    +0.000 OA
ATOM     18  O   UNL     1       7.868   4.703  16.853  0.00  0.00    +0.000 OA
BRANCH  16  19
ATOM     19  N   UNL     1       5.640   5.283  17.857  0.00  0.00    +0.000 NA
ATOM     20  C   UNL     1       5.577   5.345  19.315  0.00  0.00    +0.000 C 
ATOM     21  C   UNL     1       4.123   4.984  19.590  0.00  0.00    +0.000 C 
ATOM     22  C   UNL     1       3.680   4.079  18.424  0.00  0.00    +0.000 C 
ATOM     23  C   UNL     1       3.303   2.664  18.859  0.00  0.00    +0.000 C 
ATOM     24  C   UNL     1       2.037   2.327  18.087  0.00  0.00    +0.000 C 
ATOM     25  O   UNL     1       1.791   3.410  17.192  0.00  0.00    +0.000 OA
ATOM     26  C   UNL     1       2.396   4.574  17.764  0.00  0.00    +0.000 C 
ATOM     27  C   UNL     1       4.856   4.117  17.415  0.00  0.00    +0.000 C 
ENDBRANCH  16  19
ENDBRANCH  15  16
ENDBRANCH   1  15
TORSDOF 6
ENDMDL
MODEL 6
REMARK VINA RESULT:      -7.9      6.120      7.530
REMARK  Name = 
REMARK  6 active torsions:
REMARK  status: ('A' for Active; 'I' for Inactive)
REMARK    1  A    between atoms: N_11  and  C_12
REMARK    2  A    between atoms: C_12  and  C_13
REMARK    3  A    between atoms: C_13  and  C_14
REMARK    4  A    between atoms: C_14  and  C_15
REMARK    5  A    between atoms: C_15  and  S_16
REMARK    6  A    between atoms: S_16  and  N_19
REMARK                            x       y       z     vdW  Elec       q    Type
REMARK                         _______ _______ _______ _____ _____    ______ ____
ROOT
ATOM      1  C   UNL     1       1.769   3.499  19.799  0.00  0.00    +0.000 C 
ENDROOT
BRANCH   1   2
ATOM      2  C   UNL     1       1.011   4.750  20.255  0.00  0.00    +0.000 C 
BRANCH   2   3
ATOM      3  C   UNL     1       1.913   5.791  20.923  0.00  0.00    +0.000 C 
BRANCH   3  14
ATOM      4  O   UNL     1       2.760   6.830  18.279  0.00  0.00    +0.000 OA
ATOM      5  C   UNL     1       2.170   7.485  19.115  0.00  0.00    +0.000 C 
ATOM      6  C   UNL     1       1.795   8.888  18.949  0.00  0.00    +0.000 A 
ATOM      7  C   UNL     1       1.999   9.751  17.889  0.00  0.00    +0.000 A 
ATOM      8  C   UNL     1       1.520  11.057  18.027  0.00  0.00    +0.000 A 
ATOM      9  C   UNL     1       0.862  11.466  19.206  0.00  0.00    +0.000 A 
ATOM     10  C   UNL     1       0.669  10.575  20.266  0.00  0.00    +0.000 A 
ATOM     11  C   UNL     1       1.147   9.289  20.104  0.00  0.00    +0.000 A 
ATOM     12  C   UNL     1       1.103   8.140  21.006  0.00  0.00    +0.000 C 
ATOM     13  O   UNL     1       0.598   8.150  22.113  0.00  0.00    +0.000 OA
ATOM     14  N   UNL     1       1.733   7.112  20.356  0.00  0.00    +0.000 N 
ENDBRANCH   3  14
ENDBRANCH   2   3
ENDBRANCH   1   2
BRANCH   1  15
ATOM     15  C   UNL     1       2.934   3.116  20.717  0.00  0.00    +0.000 C 
BRANCH  15  16
ATOM     16  S   UNL     1       4.229   2.281  19.795  0.00  0.00    +0.000 S 
ATOM     17  O   UNL     1       5.187   1.752  20.740  0.00  0.00    +0.000 OA
ATOM     18  O   UNL     1       3.580   1.426  18.824  0.00  0.00    +0.000 OA
BRANCH  16  19
ATOM     19  N   UNL     1       4.982   3.506  18.950  0.00  0.00    +0.000 NA
ATOM     20  C   UNL     1       5.162   4.830  19.541  0.00  0.00    +0.000 C 
ATOM     21  C   UNL     1       6.087   5.507  18.538  0.00  0.00    +0.000 C 
ATOM     22  C   UNL     1       5.794   4.849  17.175  0.00  0.00    +0.000 C 
ATOM     23  C   UNL     1       5.232   5.820  16.137  0.00  0.00    +0.000 C 
ATOM     24  C   UNL     1       5.959   5.493  14.842  0.00  0.00    +0.000 C 
ATOM     25  O   UNL     1       6.771   4.348  15.095  0.00  0.00    +0.000 OA
ATOM     26  C   UNL     1       7.061   4.338  16.497  0.00  0.00    +0.000 C 
ATOM     27  C   UNL     1       4.838   3.672  17.493  0.00  0.00    +0.000 C 
ENDBRANCH  16  19
ENDBRANCH  15  16
ENDBRANCH   1  15
TORSDOF 6
ENDMDL
MODEL 7
REMARK VINA RESULT:      -7.9      1.146      1.510
REMARK  Name = 
REMARK  6 active torsions:
REMARK  status: ('A' for Active; 'I' for Inactive)
REMARK    1  A    between atoms: N_11  and  C_12
REMARK    2  A    between atoms: C_12  and  C_13
REMARK    3  A    between atoms: C_13  and  C_14
REMARK    4  A    between atoms: C_14  and  C_15
REMARK    5  A    between atoms: C_15  and  S_16
REMARK    6  A    between atoms: S_16  and  N_19
REMARK                            x       y       z     vdW  Elec       q    Type
REMARK                         _______ _______ _______ _____ _____    ______ ____
ROOT
ATOM      1  C   UNL     1       7.916   8.071  17.759  0.00  0.00    +0.000 C 
ENDROOT
BRANCH   1   2
ATOM      2  C   UNL     1       8.302   9.513  18.104  0.00  0.00    +0.000 C 
BRANCH   2   3
ATOM      3  C   UNL     1       9.307   9.609  19.255  0.00  0.00    +0.000 C 
BRANCH   3  14
ATOM      4  O   UNL     1      10.920  11.410  17.537  0.00  0.00    +0.000 OA
ATOM      5  C   UNL     1      10.479  11.717  18.627  0.00  0.00    +0.000 C 
ATOM      6  C   UNL     1      10.683  13.017  19.263  0.00  0.00    +0.000 A 
ATOM      7  C   UNL     1      11.371  14.131  18.822  0.00  0.00    +0.000 A 
ATOM      8  C   UNL     1      11.393  15.244  19.668  0.00  0.00    +0.000 A 
ATOM      9  C   UNL     1      10.739  15.217  20.918  0.00  0.00    +0.000 A 
ATOM     10  C   UNL     1      10.052  14.076  21.343  0.00  0.00    +0.000 A 
ATOM     11  C   UNL     1      10.041  12.990  20.488  0.00  0.00    +0.000 A 
ATOM     12  C   UNL     1       9.422  11.675  20.633  0.00  0.00    +0.000 C 
ATOM     13  O   UNL     1       8.774  11.319  21.599  0.00  0.00    +0.000 OA
ATOM     14  N   UNL     1       9.728  10.974  19.496  0.00  0.00    +0.000 N 
ENDBRANCH   3  14
ENDBRANCH   2   3
ENDBRANCH   1   2
BRANCH   1  15
ATOM     15  C   UNL     1       6.439   7.900  17.390  0.00  0.00    +0.000 C 
BRANCH  15  16
ATOM     16  S   UNL     1       6.193   6.423  16.398  0.00  0.00    +0.000 S 
ATOM     17  O   UNL     1       5.325   6.761  15.293  0.00  0.00    +0.000 OA
ATOM     18  O   UNL     1       7.498   5.835  16.176  0.00  0.00    +0.000 OA
BRANCH  16  19
ATOM     19  N   UNL     1       5.351   5.392  17.403  0.00  0.00    +0.000 NA
ATOM     20  C   UNL     1       5.956   4.871  18.627  0.00  0.00    +0.000 C 
ATOM     21  C   UNL     1       4.770   4.208  19.315  0.00  0.00    +0.000 C 
ATOM     22  C   UNL     1       3.812   3.772  18.190  0.00  0.00    +0.000 C 
ATOM     23  C   UNL     1       3.616   2.258  18.108  0.00  0.00    +0.000 C 
ATOM     24  C   UNL     1       2.126   2.054  17.886  0.00  0.00    +0.000 C 
ATOM     25  O   UNL     1       1.545   3.348  17.726  0.00  0.00    +0.000 OA
ATOM     26  C   UNL     1       2.390   4.277  18.413  0.00  0.00    +0.000 C 
ATOM     27  C   UNL     1       4.406   4.383  16.895  0.00  0.00    +0.000 C 
ENDBRANCH  16  19
ENDBRANCH  15  16
ENDBRANCH   1  15
TORSDOF 6
ENDMDL
MODEL 8
REMARK VINA RESULT:      -7.8      1.533      1.812
REMARK  Name = 
REMARK  6 active torsions:
REMARK  status: ('A' for Active; 'I' for Inactive)
REMARK    1  A    between atoms: N_11  and  C_12
REMARK    2  A    between atoms: C_12  and  C_13
REMARK    3  A    between atoms: C_13  and  C_14
REMARK    4  A    between atoms: C_14  and  C_15
REMARK    5  A    between atoms: C_15  and  S_16
REMARK    6  A    between atoms: S_16  and  N_19
REMARK                            x       y       z     vdW  Elec       q    Type
REMARK                         _______ _______ _______ _____ _____    ______ ____
ROOT
ATOM      1  C   UNL     1       7.783   8.317  17.559  0.00  0.00    +0.000 C 
ENDROOT
BRANCH   1   2
ATOM      2  C   UNL     1       8.924   9.225  18.029  0.00  0.00    +0.000 C 
BRANCH   2   3
ATOM      3  C   UNL     1       8.460  10.333  18.979  0.00  0.00    +0.000 C 
BRANCH   3  14
ATOM      4  O   UNL     1       8.070  12.676  17.203  0.00  0.00    +0.000 OA
ATOM      5  C   UNL     1       8.989  12.558  17.989  0.00  0.00    +0.000 C 
ATOM      6  C   UNL     1      10.049  13.548  18.173  0.00  0.00    +0.000 A 
ATOM      7  C   UNL     1      10.255  14.765  17.553  0.00  0.00    +0.000 A 
ATOM      8  C   UNL     1      11.378  15.499  17.945  0.00  0.00    +0.000 A 
ATOM      9  C   UNL     1      12.258  15.006  18.931  0.00  0.00    +0.000 A 
ATOM     10  C   UNL     1      12.029  13.770  19.542  0.00  0.00    +0.000 A 
ATOM     11  C   UNL     1      10.911  13.064  19.141  0.00  0.00    +0.000 A 
ATOM     12  C   UNL     1      10.400  11.768  19.580  0.00  0.00    +0.000 C 
ATOM     13  O   UNL     1      10.922  11.070  20.429  0.00  0.00    +0.000 OA
ATOM     14  N   UNL     1       9.264  11.531  18.851  0.00  0.00    +0.000 N 
ENDBRANCH   3  14
ENDBRANCH   2   3
ENDBRANCH   1   2
BRANCH   1  15
ATOM     15  C   UNL     1       7.778   6.938  18.226  0.00  0.00    +0.000 C 
BRANCH  15  16
ATOM     16  S   UNL     1       7.070   5.700  17.135  0.00  0.00    +0.000 S 
ATOM     17  O   UNL     1       6.670   6.355  15.909  0.00  0.00    +0.000 OA
ATOM     18  O   UNL     1       7.978   4.573  17.123  0.00  0.00    +0.000 OA
BRANCH  16  19
ATOM     19  N   UNL     1       5.682   5.210  17.919  0.00  0.00    +0.000 NA
ATOM     20  C   UNL     1       5.551   5.335  19.369  0.00  0.00    +0.000 C 
ATOM     21  C   UNL     1       4.079   5.012  19.588  0.00  0.00    +0.000 C 
ATOM     22  C   UNL     1       3.674   4.066  18.440  0.00  0.00    +0.000 C 
ATOM     23  C   UNL     1       3.249   2.677  18.915  0.00  0.00    +0.000 C 
ATOM     24  C   UNL     1       2.015   2.330  18.098  0.00  0.00    +0.000 C 
ATOM     25  O   UNL     1       1.832   3.379  17.148  0.00  0.00    +0.000 OA
ATOM     26  C   UNL     1       2.433   4.556  17.700  0.00  0.00    +0.000 C 
ATOM     27  C   UNL     1       4.897   4.041  17.489  0.00  0.00    +0.000 C 
ENDBRANCH  16  19
ENDBRANCH  15  16
ENDBRANCH   1  15
TORSDOF 6
ENDMDL
MODEL 9
REMARK VINA RESULT:      -7.8      1.396      1.719
REMARK  Name = 
REMARK  6 active torsions:
REMARK  status: ('A' for Active; 'I' for Inactive)
REMARK    1  A    between atoms: N_11  and  C_12
REMARK    2  A    between atoms: C_12  and  C_13
REMARK    3  A    between atoms: C_13  and  C_14
REMARK    4  A    between atoms: C_14  and  C_15
REMARK    5  A    between atoms: C_15  and  S_16
REMARK    6  A    between atoms: S_16  and  N_19
REMARK                            x       y       z     vdW  Elec       q    Type
REMARK                         _______ _______ _______ _____ _____    ______ ____
ROOT
ATOM      1  C   UNL     1       7.792   8.234  17.732  0.00  0.00    +0.000 C 
ENDROOT
BRANCH   1   2
ATOM      2  C   UNL     1       8.540   9.291  18.553  0.00  0.00    +0.000 C 
BRANCH   2   3
ATOM      3  C   UNL     1       9.297  10.302  17.687  0.00  0.00    +0.000 C 
BRANCH   3  14
ATOM      4  O   UNL     1      10.951  11.382  19.899  0.00  0.00    +0.000 OA
ATOM      5  C   UNL     1      10.107  12.019  19.299  0.00  0.00    +0.000 C 
ATOM      6  C   UNL     1       9.772  13.414  19.583  0.00  0.00    +0.000 A 
ATOM      7  C   UNL     1      10.286  14.285  20.524  0.00  0.00    +0.000 A 
ATOM      8  C   UNL     1       9.752  15.577  20.556  0.00  0.00    +0.000 A 
ATOM      9  C   UNL     1       8.730  15.961  19.663  0.00  0.00    +0.000 A 
ATOM     10  C   UNL     1       8.225  15.060  18.721  0.00  0.00    +0.000 A 
ATOM     11  C   UNL     1       8.770  13.791  18.706  0.00  0.00    +0.000 A 
ATOM     12  C   UNL     1       8.469  12.640  17.858  0.00  0.00    +0.000 C 
ATOM     13  O   UNL     1       7.634  12.632  16.974  0.00  0.00    +0.000 OA
ATOM     14  N   UNL     1       9.295  11.627  18.271  0.00  0.00    +0.000 N 
ENDBRANCH   3  14
ENDBRANCH   2   3
ENDBRANCH   1   2
BRANCH   1  15
ATOM     15  C   UNL     1       7.825   6.835  18.353  0.00  0.00    +0.000 C 
BRANCH  15  16
ATOM     16  S   UNL     1       7.307   5.593  17.164  0.00  0.00    +0.000 S 
ATOM     17  O   UNL     1       7.296   6.201  15.852  0.00  0.00    +0.000 OA
ATOM     18  O   UNL     1       8.079   4.398  17.431  0.00  0.00    +0.000 OA
BRANCH  16  19
ATOM     19  N   UNL     1       5.726   5.264  17.579  0.00  0.00    +0.000 NA
ATOM     20  C   UNL     1       4.687   6.285  17.459  0.00  0.00    +0.000 C 
ATOM     21  C   UNL     1       3.416   5.480  17.698  0.00  0.00    +0.000 C 
ATOM     22  C   UNL     1       3.820   4.303  18.607  0.00  0.00    +0.000 C 
ATOM     23  C   UNL     1       3.135   4.325  19.973  0.00  0.00    +0.000 C 
ATOM     24  C   UNL     1       2.719   2.887  20.239  0.00  0.00    +0.000 C 
ATOM     25  O   UNL     1       3.239   2.095  19.173  0.00  0.00    +0.000 OA
ATOM     26  C   UNL     1       3.381   2.957  18.039  0.00  0.00    +0.000 C 
ATOM     27  C   UNL     1       5.366   4.375  18.696  0.00  0.00    +0.000 C 
ENDBRANCH  16  19
ENDBRANCH  15  16
ENDBRANCH   1  15
TORSDOF 6
ENDMDL
