MODEL 1
REMARK VINA RESULT:      -7.4      0.000      0.000
REMARK  Name = 
REMARK  9 active torsions:
REMARK  status: ('A' for Active; 'I' for Inactive)
REMARK    1  A    between atoms: C_1  and  C_2
REMARK    2  A    between atoms: C_2  and  C_3
REMARK    3  A    between atoms: C_2  and  O_4
REMARK    4  A    between atoms: O_4  and  C_5
REMARK    5  A    between atoms: C_5  and  C_6
REMARK    6  A    between atoms: C_6  and  C_7
REMARK    7  A    between atoms: C_7  and  N_8
REMARK    8  A    between atoms: C_9  and  C_11
REMARK    9  A    between atoms: C_12  and  N_13
REMARK                            x       y       z     vdW  Elec       q    Type
REMARK                         _______ _______ _______ _____ _____    ______ ____
ROOT
ATOM      1  C   UNL     1       3.763   5.284  17.981  0.00  0.00    +0.000 A 
ATOM      2  C   UNL     1       4.502   4.398  17.208  0.00  0.00    +0.000 A 
ATOM      3  S   UNL     1       4.079   2.770  17.458  0.00  0.00    +0.000 S 
ATOM      4  C   UNL     1       2.948   3.187  18.651  0.00  0.00    +0.000 A 
ATOM      5  C   UNL     1       2.823   4.558  18.821  0.00  0.00    +0.000 A 
ATOM      6  C   UNL     1       1.737   5.120  19.699  0.00  0.00    +0.000 C 
ATOM      7  C   UNL     1       1.236   4.093  20.723  0.00  0.00    +0.000 C 
ATOM      8  C   UNL     1       0.932   2.746  20.061  0.00  0.00    +0.000 C 
ATOM      9  C   UNL     1       2.176   2.140  19.395  0.00  0.00    +0.000 C 
ENDROOT
BRANCH   2  10
ATOM     10  N   UNL     1       5.532   4.677  16.306  0.00  0.00    +0.000 N 
ATOM     11  C   UNL     1       5.510   5.034  14.980  0.00  0.00    +0.000 A 
ATOM     12  N   UNL     1       6.741   5.160  14.539  0.00  0.00    +0.000 NA
ATOM     13  N   UNL     1       7.547   4.891  15.613  0.00  0.00    +0.000 NA
ATOM     14  N   UNL     1       6.828   4.648  16.701  0.00  0.00    +0.000 NA
ENDBRANCH   2  10
BRANCH   1  16
ATOM     15  N   UNL     1       2.648   7.407  17.917  0.00  0.00    +0.000 N 
ATOM     16  C   UNL     1       3.840   6.732  17.811  0.00  0.00    +0.000 C 
ATOM     17  O   UNL     1       4.916   7.292  17.625  0.00  0.00    +0.000 OA
ATOM     18  H   UNL     1       1.876   6.927  18.360  0.00  0.00    +0.000 HD
BRANCH  15  19
ATOM     19  C   UNL     1       2.585   8.851  17.815  0.00  0.00    +0.000 C 
BRANCH  19  20
ATOM     20  C   UNL     1       1.152   9.380  17.860  0.00  0.00    +0.000 C 
BRANCH  20  21
ATOM     21  C   UNL     1       0.749   9.814  19.260  0.00  0.00    +0.000 C 
BRANCH  21  22
ATOM     22  O   UNL     1      -0.658  10.035  19.285  0.00  0.00    +0.000 OA
BRANCH  22  24
ATOM     23  C   UNL     1      -2.519   9.945  17.811  0.00  0.00    +0.000 C 
ATOM     24  C   UNL     1      -1.182  10.627  18.094  0.00  0.00    +0.000 C 
ATOM     25  C   UNL     1      -1.386  12.130  18.255  0.00  0.00    +0.000 C 
ENDBRANCH  22  24
ENDBRANCH  21  22
ENDBRANCH  20  21
ENDBRANCH  19  20
ENDBRANCH  15  19
ENDBRANCH   1  16
TORSDOF 7
ENDMDL
MODEL 2
REMARK VINA RESULT:      -7.3      3.208      6.743
REMARK  Name = 
REMARK  9 active torsions:
REMARK  status: ('A' for Active; 'I' for Inactive)
REMARK    1  A    between atoms: C_1  and  C_2
REMARK    2  A    between atoms: C_2  and  C_3
REMARK    3  A    between atoms: C_2  and  O_4
REMARK    4  A    between atoms: O_4  and  C_5
REMARK    5  A    between atoms: C_5  and  C_6
REMARK    6  A    between atoms: C_6  and  C_7
REMARK    7  A    between atoms: C_7  and  N_8
REMARK    8  A    between atoms: C_9  and  C_11
REMARK    9  A    between atoms: C_12  and  N_13
REMARK                            x       y       z     vdW  Elec       q    Type
REMARK                         _______ _______ _______ _____ _____    ______ ____
ROOT
ATOM      1  C   UNL     1       2.249   6.192  18.989  0.00  0.00    +0.000 A 
ATOM      2  C   UNL     1       1.747   5.801  20.223  0.00  0.00    +0.000 A 
ATOM      3  S   UNL     1       1.073   7.084  21.112  0.00  0.00    +0.000 S 
ATOM      4  C   UNL     1       1.487   8.210  19.915  0.00  0.00    +0.000 A 
ATOM      5  C   UNL     1       2.070   7.623  18.801  0.00  0.00    +0.000 A 
ATOM      6  C   UNL     1       2.334   8.437  17.561  0.00  0.00    +0.000 C 
ATOM      7  C   UNL     1       2.417   9.939  17.867  0.00  0.00    +0.000 C 
ATOM      8  C   UNL     1       1.243  10.399  18.733  0.00  0.00    +0.000 C 
ATOM      9  C   UNL     1       1.207   9.672  20.086  0.00  0.00    +0.000 C 
ENDROOT
BRANCH   2  10
ATOM     10  N   UNL     1       1.758   4.532  20.808  0.00  0.00    +0.000 N 
ATOM     11  C   UNL     1       0.943   3.442  20.632  0.00  0.00    +0.000 A 
ATOM     12  N   UNL     1       1.326   2.474  21.433  0.00  0.00    +0.000 NA
ATOM     13  N   UNL     1       2.410   2.964  22.111  0.00  0.00    +0.000 NA
ATOM     14  N   UNL     1       2.714   4.190  21.705  0.00  0.00    +0.000 NA
ENDBRANCH   2  10
BRANCH   1  16
ATOM     15  N   UNL     1       4.076   5.239  17.761  0.00  0.00    +0.000 N 
ATOM     16  C   UNL     1       2.722   5.236  17.992  0.00  0.00    +0.000 C 
ATOM     17  O   UNL     1       1.948   4.462  17.437  0.00  0.00    +0.000 OA
ATOM     18  H   UNL     1       4.668   5.678  18.454  0.00  0.00    +0.000 HD
BRANCH  15  19
ATOM     19  C   UNL     1       4.688   4.312  16.831  0.00  0.00    +0.000 C 
BRANCH  19  20
ATOM     20  C   UNL     1       5.424   5.020  15.694  0.00  0.00    +0.000 C 
BRANCH  20  21
ATOM     21  C   UNL     1       6.690   5.708  16.177  0.00  0.00    +0.000 C 
BRANCH  21  22
ATOM     22  O   UNL     1       6.353   7.005  16.659  0.00  0.00    +0.000 OA
BRANCH  22  24
ATOM     23  C   UNL     1       7.663   6.106  18.424  0.00  0.00    +0.000 C 
ATOM     24  C   UNL     1       7.010   7.371  17.874  0.00  0.00    +0.000 C 
ATOM     25  C   UNL     1       8.067   8.445  17.640  0.00  0.00    +0.000 C 
ENDBRANCH  22  24
ENDBRANCH  21  22
ENDBRANCH  20  21
ENDBRANCH  19  20
ENDBRANCH  15  19
ENDBRANCH   1  16
TORSDOF 7
ENDMDL
MODEL 3
REMARK VINA RESULT:      -7.3      1.238      1.652
REMARK  Name = 
REMARK  9 active torsions:
REMARK  status: ('A' for Active; 'I' for Inactive)
REMARK    1  A    between atoms: C_1  and  C_2
REMARK    2  A    between atoms: C_2  and  C_3
REMARK    3  A    between atoms: C_2  and  O_4
REMARK    4  A    between atoms: O_4  and  C_5
REMARK    5  A    between atoms: C_5  and  C_6
REMARK    6  A    between atoms: C_6  and  C_7
REMARK    7  A    between atoms: C_7  and  N_8
REMARK    8  A    between atoms: C_9  and  C_11
REMARK    9  A    between atoms: C_12  and  N_13
REMARK                            x       y       z     vdW  Elec       q    Type
REMARK                         _______ _______ _______ _____ _____    ______ ____
ROOT
ATOM      1  C   UNL     1       3.759   5.356  17.989  0.00  0.00    +0.000 A 
ATOM      2  C   UNL     1       4.543   4.491  17.236  0.00  0.00    +0.000 A 
ATOM      3  S   UNL     1       4.169   2.852  17.489  0.00  0.00    +0.000 S 
ATOM      4  C   UNL     1       3.002   3.237  18.656  0.00  0.00    +0.000 A 
ATOM      5  C   UNL     1       2.828   4.604  18.816  0.00  0.00    +0.000 A 
ATOM      6  C   UNL     1       1.706   5.135  19.669  0.00  0.00    +0.000 C 
ATOM      7  C   UNL     1       1.219   4.097  20.689  0.00  0.00    +0.000 C 
ATOM      8  C   UNL     1       0.973   2.738  20.030  0.00  0.00    +0.000 C 
ATOM      9  C   UNL     1       2.250   2.169  19.392  0.00  0.00    +0.000 C 
ENDROOT
BRANCH   2  10
ATOM     10  N   UNL     1       5.580   4.799  16.353  0.00  0.00    +0.000 N 
ATOM     11  C   UNL     1       6.940   4.871  16.534  0.00  0.00    +0.000 A 
ATOM     12  N   UNL     1       7.513   5.233  15.410  0.00  0.00    +0.000 NA
ATOM     13  N   UNL     1       6.495   5.374  14.505  0.00  0.00    +0.000 NA
ATOM     14  N   UNL     1       5.326   5.063  15.049  0.00  0.00    +0.000 NA
ENDBRANCH   2  10
BRANCH   1  16
ATOM     15  N   UNL     1       2.581   7.445  17.923  0.00  0.00    +0.000 N 
ATOM     16  C   UNL     1       3.791   6.805  17.812  0.00  0.00    +0.000 C 
ATOM     17  O   UNL     1       4.848   7.396  17.615  0.00  0.00    +0.000 OA
ATOM     18  H   UNL     1       1.826   6.944  18.374  0.00  0.00    +0.000 HD
BRANCH  15  19
ATOM     19  C   UNL     1       2.473   8.885  17.814  0.00  0.00    +0.000 C 
BRANCH  19  20
ATOM     20  C   UNL     1       1.028   9.374  17.902  0.00  0.00    +0.000 C 
BRANCH  20  21
ATOM     21  C   UNL     1       0.868  10.500  18.909  0.00  0.00    +0.000 C 
BRANCH  21  22
ATOM     22  O   UNL     1       0.993   9.963  20.223  0.00  0.00    +0.000 OA
BRANCH  22  24
ATOM     23  C   UNL     1      -0.238   8.571  21.703  0.00  0.00    +0.000 C 
ATOM     24  C   UNL     1      -0.234   9.901  20.954  0.00  0.00    +0.000 C 
ATOM     25  C   UNL     1      -0.360  11.058  21.939  0.00  0.00    +0.000 C 
ENDBRANCH  22  24
ENDBRANCH  21  22
ENDBRANCH  20  21
ENDBRANCH  19  20
ENDBRANCH  15  19
ENDBRANCH   1  16
TORSDOF 7
ENDMDL
MODEL 4
REMARK VINA RESULT:      -7.1      1.284      1.763
REMARK  Name = 
REMARK  9 active torsions:
REMARK  status: ('A' for Active; 'I' for Inactive)
REMARK    1  A    between atoms: C_1  and  C_2
REMARK    2  A    between atoms: C_2  and  C_3
REMARK    3  A    between atoms: C_2  and  O_4
REMARK    4  A    between atoms: O_4  and  C_5
REMARK    5  A    between atoms: C_5  and  C_6
REMARK    6  A    between atoms: C_6  and  C_7
REMARK    7  A    between atoms: C_7  and  N_8
REMARK    8  A    between atoms: C_9  and  C_11
REMARK    9  A    between atoms: C_12  and  N_13
REMARK                            x       y       z     vdW  Elec       q    Type
REMARK                         _______ _______ _______ _____ _____    ______ ____
ROOT
ATOM      1  C   UNL     1       3.763   5.348  17.944  0.00  0.00    +0.000 A 
ATOM      2  C   UNL     1       4.511   4.456  17.186  0.00  0.00    +0.000 A 
ATOM      3  S   UNL     1       4.095   2.829  17.457  0.00  0.00    +0.000 S 
ATOM      4  C   UNL     1       2.956   3.256  18.638  0.00  0.00    +0.000 A 
ATOM      5  C   UNL     1       2.824   4.628  18.790  0.00  0.00    +0.000 A 
ATOM      6  C   UNL     1       1.730   5.197  19.655  0.00  0.00    +0.000 C 
ATOM      7  C   UNL     1       1.229   4.180  20.690  0.00  0.00    +0.000 C 
ATOM      8  C   UNL     1       0.935   2.824  20.045  0.00  0.00    +0.000 C 
ATOM      9  C   UNL     1       2.186   2.215  19.393  0.00  0.00    +0.000 C 
ENDROOT
BRANCH   2  10
ATOM     10  N   UNL     1       5.543   4.727  16.285  0.00  0.00    +0.000 N 
ATOM     11  C   UNL     1       5.525   5.120  14.970  0.00  0.00    +0.000 A 
ATOM     12  N   UNL     1       6.756   5.221  14.524  0.00  0.00    +0.000 NA
ATOM     13  N   UNL     1       7.560   4.900  15.586  0.00  0.00    +0.000 NA
ATOM     14  N   UNL     1       6.840   4.650  16.672  0.00  0.00    +0.000 NA
ENDBRANCH   2  10
BRANCH   1  16
ATOM     15  N   UNL     1       2.632   7.458  17.792  0.00  0.00    +0.000 N 
ATOM     16  C   UNL     1       3.834   6.794  17.755  0.00  0.00    +0.000 C 
ATOM     17  O   UNL     1       4.912   7.363  17.613  0.00  0.00    +0.000 OA
ATOM     18  H   UNL     1       1.843   6.976  18.204  0.00  0.00    +0.000 HD
BRANCH  15  19
ATOM     19  C   UNL     1       2.558   8.899  17.664  0.00  0.00    +0.000 C 
BRANCH  19  20
ATOM     20  C   UNL     1       1.287   9.479  18.282  0.00  0.00    +0.000 C 
BRANCH  20  21
ATOM     21  C   UNL     1       1.087   9.015  19.715  0.00  0.00    +0.000 C 
BRANCH  21  22
ATOM     22  O   UNL     1       0.114   9.849  20.336  0.00  0.00    +0.000 OA
BRANCH  22  24
ATOM     23  C   UNL     1      -0.750  10.968  22.245  0.00  0.00    +0.000 C 
ATOM     24  C   UNL     1       0.494  10.339  21.624  0.00  0.00    +0.000 C 
ATOM     25  C   UNL     1       1.016   9.220  22.519  0.00  0.00    +0.000 C 
ENDBRANCH  22  24
ENDBRANCH  21  22
ENDBRANCH  20  21
ENDBRANCH  19  20
ENDBRANCH  15  19
ENDBRANCH   1  16
TORSDOF 7
ENDMDL
MODEL 5
REMARK VINA RESULT:      -7.1      3.224      6.707
REMARK  Name = 
REMARK  9 active torsions:
REMARK  status: ('A' for Active; 'I' for Inactive)
REMARK    1  A    between atoms: C_1  and  C_2
REMARK    2  A    between atoms: C_2  and  C_3
REMARK    3  A    between atoms: C_2  and  O_4
REMARK    4  A    between atoms: O_4  and  C_5
REMARK    5  A    between atoms: C_5  and  C_6
REMARK    6  A    between atoms: C_6  and  C_7
REMARK    7  A    between atoms: C_7  and  N_8
REMARK    8  A    between atoms: C_9  and  C_11
REMARK    9  A    between atoms: C_12  and  N_13
REMARK                            x       y       z     vdW  Elec       q    Type
REMARK                         _______ _______ _______ _____ _____    ______ ____
ROOT
ATOM      1  C   UNL     1       2.581   5.855  18.828  0.00  0.00    +0.000 A 
ATOM      2  C   UNL     1       2.414   5.417  20.136  0.00  0.00    +0.000 A 
ATOM      3  S   UNL     1       1.777   6.607  21.169  0.00  0.00    +0.000 S 
ATOM      4  C   UNL     1       1.767   7.762  19.928  0.00  0.00    +0.000 A 
ATOM      5  C   UNL     1       2.172   7.246  18.706  0.00  0.00    +0.000 A 
ATOM      6  C   UNL     1       2.049   8.070  17.452  0.00  0.00    +0.000 C 
ATOM      7  C   UNL     1       1.990   9.573  17.756  0.00  0.00    +0.000 C 
ATOM      8  C   UNL     1       0.977   9.881  18.861  0.00  0.00    +0.000 C 
ATOM      9  C   UNL     1       1.332   9.174  20.178  0.00  0.00    +0.000 C 
ENDROOT
BRANCH   2  10
ATOM     10  N   UNL     1       2.724   4.170  20.684  0.00  0.00    +0.000 N 
ATOM     11  C   UNL     1       3.688   3.247  20.362  0.00  0.00    +0.000 A 
ATOM     12  N   UNL     1       3.572   2.199  21.145  0.00  0.00    +0.000 NA
ATOM     13  N   UNL     1       2.524   2.478  21.982  0.00  0.00    +0.000 NA
ATOM     14  N   UNL     1       2.036   3.689  21.748  0.00  0.00    +0.000 NA
ENDBRANCH   2  10
BRANCH   1  16
ATOM     15  N   UNL     1       4.252   5.070  17.296  0.00  0.00    +0.000 N 
ATOM     16  C   UNL     1       2.956   4.959  17.739  0.00  0.00    +0.000 C 
ATOM     17  O   UNL     1       2.160   4.141  17.288  0.00  0.00    +0.000 OA
ATOM     18  H   UNL     1       4.914   5.538  17.901  0.00  0.00    +0.000 HD
BRANCH  15  19
ATOM     19  C   UNL     1       4.772   4.212  16.252  0.00  0.00    +0.000 C 
BRANCH  19  20
ATOM     20  C   UNL     1       5.633   4.971  15.243  0.00  0.00    +0.000 C 
BRANCH  20  21
ATOM     21  C   UNL     1       7.004   5.307  15.805  0.00  0.00    +0.000 C 
BRANCH  21  22
ATOM     22  O   UNL     1       7.088   4.812  17.138  0.00  0.00    +0.000 OA
BRANCH  22  24
ATOM     23  C   UNL     1       7.449   7.126  17.536  0.00  0.00    +0.000 C 
ATOM     24  C   UNL     1       7.695   5.715  18.065  0.00  0.00    +0.000 C 
ATOM     25  C   UNL     1       7.102   5.570  19.462  0.00  0.00    +0.000 C 
ENDBRANCH  22  24
ENDBRANCH  21  22
ENDBRANCH  20  21
ENDBRANCH  19  20
ENDBRANCH  15  19
ENDBRANCH   1  16
TORSDOF 7
ENDMDL
MODEL 6
REMARK VINA RESULT:      -7.1      3.175      7.107
REMARK  Name = 
REMARK  9 active torsions:
REMARK  status: ('A' for Active; 'I' for Inactive)
REMARK    1  A    between atoms: C_1  and  C_2
REMARK    2  A    between atoms: C_2  and  C_3
REMARK    3  A    between atoms: C_2  and  O_4
REMARK    4  A    between atoms: O_4  and  C_5
REMARK    5  A    between atoms: C_5  and  C_6
REMARK    6  A    between atoms: C_6  and  C_7
REMARK    7  A    between atoms: C_7  and  N_8
REMARK    8  A    between atoms: C_9  and  C_11
REMARK    9  A    between atoms: C_12  and  N_13
REMARK                            x       y       z     vdW  Elec       q    Type
REMARK                         _______ _______ _______ _____ _____    ______ ____
ROOT
ATOM      1  C   UNL     1       2.869   6.021  18.922  0.00  0.00    +0.000 A 
ATOM      2  C   UNL     1       2.420   5.484  20.121  0.00  0.00    +0.000 A 
ATOM      3  S   UNL     1       1.454   6.557  21.020  0.00  0.00    +0.000 S 
ATOM      4  C   UNL     1       1.659   7.791  19.876  0.00  0.00    +0.000 A 
ATOM      5  C   UNL     1       2.393   7.387  18.771  0.00  0.00    +0.000 A 
ATOM      6  C   UNL     1       2.519   8.286  17.570  0.00  0.00    +0.000 C 
ATOM      7  C   UNL     1       2.267   9.758  17.924  0.00  0.00    +0.000 C 
ATOM      8  C   UNL     1       0.991   9.923  18.754  0.00  0.00    +0.000 C 
ATOM      9  C   UNL     1       1.065   9.152  20.080  0.00  0.00    +0.000 C 
ENDROOT
BRANCH   2  10
ATOM     10  N   UNL     1       2.683   4.225  20.667  0.00  0.00    +0.000 N 
ATOM     11  C   UNL     1       2.111   3.549  21.717  0.00  0.00    +0.000 A 
ATOM     12  N   UNL     1       2.718   2.397  21.880  0.00  0.00    +0.000 NA
ATOM     13  N   UNL     1       3.678   2.344  20.904  0.00  0.00    +0.000 NA
ATOM     14  N   UNL     1       3.632   3.420  20.131  0.00  0.00    +0.000 NA
ENDBRANCH   2  10
BRANCH   1  16
ATOM     15  N   UNL     1       4.943   5.274  17.976  0.00  0.00    +0.000 N 
ATOM     16  C   UNL     1       3.572   5.228  17.918  0.00  0.00    +0.000 C 
ATOM     17  O   UNL     1       2.956   4.541  17.107  0.00  0.00    +0.000 OA
ATOM     18  H   UNL     1       5.364   5.608  18.833  0.00  0.00    +0.000 HD
BRANCH  15  19
ATOM     19  C   UNL     1       5.766   4.501  17.069  0.00  0.00    +0.000 C 
BRANCH  19  20
ATOM     20  C   UNL     1       5.975   5.199  15.726  0.00  0.00    +0.000 C 
BRANCH  20  21
ATOM     21  C   UNL     1       6.431   4.231  14.647  0.00  0.00    +0.000 C 
BRANCH  21  22
ATOM     22  O   UNL     1       5.420   4.150  13.646  0.00  0.00    +0.000 OA
BRANCH  22  24
ATOM     23  C   UNL     1       4.518   3.244  11.644  0.00  0.00    +0.000 C 
ATOM     24  C   UNL     1       5.750   3.301  12.543  0.00  0.00    +0.000 C 
ATOM     25  C   UNL     1       6.944   3.836  11.760  0.00  0.00    +0.000 C 
ENDBRANCH  22  24
ENDBRANCH  21  22
ENDBRANCH  20  21
ENDBRANCH  19  20
ENDBRANCH  15  19
ENDBRANCH   1  16
TORSDOF 7
ENDMDL
MODEL 7
REMARK VINA RESULT:      -7.0      1.346      1.637
REMARK  Name = 
REMARK  9 active torsions:
REMARK  status: ('A' for Active; 'I' for Inactive)
REMARK    1  A    between atoms: C_1  and  C_2
REMARK    2  A    between atoms: C_2  and  C_3
REMARK    3  A    between atoms: C_2  and  O_4
REMARK    4  A    between atoms: O_4  and  C_5
REMARK    5  A    between atoms: C_5  and  C_6
REMARK    6  A    between atoms: C_6  and  C_7
REMARK    7  A    between atoms: C_7  and  N_8
REMARK    8  A    between atoms: C_9  and  C_11
REMARK    9  A    between atoms: C_12  and  N_13
REMARK                            x       y       z     vdW  Elec       q    Type
REMARK                         _______ _______ _______ _____ _____    ______ ____
ROOT
ATOM      1  C   UNL     1       3.725   5.734  18.449  0.00  0.00    +0.000 A 
ATOM      2  C   UNL     1       4.974   5.190  18.179  0.00  0.00    +0.000 A 
ATOM      3  S   UNL     1       5.183   3.631  18.825  0.00  0.00    +0.000 S 
ATOM      4  C   UNL     1       3.647   3.657  19.540  0.00  0.00    +0.000 A 
ATOM      5  C   UNL     1       2.931   4.807  19.240  0.00  0.00    +0.000 A 
ATOM      6  C   UNL     1       1.481   4.925  19.631  0.00  0.00    +0.000 C 
ATOM      7  C   UNL     1       1.118   3.981  20.784  0.00  0.00    +0.000 C 
ATOM      8  C   UNL     1       1.628   2.561  20.526  0.00  0.00    +0.000 C 
ATOM      9  C   UNL     1       3.156   2.518  20.381  0.00  0.00    +0.000 C 
ENDROOT
BRANCH   2  10
ATOM     10  N   UNL     1       6.046   5.764  17.491  0.00  0.00    +0.000 N 
ATOM     11  C   UNL     1       6.904   6.782  17.827  0.00  0.00    +0.000 A 
ATOM     12  N   UNL     1       7.741   6.996  16.838  0.00  0.00    +0.000 NA
ATOM     13  N   UNL     1       7.409   6.084  15.872  0.00  0.00    +0.000 NA
ATOM     14  N   UNL     1       6.420   5.298  16.275  0.00  0.00    +0.000 NA
ENDBRANCH   2  10
BRANCH   1  16
ATOM     15  N   UNL     1       2.377   7.712  18.612  0.00  0.00    +0.000 N 
ATOM     16  C   UNL     1       3.267   6.987  17.857  0.00  0.00    +0.000 C 
ATOM     17  O   UNL     1       3.691   7.367  16.770  0.00  0.00    +0.000 OA
ATOM     18  H   UNL     1       2.311   7.491  19.597  0.00  0.00    +0.000 HD
BRANCH  15  19
ATOM     19  C   UNL     1       1.875   8.995  18.166  0.00  0.00    +0.000 C 
BRANCH  19  20
ATOM     20  C   UNL     1       1.026   9.694  19.228  0.00  0.00    +0.000 C 
BRANCH  20  21
ATOM     21  C   UNL     1      -0.028  10.597  18.609  0.00  0.00    +0.000 C 
BRANCH  21  22
ATOM     22  O   UNL     1      -0.708   9.876  17.586  0.00  0.00    +0.000 OA
BRANCH  22  24
ATOM     23  C   UNL     1      -2.370  11.520  18.012  0.00  0.00    +0.000 C 
ATOM     24  C   UNL     1      -2.123  10.082  17.562  0.00  0.00    +0.000 C 
ATOM     25  C   UNL     1      -2.698   9.865  16.166  0.00  0.00    +0.000 C 
ENDBRANCH  22  24
ENDBRANCH  21  22
ENDBRANCH  20  21
ENDBRANCH  19  20
ENDBRANCH  15  19
ENDBRANCH   1  16
TORSDOF 7
ENDMDL
MODEL 8
REMARK VINA RESULT:      -7.0      3.459      5.214
REMARK  Name = 
REMARK  9 active torsions:
REMARK  status: ('A' for Active; 'I' for Inactive)
REMARK    1  A    between atoms: C_1  and  C_2
REMARK    2  A    between atoms: C_2  and  C_3
REMARK    3  A    between atoms: C_2  and  O_4
REMARK    4  A    between atoms: O_4  and  C_5
REMARK    5  A    between atoms: C_5  and  C_6
REMARK    6  A    between atoms: C_6  and  C_7
REMARK    7  A    between atoms: C_7  and  N_8
REMARK    8  A    between atoms: C_9  and  C_11
REMARK    9  A    between atoms: C_12  and  N_13
REMARK                            x       y       z     vdW  Elec       q    Type
REMARK                         _______ _______ _______ _____ _____    ______ ____
ROOT
ATOM      1  C   UNL     1       4.161   5.315  17.808  0.00  0.00    +0.000 A 
ATOM      2  C   UNL     1       4.520   4.284  16.950  0.00  0.00    +0.000 A 
ATOM      3  S   UNL     1       3.696   2.830  17.264  0.00  0.00    +0.000 S 
ATOM      4  C   UNL     1       2.887   3.506  18.591  0.00  0.00    +0.000 A 
ATOM      5  C   UNL     1       3.171   4.852  18.768  0.00  0.00    +0.000 A 
ATOM      6  C   UNL     1       2.405   5.666  19.777  0.00  0.00    +0.000 C 
ATOM      7  C   UNL     1       1.772   4.787  20.864  0.00  0.00    +0.000 C 
ATOM      8  C   UNL     1       1.024   3.598  20.255  0.00  0.00    +0.000 C 
ATOM      9  C   UNL     1       1.955   2.692  19.436  0.00  0.00    +0.000 C 
ENDROOT
BRANCH   2  10
ATOM     10  N   UNL     1       5.463   4.294  15.920  0.00  0.00    +0.000 N 
ATOM     11  C   UNL     1       5.328   4.161  14.560  0.00  0.00    +0.000 A 
ATOM     12  N   UNL     1       6.513   4.203  13.995  0.00  0.00    +0.000 NA
ATOM     13  N   UNL     1       7.404   4.381  15.020  0.00  0.00    +0.000 NA
ATOM     14  N   UNL     1       6.778   4.490  16.184  0.00  0.00    +0.000 NA
ENDBRANCH   2  10
BRANCH   1  16
ATOM     15  N   UNL     1       5.972   6.886  17.715  0.00  0.00    +0.000 N 
ATOM     16  C   UNL     1       4.616   6.690  17.621  0.00  0.00    +0.000 C 
ATOM     17  O   UNL     1       3.823   7.590  17.360  0.00  0.00    +0.000 OA
ATOM     18  H   UNL     1       6.569   6.073  17.632  0.00  0.00    +0.000 HD
BRANCH  15  19
ATOM     19  C   UNL     1       6.565   8.191  17.506  0.00  0.00    +0.000 C 
BRANCH  19  20
ATOM     20  C   UNL     1       8.080   8.185  17.705  0.00  0.00    +0.000 C 
BRANCH  20  21
ATOM     21  C   UNL     1       8.550   9.367  18.536  0.00  0.00    +0.000 C 
BRANCH  21  22
ATOM     22  O   UNL     1       9.230  10.285  17.685  0.00  0.00    +0.000 OA
BRANCH  22  24
ATOM     23  C   UNL     1      11.009  11.810  18.077  0.00  0.00    +0.000 C 
ATOM     24  C   UNL     1       9.521  11.547  18.293  0.00  0.00    +0.000 C 
ATOM     25  C   UNL     1       8.696  12.671  17.676  0.00  0.00    +0.000 C 
ENDBRANCH  22  24
ENDBRANCH  21  22
ENDBRANCH  20  21
ENDBRANCH  19  20
ENDBRANCH  15  19
ENDBRANCH   1  16
TORSDOF 7
ENDMDL
MODEL 9
REMARK VINA RESULT:      -7.0      3.078      6.479
REMARK  Name = 
REMARK  9 active torsions:
REMARK  status: ('A' for Active; 'I' for Inactive)
REMARK    1  A    between atoms: C_1  and  C_2
REMARK    2  A    between atoms: C_2  and  C_3
REMARK    3  A    between atoms: C_2  and  O_4
REMARK    4  A    between atoms: O_4  and  C_5
REMARK    5  A    between atoms: C_5  and  C_6
REMARK    6  A    between atoms: C_6  and  C_7
REMARK    7  A    between atoms: C_7  and  N_8
REMARK    8  A    between atoms: C_9  and  C_11
REMARK    9  A    between atoms: C_12  and  N_13
REMARK                            x       y       z     vdW  Elec       q    Type
REMARK                         _______ _______ _______ _____ _____    ______ ____
ROOT
ATOM      1  C   UNL     1       3.070   5.317  18.562  0.00  0.00    +0.000 A 
ATOM      2  C   UNL     1       3.046   4.800  19.850  0.00  0.00    +0.000 A 
ATOM      3  S   UNL     1       2.386   5.871  20.994  0.00  0.00    +0.000 S 
ATOM      4  C   UNL     1       2.174   7.081  19.825  0.00  0.00    +0.000 A 
ATOM      5  C   UNL     1       2.528   6.667  18.550  0.00  0.00    +0.000 A 
ATOM      6  C   UNL     1       2.233   7.538  17.357  0.00  0.00    +0.000 C 
ATOM      7  C   UNL     1       2.061   9.012  17.750  0.00  0.00    +0.000 C 
ATOM      8  C   UNL     1       1.114   9.166  18.943  0.00  0.00    +0.000 C 
ATOM      9  C   UNL     1       1.634   8.431  20.188  0.00  0.00    +0.000 C 
ENDROOT
BRANCH   2  10
ATOM     10  N   UNL     1       3.510   3.562  20.302  0.00  0.00    +0.000 N 
ATOM     11  C   UNL     1       3.007   2.684  21.231  0.00  0.00    +0.000 A 
ATOM     12  N   UNL     1       3.815   1.655  21.345  0.00  0.00    +0.000 NA
ATOM     13  N   UNL     1       4.835   1.887  20.461  0.00  0.00    +0.000 NA
ATOM     14  N   UNL     1       4.636   3.011  19.786  0.00  0.00    +0.000 NA
ENDBRANCH   2  10
BRANCH   1  16
ATOM     15  N   UNL     1       4.745   4.629  16.988  0.00  0.00    +0.000 N 
ATOM     16  C   UNL     1       3.439   4.517  17.398  0.00  0.00    +0.000 C 
ATOM     17  O   UNL     1       2.628   3.770  16.859  0.00  0.00    +0.000 OA
ATOM     18  H   UNL     1       5.410   5.016  17.646  0.00  0.00    +0.000 HD
BRANCH  15  19
ATOM     19  C   UNL     1       5.259   3.857  15.875  0.00  0.00    +0.000 C 
BRANCH  19  20
ATOM     20  C   UNL     1       6.550   4.442  15.302  0.00  0.00    +0.000 C 
BRANCH  20  21
ATOM     21  C   UNL     1       7.085   5.581  16.152  0.00  0.00    +0.000 C 
BRANCH  21  22
ATOM     22  O   UNL     1       7.764   5.034  17.279  0.00  0.00    +0.000 OA
BRANCH  22  24
ATOM     23  C   UNL     1       7.617   7.333  17.857  0.00  0.00    +0.000 C 
ATOM     24  C   UNL     1       7.876   5.927  18.390  0.00  0.00    +0.000 C 
ATOM     25  C   UNL     1       6.871   5.589  19.486  0.00  0.00    +0.000 C 
ENDBRANCH  22  24
ENDBRANCH  21  22
ENDBRANCH  20  21
ENDBRANCH  19  20
ENDBRANCH  15  19
ENDBRANCH   1  16
TORSDOF 7
ENDMDL
