MODEL 1
REMARK VINA RESULT:      -7.1      0.000      0.000
REMARK  Name = 
REMARK  10 active torsions:
REMARK  status: ('A' for Active; 'I' for Inactive)
REMARK    1  A    between atoms: C_1  and  C_2
REMARK    2  A    between atoms: C_2  and  C_3
REMARK    3  A    between atoms: C_9  and  C_10
REMARK    4  A    between atoms: C_10  and  O_11
REMARK    5  A    between atoms: C_10  and  C_12
REMARK    6  A    between atoms: C_12  and  N_13
REMARK    7  A    between atoms: N_13  and  C_14
REMARK    8  A    between atoms: C_14  and  C_15
REMARK    9  A    between atoms: C_14  and  C_16
REMARK   10  A    between atoms: C_14  and  C_17
REMARK                            x       y       z     vdW  Elec       q    Type
REMARK                         _______ _______ _______ _____ _____    ______ ____
ROOT
ATOM      1  C   UNL     1       2.166   5.952  20.047  0.00  0.00    +0.000 A 
ATOM      2  C   UNL     1       1.123   5.084  20.423  0.00  0.00    +0.000 A 
ATOM      3  C   UNL     1       1.297   3.697  20.465  0.00  0.00    +0.000 A 
ATOM      4  C   UNL     1       2.528   3.116  20.147  0.00  0.00    +0.000 A 
ATOM      5  C   UNL     1       3.593   3.952  19.772  0.00  0.00    +0.000 A 
ATOM      6  C   UNL     1       4.951   3.759  19.415  0.00  0.00    +0.000 A 
ATOM      7  C   UNL     1       5.482   5.011  19.177  0.00  0.00    +0.000 A 
ATOM      8  O   UNL     1       4.513   5.959  19.337  0.00  0.00    +0.000 OA
ATOM      9  C   UNL     1       3.375   5.323  19.728  0.00  0.00    +0.000 A 
ENDROOT
BRANCH   1  11
ATOM     10  C   UNL     1       1.097   7.894  21.209  0.00  0.00    +0.000 C 
ATOM     11  C   UNL     1       1.977   7.443  20.051  0.00  0.00    +0.000 C 
ENDBRANCH   1  11
BRANCH   7  12
ATOM     12  C   UNL     1       6.854   5.462  18.805  0.00  0.00    +0.000 C 
BRANCH  12  13
ATOM     13  O   UNL     1       7.640   5.401  20.003  0.00  0.00    +0.000 OA
ATOM     14  H   UNL     1       7.314   4.633  20.505  0.00  0.00    +0.000 HD
ENDBRANCH  12  13
BRANCH  12  15
ATOM     15  C   UNL     1       7.557   4.628  17.705  0.00  0.00    +0.000 C 
BRANCH  15  16
ATOM     16  N   UNL     1       7.572   5.255  16.378  0.00  0.00    +0.000 NA
ATOM     17  H   UNL     1       8.453   5.053  15.908  0.00  0.00    +0.000 HD
BRANCH  16  18
ATOM     18  C   UNL     1       6.436   4.937  15.499  0.00  0.00    +0.000 C 
ATOM     19  C   UNL     1       5.342   6.017  15.554  0.00  0.00    +0.000 C 
ATOM     20  C   UNL     1       6.993   4.900  14.063  0.00  0.00    +0.000 C 
ATOM     21  C   UNL     1       5.840   3.560  15.830  0.00  0.00    +0.000 C 
ENDBRANCH  16  18
ENDBRANCH  15  16
ENDBRANCH  12  15
ENDBRANCH   7  12
TORSDOF 6
ENDMDL
MODEL 2
REMARK VINA RESULT:      -7.0      0.381      1.186
REMARK  Name = 
REMARK  10 active torsions:
REMARK  status: ('A' for Active; 'I' for Inactive)
REMARK    1  A    between atoms: C_1  and  C_2
REMARK    2  A    between atoms: C_2  and  C_3
REMARK    3  A    between atoms: C_9  and  C_10
REMARK    4  A    between atoms: C_10  and  O_11
REMARK    5  A    between atoms: C_10  and  C_12
REMARK    6  A    between atoms: C_12  and  N_13
REMARK    7  A    between atoms: N_13  and  C_14
REMARK    8  A    between atoms: C_14  and  C_15
REMARK    9  A    between atoms: C_14  and  C_16
REMARK   10  A    between atoms: C_14  and  C_17
REMARK                            x       y       z     vdW  Elec       q    Type
REMARK                         _______ _______ _______ _____ _____    ______ ____
ROOT
ATOM      1  C   UNL     1       2.224   5.932  20.042  0.00  0.00    +0.000 A 
ATOM      2  C   UNL     1       1.173   5.084  20.439  0.00  0.00    +0.000 A 
ATOM      3  C   UNL     1       1.330   3.697  20.503  0.00  0.00    +0.000 A 
ATOM      4  C   UNL     1       2.552   3.094  20.188  0.00  0.00    +0.000 A 
ATOM      5  C   UNL     1       3.625   3.911  19.792  0.00  0.00    +0.000 A 
ATOM      6  C   UNL     1       4.979   3.694  19.430  0.00  0.00    +0.000 A 
ATOM      7  C   UNL     1       5.523   4.935  19.168  0.00  0.00    +0.000 A 
ATOM      8  O   UNL     1       4.567   5.898  19.317  0.00  0.00    +0.000 OA
ATOM      9  C   UNL     1       3.424   5.283  19.726  0.00  0.00    +0.000 A 
ENDROOT
BRANCH   1  11
ATOM     10  C   UNL     1       2.131   7.981  18.607  0.00  0.00    +0.000 C 
ATOM     11  C   UNL     1       2.055   7.426  20.023  0.00  0.00    +0.000 C 
ENDBRANCH   1  11
BRANCH   7  12
ATOM     12  C   UNL     1       6.899   5.362  18.780  0.00  0.00    +0.000 C 
BRANCH  12  13
ATOM     13  O   UNL     1       7.722   5.184  19.941  0.00  0.00    +0.000 OA
ATOM     14  H   UNL     1       8.545   4.767  19.631  0.00  0.00    +0.000 HD
ENDBRANCH  12  13
BRANCH  12  15
ATOM     15  C   UNL     1       7.531   4.588  17.597  0.00  0.00    +0.000 C 
BRANCH  15  16
ATOM     16  N   UNL     1       7.563   5.328  16.329  0.00  0.00    +0.000 NA
ATOM     17  H   UNL     1       8.479   5.231  15.894  0.00  0.00    +0.000 HD
BRANCH  16  18
ATOM     18  C   UNL     1       6.499   5.008  15.366  0.00  0.00    +0.000 C 
ATOM     19  C   UNL     1       7.030   4.923  13.925  0.00  0.00    +0.000 C 
ATOM     20  C   UNL     1       5.961   3.618  15.755  0.00  0.00    +0.000 C 
ATOM     21  C   UNL     1       5.346   6.021  15.448  0.00  0.00    +0.000 C 
ENDBRANCH  16  18
ENDBRANCH  15  16
ENDBRANCH  12  15
ENDBRANCH   7  12
TORSDOF 6
ENDMDL
MODEL 3
REMARK VINA RESULT:      -6.9      2.197      5.586
REMARK  Name = 
REMARK  10 active torsions:
REMARK  status: ('A' for Active; 'I' for Inactive)
REMARK    1  A    between atoms: C_1  and  C_2
REMARK    2  A    between atoms: C_2  and  C_3
REMARK    3  A    between atoms: C_9  and  C_10
REMARK    4  A    between atoms: C_10  and  O_11
REMARK    5  A    between atoms: C_10  and  C_12
REMARK    6  A    between atoms: C_12  and  N_13
REMARK    7  A    between atoms: N_13  and  C_14
REMARK    8  A    between atoms: C_14  and  C_15
REMARK    9  A    between atoms: C_14  and  C_16
REMARK   10  A    between atoms: C_14  and  C_17
REMARK                            x       y       z     vdW  Elec       q    Type
REMARK                         _______ _______ _______ _____ _____    ______ ____
ROOT
ATOM      1  C   UNL     1       6.807   5.334  17.577  0.00  0.00    +0.000 A 
ATOM      2  C   UNL     1       6.927   5.703  16.224  0.00  0.00    +0.000 A 
ATOM      3  C   UNL     1       6.110   5.149  15.234  0.00  0.00    +0.000 A 
ATOM      4  C   UNL     1       5.125   4.209  15.555  0.00  0.00    +0.000 A 
ATOM      5  C   UNL     1       4.974   3.822  16.897  0.00  0.00    +0.000 A 
ATOM      6  C   UNL     1       4.108   2.950  17.605  0.00  0.00    +0.000 A 
ATOM      7  C   UNL     1       4.464   3.031  18.936  0.00  0.00    +0.000 A 
ATOM      8  O   UNL     1       5.524   3.878  19.078  0.00  0.00    +0.000 OA
ATOM      9  C   UNL     1       5.816   4.384  17.848  0.00  0.00    +0.000 A 
ENDROOT
BRANCH   1  11
ATOM     10  C   UNL     1       8.035   7.402  18.270  0.00  0.00    +0.000 C 
ATOM     11  C   UNL     1       7.661   5.972  18.637  0.00  0.00    +0.000 C 
ENDBRANCH   1  11
BRANCH   7  12
ATOM     12  C   UNL     1       3.909   2.386  20.161  0.00  0.00    +0.000 C 
BRANCH  12  13
ATOM     13  O   UNL     1       5.035   1.970  20.947  0.00  0.00    +0.000 OA
ATOM     14  H   UNL     1       5.546   2.776  21.138  0.00  0.00    +0.000 HD
ENDBRANCH  12  13
BRANCH  12  15
ATOM     15  C   UNL     1       2.996   3.282  21.033  0.00  0.00    +0.000 C 
BRANCH  15  16
ATOM     16  N   UNL     1       3.100   4.719  20.752  0.00  0.00    +0.000 NA
ATOM     17  H   UNL     1       3.946   4.908  20.216  0.00  0.00    +0.000 HD
BRANCH  16  18
ATOM     18  C   UNL     1       1.933   5.339  20.107  0.00  0.00    +0.000 C 
ATOM     19  C   UNL     1       2.234   5.774  18.662  0.00  0.00    +0.000 C 
ATOM     20  C   UNL     1       0.836   4.258  20.058  0.00  0.00    +0.000 C 
ATOM     21  C   UNL     1       1.411   6.533  20.923  0.00  0.00    +0.000 C 
ENDBRANCH  16  18
ENDBRANCH  15  16
ENDBRANCH  12  15
ENDBRANCH   7  12
TORSDOF 6
ENDMDL
MODEL 4
REMARK VINA RESULT:      -6.8      2.181      5.856
REMARK  Name = 
REMARK  10 active torsions:
REMARK  status: ('A' for Active; 'I' for Inactive)
REMARK    1  A    between atoms: C_1  and  C_2
REMARK    2  A    between atoms: C_2  and  C_3
REMARK    3  A    between atoms: C_9  and  C_10
REMARK    4  A    between atoms: C_10  and  O_11
REMARK    5  A    between atoms: C_10  and  C_12
REMARK    6  A    between atoms: C_12  and  N_13
REMARK    7  A    between atoms: N_13  and  C_14
REMARK    8  A    between atoms: C_14  and  C_15
REMARK    9  A    between atoms: C_14  and  C_16
REMARK   10  A    between atoms: C_14  and  C_17
REMARK                            x       y       z     vdW  Elec       q    Type
REMARK                         _______ _______ _______ _____ _____    ______ ____
ROOT
ATOM      1  C   UNL     1       6.868   5.170  17.795  0.00  0.00    +0.000 A 
ATOM      2  C   UNL     1       7.258   4.466  16.641  0.00  0.00    +0.000 A 
ATOM      3  C   UNL     1       6.322   3.977  15.724  0.00  0.00    +0.000 A 
ATOM      4  C   UNL     1       4.952   4.183  15.914  0.00  0.00    +0.000 A 
ATOM      5  C   UNL     1       4.527   4.886  17.053  0.00  0.00    +0.000 A 
ATOM      6  C   UNL     1       3.276   5.308  17.570  0.00  0.00    +0.000 A 
ATOM      7  C   UNL     1       3.541   5.994  18.739  0.00  0.00    +0.000 A 
ATOM      8  O   UNL     1       4.883   5.986  18.983  0.00  0.00    +0.000 OA
ATOM      9  C   UNL     1       5.487   5.343  17.947  0.00  0.00    +0.000 A 
ENDROOT
BRANCH   1  11
ATOM     10  C   UNL     1       8.126   7.215  18.504  0.00  0.00    +0.000 C 
ATOM     11  C   UNL     1       7.887   5.731  18.747  0.00  0.00    +0.000 C 
ENDBRANCH   1  11
BRANCH   7  12
ATOM     12  C   UNL     1       2.652   6.699  19.708  0.00  0.00    +0.000 C 
BRANCH  12  13
ATOM     13  O   UNL     1       1.870   7.626  18.941  0.00  0.00    +0.000 OA
ATOM     14  H   UNL     1       2.460   8.372  18.732  0.00  0.00    +0.000 HD
ENDBRANCH  12  13
BRANCH  12  15
ATOM     15  C   UNL     1       1.696   5.793  20.521  0.00  0.00    +0.000 C 
BRANCH  15  16
ATOM     16  N   UNL     1       2.358   4.711  21.259  0.00  0.00    +0.000 NA
ATOM     17  H   UNL     1       2.191   4.818  22.258  0.00  0.00    +0.000 HD
BRANCH  16  18
ATOM     18  C   UNL     1       2.037   3.342  20.828  0.00  0.00    +0.000 C 
ATOM     19  C   UNL     1       1.513   2.478  21.988  0.00  0.00    +0.000 C 
ATOM     20  C   UNL     1       0.911   3.466  19.783  0.00  0.00    +0.000 C 
ATOM     21  C   UNL     1       3.248   2.664  20.166  0.00  0.00    +0.000 C 
ENDBRANCH  16  18
ENDBRANCH  15  16
ENDBRANCH  12  15
ENDBRANCH   7  12
TORSDOF 6
ENDMDL
MODEL 5
REMARK VINA RESULT:      -6.8      2.257      5.831
REMARK  Name = 
REMARK  10 active torsions:
REMARK  status: ('A' for Active; 'I' for Inactive)
REMARK    1  A    between atoms: C_1  and  C_2
REMARK    2  A    between atoms: C_2  and  C_3
REMARK    3  A    between atoms: C_9  and  C_10
REMARK    4  A    between atoms: C_10  and  O_11
REMARK    5  A    between atoms: C_10  and  C_12
REMARK    6  A    between atoms: C_12  and  N_13
REMARK    7  A    between atoms: N_13  and  C_14
REMARK    8  A    between atoms: C_14  and  C_15
REMARK    9  A    between atoms: C_14  and  C_16
REMARK   10  A    between atoms: C_14  and  C_17
REMARK                            x       y       z     vdW  Elec       q    Type
REMARK                         _______ _______ _______ _____ _____    ______ ____
ROOT
ATOM      1  C   UNL     1       6.830   5.657  17.424  0.00  0.00    +0.000 A 
ATOM      2  C   UNL     1       7.219   4.869  16.325  0.00  0.00    +0.000 A 
ATOM      3  C   UNL     1       6.297   4.109  15.600  0.00  0.00    +0.000 A 
ATOM      4  C   UNL     1       4.938   4.113  15.934  0.00  0.00    +0.000 A 
ATOM      5  C   UNL     1       4.514   4.892  17.023  0.00  0.00    +0.000 A 
ATOM      6  C   UNL     1       3.268   5.173  17.639  0.00  0.00    +0.000 A 
ATOM      7  C   UNL     1       3.525   6.051  18.672  0.00  0.00    +0.000 A 
ATOM      8  O   UNL     1       4.865   6.298  18.745  0.00  0.00    +0.000 OA
ATOM      9  C   UNL     1       5.464   5.621  17.727  0.00  0.00    +0.000 A 
ENDROOT
BRANCH   1  11
ATOM     10  C   UNL     1       7.800   7.950  17.683  0.00  0.00    +0.000 C 
ATOM     11  C   UNL     1       7.826   6.506  18.165  0.00  0.00    +0.000 C 
ENDBRANCH   1  11
BRANCH   7  12
ATOM     12  C   UNL     1       2.629   6.732  19.652  0.00  0.00    +0.000 C 
BRANCH  12  13
ATOM     13  O   UNL     1       1.821   7.645  18.896  0.00  0.00    +0.000 OA
ATOM     14  H   UNL     1       1.005   7.164  18.671  0.00  0.00    +0.000 HD
ENDBRANCH  12  13
BRANCH  12  15
ATOM     15  C   UNL     1       1.700   5.801  20.468  0.00  0.00    +0.000 C 
BRANCH  15  16
ATOM     16  N   UNL     1       2.390   4.720  21.182  0.00  0.00    +0.000 NA
ATOM     17  H   UNL     1       2.295   4.850  22.188  0.00  0.00    +0.000 HD
BRANCH  16  18
ATOM     18  C   UNL     1       2.013   3.350  20.803  0.00  0.00    +0.000 C 
ATOM     19  C   UNL     1       0.933   3.329  19.708  0.00  0.00    +0.000 C 
ATOM     20  C   UNL     1       3.282   2.690  20.231  0.00  0.00    +0.000 C 
ATOM     21  C   UNL     1       1.547   2.540  22.024  0.00  0.00    +0.000 C 
ENDBRANCH  16  18
ENDBRANCH  15  16
ENDBRANCH  12  15
ENDBRANCH   7  12
TORSDOF 6
ENDMDL
MODEL 6
REMARK VINA RESULT:      -6.7      2.190      5.473
REMARK  Name = 
REMARK  10 active torsions:
REMARK  status: ('A' for Active; 'I' for Inactive)
REMARK    1  A    between atoms: C_1  and  C_2
REMARK    2  A    between atoms: C_2  and  C_3
REMARK    3  A    between atoms: C_9  and  C_10
REMARK    4  A    between atoms: C_10  and  O_11
REMARK    5  A    between atoms: C_10  and  C_12
REMARK    6  A    between atoms: C_12  and  N_13
REMARK    7  A    between atoms: N_13  and  C_14
REMARK    8  A    between atoms: C_14  and  C_15
REMARK    9  A    between atoms: C_14  and  C_16
REMARK   10  A    between atoms: C_14  and  C_17
REMARK                            x       y       z     vdW  Elec       q    Type
REMARK                         _______ _______ _______ _____ _____    ______ ____
ROOT
ATOM      1  C   UNL     1       6.887   5.297  17.627  0.00  0.00    +0.000 A 
ATOM      2  C   UNL     1       7.055   5.676  16.282  0.00  0.00    +0.000 A 
ATOM      3  C   UNL     1       6.249   5.159  15.263  0.00  0.00    +0.000 A 
ATOM      4  C   UNL     1       5.227   4.247  15.546  0.00  0.00    +0.000 A 
ATOM      5  C   UNL     1       5.027   3.850  16.879  0.00  0.00    +0.000 A 
ATOM      6  C   UNL     1       4.114   2.999  17.553  0.00  0.00    +0.000 A 
ATOM      7  C   UNL     1       4.437   3.054  18.894  0.00  0.00    +0.000 A 
ATOM      8  O   UNL     1       5.518   3.866  19.075  0.00  0.00    +0.000 OA
ATOM      9  C   UNL     1       5.859   4.375  17.859  0.00  0.00    +0.000 A 
ENDROOT
BRANCH   1  11
ATOM     10  C   UNL     1       8.091   7.345  18.414  0.00  0.00    +0.000 C 
ATOM     11  C   UNL     1       7.730   5.897  18.716  0.00  0.00    +0.000 C 
ENDBRANCH   1  11
BRANCH   7  12
ATOM     12  C   UNL     1       3.827   2.414  20.096  0.00  0.00    +0.000 C 
BRANCH  12  13
ATOM     13  O   UNL     1       4.918   2.011  20.937  0.00  0.00    +0.000 OA
ATOM     14  H   UNL     1       5.040   2.727  21.586  0.00  0.00    +0.000 HD
ENDBRANCH  12  13
BRANCH  12  15
ATOM     15  C   UNL     1       2.868   3.310  20.917  0.00  0.00    +0.000 C 
BRANCH  15  16
ATOM     16  N   UNL     1       3.123   4.750  20.796  0.00  0.00    +0.000 NA
ATOM     17  H   UNL     1       4.066   4.909  20.446  0.00  0.00    +0.000 HD
BRANCH  16  18
ATOM     18  C   UNL     1       2.146   5.516  20.006  0.00  0.00    +0.000 C 
ATOM     19  C   UNL     1       1.349   6.505  20.873  0.00  0.00    +0.000 C 
ATOM     20  C   UNL     1       2.958   6.332  18.981  0.00  0.00    +0.000 C 
ATOM     21  C   UNL     1       1.189   4.585  19.244  0.00  0.00    +0.000 C 
ENDBRANCH  16  18
ENDBRANCH  15  16
ENDBRANCH  12  15
ENDBRANCH   7  12
TORSDOF 6
ENDMDL
MODEL 7
REMARK VINA RESULT:      -6.6      2.711      4.146
REMARK  Name = 
REMARK  10 active torsions:
REMARK  status: ('A' for Active; 'I' for Inactive)
REMARK    1  A    between atoms: C_1  and  C_2
REMARK    2  A    between atoms: C_2  and  C_3
REMARK    3  A    between atoms: C_9  and  C_10
REMARK    4  A    between atoms: C_10  and  O_11
REMARK    5  A    between atoms: C_10  and  C_12
REMARK    6  A    between atoms: C_12  and  N_13
REMARK    7  A    between atoms: N_13  and  C_14
REMARK    8  A    between atoms: C_14  and  C_15
REMARK    9  A    between atoms: C_14  and  C_16
REMARK   10  A    between atoms: C_14  and  C_17
REMARK                            x       y       z     vdW  Elec       q    Type
REMARK                         _______ _______ _______ _____ _____    ______ ____
ROOT
ATOM      1  C   UNL     1       2.792   3.981  17.926  0.00  0.00    +0.000 A 
ATOM      2  C   UNL     1       2.025   4.638  18.907  0.00  0.00    +0.000 A 
ATOM      3  C   UNL     1       2.221   5.988  19.213  0.00  0.00    +0.000 A 
ATOM      4  C   UNL     1       3.184   6.747  18.540  0.00  0.00    +0.000 A 
ATOM      5  C   UNL     1       3.964   6.125  17.552  0.00  0.00    +0.000 A 
ATOM      6  C   UNL     1       4.985   6.542  16.660  0.00  0.00    +0.000 A 
ATOM      7  C   UNL     1       5.332   5.437  15.909  0.00  0.00    +0.000 A 
ATOM      8  O   UNL     1       4.601   4.358  16.314  0.00  0.00    +0.000 OA
ATOM      9  C   UNL     1       3.749   4.778  17.288  0.00  0.00    +0.000 A 
ENDROOT
BRANCH   1  11
ATOM     10  C   UNL     1       3.360   1.599  18.444  0.00  0.00    +0.000 C 
ATOM     11  C   UNL     1       2.538   2.542  17.575  0.00  0.00    +0.000 C 
ENDBRANCH   1  11
BRANCH   7  12
ATOM     12  C   UNL     1       6.308   5.250  14.796  0.00  0.00    +0.000 C 
BRANCH  12  13
ATOM     13  O   UNL     1       7.559   5.773  15.262  0.00  0.00    +0.000 OA
ATOM     14  H   UNL     1       7.350   6.343  16.024  0.00  0.00    +0.000 HD
ENDBRANCH  12  13
BRANCH  12  15
ATOM     15  C   UNL     1       6.520   3.788  14.331  0.00  0.00    +0.000 C 
BRANCH  15  16
ATOM     16  N   UNL     1       5.447   3.255  13.482  0.00  0.00    +0.000 NA
ATOM     17  H   UNL     1       4.594   3.794  13.619  0.00  0.00    +0.000 HD
BRANCH  16  18
ATOM     18  C   UNL     1       5.755   3.135  12.049  0.00  0.00    +0.000 C 
ATOM     19  C   UNL     1       5.997   1.675  11.629  0.00  0.00    +0.000 C 
ATOM     20  C   UNL     1       4.513   3.646  11.293  0.00  0.00    +0.000 C 
ATOM     21  C   UNL     1       6.960   4.006  11.660  0.00  0.00    +0.000 C 
ENDBRANCH  16  18
ENDBRANCH  15  16
ENDBRANCH  12  15
ENDBRANCH   7  12
TORSDOF 6
ENDMDL
MODEL 8
REMARK VINA RESULT:      -6.6      1.893      2.737
REMARK  Name = 
REMARK  10 active torsions:
REMARK  status: ('A' for Active; 'I' for Inactive)
REMARK    1  A    between atoms: C_1  and  C_2
REMARK    2  A    between atoms: C_2  and  C_3
REMARK    3  A    between atoms: C_9  and  C_10
REMARK    4  A    between atoms: C_10  and  O_11
REMARK    5  A    between atoms: C_10  and  C_12
REMARK    6  A    between atoms: C_12  and  N_13
REMARK    7  A    between atoms: N_13  and  C_14
REMARK    8  A    between atoms: C_14  and  C_15
REMARK    9  A    between atoms: C_14  and  C_16
REMARK   10  A    between atoms: C_14  and  C_17
REMARK                            x       y       z     vdW  Elec       q    Type
REMARK                         _______ _______ _______ _____ _____    ______ ____
ROOT
ATOM      1  C   UNL     1       2.357   5.244  19.326  0.00  0.00    +0.000 A 
ATOM      2  C   UNL     1       1.403   4.579  20.119  0.00  0.00    +0.000 A 
ATOM      3  C   UNL     1       1.206   3.197  20.032  0.00  0.00    +0.000 A 
ATOM      4  C   UNL     1       1.966   2.415  19.156  0.00  0.00    +0.000 A 
ATOM      5  C   UNL     1       2.930   3.045  18.353  0.00  0.00    +0.000 A 
ATOM      6  C   UNL     1       3.884   2.615  17.396  0.00  0.00    +0.000 A 
ATOM      7  C   UNL     1       4.562   3.742  16.976  0.00  0.00    +0.000 A 
ATOM      8  O   UNL     1       4.053   4.844  17.599  0.00  0.00    +0.000 OA
ATOM      9  C   UNL     1       3.085   4.421  18.458  0.00  0.00    +0.000 A 
ENDROOT
BRANCH   1  11
ATOM     10  C   UNL     1       2.101   7.484  18.239  0.00  0.00    +0.000 C 
ATOM     11  C   UNL     1       2.589   6.722  19.464  0.00  0.00    +0.000 C 
ENDBRANCH   1  11
BRANCH   7  12
ATOM     12  C   UNL     1       5.690   3.932  16.019  0.00  0.00    +0.000 C 
BRANCH  12  13
ATOM     13  O   UNL     1       5.238   4.883  15.044  0.00  0.00    +0.000 OA
ATOM     14  H   UNL     1       5.400   5.764  15.426  0.00  0.00    +0.000 HD
ENDBRANCH  12  13
BRANCH  12  15
ATOM     15  C   UNL     1       7.014   4.443  16.638  0.00  0.00    +0.000 C 
BRANCH  15  16
ATOM     16  N   UNL     1       7.286   5.867  16.408  0.00  0.00    +0.000 NA
ATOM     17  H   UNL     1       6.751   6.200  15.608  0.00  0.00    +0.000 HD
BRANCH  16  18
ATOM     18  C   UNL     1       7.091   6.758  17.563  0.00  0.00    +0.000 C 
ATOM     19  C   UNL     1       8.071   7.944  17.551  0.00  0.00    +0.000 C 
ATOM     20  C   UNL     1       5.662   7.322  17.441  0.00  0.00    +0.000 C 
ATOM     21  C   UNL     1       7.204   5.989  18.889  0.00  0.00    +0.000 C 
ENDBRANCH  16  18
ENDBRANCH  15  16
ENDBRANCH  12  15
ENDBRANCH   7  12
TORSDOF 6
ENDMDL
MODEL 9
REMARK VINA RESULT:      -6.6      1.107      2.713
REMARK  Name = 
REMARK  10 active torsions:
REMARK  status: ('A' for Active; 'I' for Inactive)
REMARK    1  A    between atoms: C_1  and  C_2
REMARK    2  A    between atoms: C_2  and  C_3
REMARK    3  A    between atoms: C_9  and  C_10
REMARK    4  A    between atoms: C_10  and  O_11
REMARK    5  A    between atoms: C_10  and  C_12
REMARK    6  A    between atoms: C_12  and  N_13
REMARK    7  A    between atoms: N_13  and  C_14
REMARK    8  A    between atoms: C_14  and  C_15
REMARK    9  A    between atoms: C_14  and  C_16
REMARK   10  A    between atoms: C_14  and  C_17
REMARK                            x       y       z     vdW  Elec       q    Type
REMARK                         _______ _______ _______ _____ _____    ______ ____
ROOT
ATOM      1  C   UNL     1       3.012   2.717  19.713  0.00  0.00    +0.000 A 
ATOM      2  C   UNL     1       1.658   2.914  20.043  0.00  0.00    +0.000 A 
ATOM      3  C   UNL     1       1.129   4.190  20.259  0.00  0.00    +0.000 A 
ATOM      4  C   UNL     1       1.929   5.331  20.140  0.00  0.00    +0.000 A 
ATOM      5  C   UNL     1       3.284   5.172  19.807  0.00  0.00    +0.000 A 
ATOM      6  C   UNL     1       4.376   6.048  19.574  0.00  0.00    +0.000 A 
ATOM      7  C   UNL     1       5.460   5.254  19.255  0.00  0.00    +0.000 A 
ATOM      8  O   UNL     1       5.101   3.939  19.313  0.00  0.00    +0.000 OA
ATOM      9  C   UNL     1       3.775   3.887  19.616  0.00  0.00    +0.000 A 
ENDROOT
BRANCH   1  11
ATOM     10  C   UNL     1       3.852   1.142  17.959  0.00  0.00    +0.000 C 
ATOM     11  C   UNL     1       3.555   1.343  19.439  0.00  0.00    +0.000 C 
ENDBRANCH   1  11
BRANCH   7  12
ATOM     12  C   UNL     1       6.865   5.585  18.878  0.00  0.00    +0.000 C 
BRANCH  12  13
ATOM     13  O   UNL     1       7.645   5.469  20.077  0.00  0.00    +0.000 OA
ATOM     14  H   UNL     1       7.331   6.170  20.675  0.00  0.00    +0.000 HD
ENDBRANCH  12  13
BRANCH  12  15
ATOM     15  C   UNL     1       7.494   4.686  17.786  0.00  0.00    +0.000 C 
BRANCH  15  16
ATOM     16  N   UNL     1       7.507   5.277  16.442  0.00  0.00    +0.000 NA
ATOM     17  H   UNL     1       8.379   5.044  15.969  0.00  0.00    +0.000 HD
BRANCH  16  18
ATOM     18  C   UNL     1       6.356   4.958  15.583  0.00  0.00    +0.000 C 
ATOM     19  C   UNL     1       5.294   6.071  15.604  0.00  0.00    +0.000 C 
ATOM     20  C   UNL     1       6.901   4.850  14.146  0.00  0.00    +0.000 C 
ATOM     21  C   UNL     1       5.724   3.612  15.971  0.00  0.00    +0.000 C 
ENDBRANCH  16  18
ENDBRANCH  15  16
ENDBRANCH  12  15
ENDBRANCH   7  12
TORSDOF 6
ENDMDL
