MODEL 1
REMARK VINA RESULT:      -6.6      0.000      0.000
REMARK  Name = 
REMARK  4 active torsions:
REMARK  status: ('A' for Active; 'I' for Inactive)
REMARK    1  A    between atoms: C_1  and  C_2
REMARK    2  A    between atoms: C_15  and  C_16
REMARK    3  A    between atoms: C_16  and  O_17
REMARK    4  A    between atoms: N_19  and  C_20
REMARK                            x       y       z     vdW  Elec       q    Type
REMARK                         _______ _______ _______ _____ _____    ______ ____
ROOT
ATOM      1  C   UNL     1      -0.575  13.845  18.769  0.00  0.00    +0.000 C 
ATOM      2  C   UNL     1      -1.437  13.353  19.920  0.00  0.00    +0.000 C 
ATOM      3  O   UNL     1      -1.234  13.830  21.039  0.00  0.00    +0.000 OA
ATOM      4  N   UNL     1      -2.521  12.536  19.554  0.00  0.00    +0.000 N 
ATOM      5  C   UNL     1      -2.434  11.562  18.501  0.00  0.00    +0.000 A 
ATOM      6  C   UNL     1      -1.257  10.806  18.357  0.00  0.00    +0.000 A 
ATOM      7  C   UNL     1      -1.159   9.788  17.402  0.00  0.00    +0.000 A 
ATOM      8  C   UNL     1      -2.236   9.510  16.571  0.00  0.00    +0.000 A 
ATOM      9  C   UNL     1      -3.413  10.240  16.703  0.00  0.00    +0.000 A 
ATOM     10  C   UNL     1      -3.523  11.250  17.671  0.00  0.00    +0.000 A 
ATOM     11  S   UNL     1      -5.059  12.123  17.805  0.00  0.00    +0.000 S 
ATOM     12  C   UNL     1      -4.999  12.455  19.553  0.00  0.00    +0.000 A 
ATOM     13  C   UNL     1      -6.218  12.618  20.215  0.00  0.00    +0.000 A 
ATOM     14  C   UNL     1      -6.247  12.915  21.575  0.00  0.00    +0.000 A 
ATOM     15  C   UNL     1      -5.064  13.022  22.324  0.00  0.00    +0.000 A 
ATOM     16  C   UNL     1      -3.845  12.875  21.634  0.00  0.00    +0.000 A 
ATOM     17  C   UNL     1      -3.784  12.613  20.248  0.00  0.00    +0.000 A 
ENDROOT
BRANCH  15  18
ATOM     18  C   UNL     1      -5.138  13.323  23.824  0.00  0.00    +0.000 C 
ATOM     19  C   UNL     1      -3.784  13.619  24.576  0.00  0.00    +0.000 C 
ATOM     20  N   UNL     1      -3.248  14.990  24.459  0.00  0.00    +0.000 NA
ATOM     21  C   UNL     1      -2.123  15.191  25.371  0.00  0.00    +0.000 C 
ATOM     22  C   UNL     1      -4.329  15.949  24.746  0.00  0.00    +0.000 C 
ATOM     23  C   UNL     1      -5.562  15.680  23.872  0.00  0.00    +0.000 C 
ATOM     24  O   UNL     1      -6.091  14.366  24.076  0.00  0.00    +0.000 OA
BRANCH  18  25
ATOM     25  O   UNL     1      -5.683  12.138  24.441  0.00  0.00    +0.000 OA
ATOM     26  H   UNL     1      -5.418  11.384  23.894  0.00  0.00    +0.000 HD
ENDBRANCH  18  25
ENDBRANCH  15  18
TORSDOF 2
ENDMDL
MODEL 2
REMARK VINA RESULT:      -6.5      3.191      4.507
REMARK  Name = 
REMARK  4 active torsions:
REMARK  status: ('A' for Active; 'I' for Inactive)
REMARK    1  A    between atoms: C_1  and  C_2
REMARK    2  A    between atoms: C_15  and  C_16
REMARK    3  A    between atoms: C_16  and  O_17
REMARK    4  A    between atoms: N_19  and  C_20
REMARK                            x       y       z     vdW  Elec       q    Type
REMARK                         _______ _______ _______ _____ _____    ______ ____
ROOT
ATOM      1  C   UNL     1      -1.831   9.924  17.245  0.00  0.00    +0.000 C 
ATOM      2  C   UNL     1      -1.443  11.006  18.239  0.00  0.00    +0.000 C 
ATOM      3  O   UNL     1      -1.990  12.106  18.136  0.00  0.00    +0.000 OA
ATOM      4  N   UNL     1      -0.633  10.581  19.307  0.00  0.00    +0.000 N 
ATOM      5  C   UNL     1       0.413   9.609  19.144  0.00  0.00    +0.000 A 
ATOM      6  C   UNL     1       1.209   9.640  17.986  0.00  0.00    +0.000 A 
ATOM      7  C   UNL     1       2.293   8.769  17.825  0.00  0.00    +0.000 A 
ATOM      8  C   UNL     1       2.596   7.849  18.818  0.00  0.00    +0.000 A 
ATOM      9  C   UNL     1       1.827   7.807  19.977  0.00  0.00    +0.000 A 
ATOM     10  C   UNL     1       0.750   8.690  20.151  0.00  0.00    +0.000 A 
ATOM     11  S   UNL     1      -0.172   8.604  21.662  0.00  0.00    +0.000 S 
ATOM     12  C   UNL     1      -0.620  10.323  21.773  0.00  0.00    +0.000 A 
ATOM     13  C   UNL     1      -0.862  10.840  23.047  0.00  0.00    +0.000 A 
ATOM     14  C   UNL     1      -1.252  12.167  23.207  0.00  0.00    +0.000 A 
ATOM     15  C   UNL     1      -1.378  13.029  22.105  0.00  0.00    +0.000 A 
ATOM     16  C   UNL     1      -1.149  12.483  20.827  0.00  0.00    +0.000 A 
ATOM     17  C   UNL     1      -0.792  11.130  20.631  0.00  0.00    +0.000 A 
ENDROOT
BRANCH  15  18
ATOM     18  C   UNL     1      -1.782  14.489  22.324  0.00  0.00    +0.000 C 
ATOM     19  C   UNL     1      -2.002  14.970  23.809  0.00  0.00    +0.000 C 
ATOM     20  N   UNL     1      -0.791  15.325  24.576  0.00  0.00    +0.000 NA
ATOM     21  C   UNL     1      -1.144  15.957  25.846  0.00  0.00    +0.000 C 
ATOM     22  C   UNL     1       0.042  16.225  23.760  0.00  0.00    +0.000 C 
ATOM     23  C   UNL     1       0.329  15.621  22.378  0.00  0.00    +0.000 C 
ATOM     24  O   UNL     1      -0.871  15.365  21.642  0.00  0.00    +0.000 OA
BRANCH  18  25
ATOM     25  O   UNL     1      -3.052  14.655  21.661  0.00  0.00    +0.000 OA
ATOM     26  H   UNL     1      -3.291  13.796  21.284  0.00  0.00    +0.000 HD
ENDBRANCH  18  25
ENDBRANCH  15  18
TORSDOF 2
ENDMDL
MODEL 3
REMARK VINA RESULT:      -6.4      5.830      9.468
REMARK  Name = 
REMARK  4 active torsions:
REMARK  status: ('A' for Active; 'I' for Inactive)
REMARK    1  A    between atoms: C_1  and  C_2
REMARK    2  A    between atoms: C_15  and  C_16
REMARK    3  A    between atoms: C_16  and  O_17
REMARK    4  A    between atoms: N_19  and  C_20
REMARK                            x       y       z     vdW  Elec       q    Type
REMARK                         _______ _______ _______ _____ _____    ______ ____
ROOT
ATOM      1  C   UNL     1       2.348  12.609  18.423  0.00  0.00    +0.000 C 
ATOM      2  C   UNL     1       2.137  11.120  18.198  0.00  0.00    +0.000 C 
ATOM      3  O   UNL     1       2.891  10.544  17.411  0.00  0.00    +0.000 OA
ATOM      4  N   UNL     1       1.218  10.505  19.065  0.00  0.00    +0.000 N 
ATOM      5  C   UNL     1       0.010  11.153  19.498  0.00  0.00    +0.000 A 
ATOM      6  C   UNL     1      -0.717  11.938  18.585  0.00  0.00    +0.000 A 
ATOM      7  C   UNL     1      -1.941  12.517  18.939  0.00  0.00    +0.000 A 
ATOM      8  C   UNL     1      -2.458  12.324  20.212  0.00  0.00    +0.000 A 
ATOM      9  C   UNL     1      -1.759  11.543  21.128  0.00  0.00    +0.000 A 
ATOM     10  C   UNL     1      -0.540  10.946  20.773  0.00  0.00    +0.000 A 
ATOM     11  S   UNL     1       0.286   9.940  21.977  0.00  0.00    +0.000 S 
ATOM     12  C   UNL     1       1.054   8.795  20.852  0.00  0.00    +0.000 A 
ATOM     13  C   UNL     1       1.339   7.517  21.338  0.00  0.00    +0.000 A 
ATOM     14  C   UNL     1       1.973   6.580  20.525  0.00  0.00    +0.000 A 
ATOM     15  C   UNL     1       2.308   6.876  19.194  0.00  0.00    +0.000 A 
ATOM     16  C   UNL     1       2.030   8.176  18.730  0.00  0.00    +0.000 A 
ATOM     17  C   UNL     1       1.426   9.160  19.544  0.00  0.00    +0.000 A 
ENDROOT
BRANCH  15  18
ATOM     18  C   UNL     1       2.978   5.809  18.323  0.00  0.00    +0.000 C 
ATOM     19  C   UNL     1       3.916   4.765  19.042  0.00  0.00    +0.000 C 
ATOM     20  N   UNL     1       3.251   3.624  19.702  0.00  0.00    +0.000 NA
ATOM     21  C   UNL     1       4.230   2.626  20.133  0.00  0.00    +0.000 C 
ATOM     22  C   UNL     1       2.281   3.031  18.765  0.00  0.00    +0.000 C 
ATOM     23  C   UNL     1       1.314   4.089  18.216  0.00  0.00    +0.000 C 
ATOM     24  O   UNL     1       1.998   5.135  17.520  0.00  0.00    +0.000 OA
BRANCH  18  25
ATOM     25  O   UNL     1       3.820   6.524  17.394  0.00  0.00    +0.000 OA
ATOM     26  H   UNL     1       3.236   6.948  16.749  0.00  0.00    +0.000 HD
ENDBRANCH  18  25
ENDBRANCH  15  18
TORSDOF 2
ENDMDL
MODEL 4
REMARK VINA RESULT:      -6.4      3.266      5.013
REMARK  Name = 
REMARK  4 active torsions:
REMARK  status: ('A' for Active; 'I' for Inactive)
REMARK    1  A    between atoms: C_1  and  C_2
REMARK    2  A    between atoms: C_15  and  C_16
REMARK    3  A    between atoms: C_16  and  O_17
REMARK    4  A    between atoms: N_19  and  C_20
REMARK                            x       y       z     vdW  Elec       q    Type
REMARK                         _______ _______ _______ _____ _____    ______ ____
ROOT
ATOM      1  C   UNL     1      -1.005  14.164  21.636  0.00  0.00    +0.000 C 
ATOM      2  C   UNL     1      -2.305  13.509  21.197  0.00  0.00    +0.000 C 
ATOM      3  O   UNL     1      -3.341  14.171  21.284  0.00  0.00    +0.000 OA
ATOM      4  N   UNL     1      -2.166  12.271  20.548  0.00  0.00    +0.000 N 
ATOM      5  C   UNL     1      -1.187  11.295  20.944  0.00  0.00    +0.000 A 
ATOM      6  C   UNL     1      -0.927  11.097  22.312  0.00  0.00    +0.000 A 
ATOM      7  C   UNL     1      -0.046  10.100  22.746  0.00  0.00    +0.000 A 
ATOM      8  C   UNL     1       0.592   9.286  21.821  0.00  0.00    +0.000 A 
ATOM      9  C   UNL     1       0.342   9.459  20.463  0.00  0.00    +0.000 A 
ATOM     10  C   UNL     1      -0.554  10.446  20.022  0.00  0.00    +0.000 A 
ATOM     11  S   UNL     1      -0.850  10.596  18.281  0.00  0.00    +0.000 S 
ATOM     12  C   UNL     1      -2.540  11.149  18.369  0.00  0.00    +0.000 A 
ATOM     13  C   UNL     1      -3.362  10.866  17.275  0.00  0.00    +0.000 A 
ATOM     14  C   UNL     1      -4.685  11.300  17.258  0.00  0.00    +0.000 A 
ATOM     15  C   UNL     1      -5.240  11.995  18.346  0.00  0.00    +0.000 A 
ATOM     16  C   UNL     1      -4.389  12.288  19.429  0.00  0.00    +0.000 A 
ATOM     17  C   UNL     1      -3.032  11.897  19.456  0.00  0.00    +0.000 A 
ENDROOT
BRANCH  15  18
ATOM     18  C   UNL     1      -6.707  12.431  18.301  0.00  0.00    +0.000 C 
ATOM     19  C   UNL     1      -7.181  13.504  19.355  0.00  0.00    +0.000 C 
ATOM     20  N   UNL     1      -6.887  14.916  19.039  0.00  0.00    +0.000 NA
ATOM     21  C   UNL     1      -7.565  15.813  19.973  0.00  0.00    +0.000 C 
ATOM     22  C   UNL     1      -7.307  15.192  17.654  0.00  0.00    +0.000 C 
ATOM     23  C   UNL     1      -6.690  14.187  16.671  0.00  0.00    +0.000 C 
ATOM     24  O   UNL     1      -7.065  12.839  16.972  0.00  0.00    +0.000 OA
BRANCH  18  25
ATOM     25  O   UNL     1      -7.483  11.244  18.567  0.00  0.00    +0.000 OA
ATOM     26  H   UNL     1      -6.882  10.489  18.500  0.00  0.00    +0.000 HD
ENDBRANCH  18  25
ENDBRANCH  15  18
TORSDOF 2
ENDMDL
MODEL 5
REMARK VINA RESULT:      -6.2      3.279      5.197
REMARK  Name = 
REMARK  4 active torsions:
REMARK  status: ('A' for Active; 'I' for Inactive)
REMARK    1  A    between atoms: C_1  and  C_2
REMARK    2  A    between atoms: C_15  and  C_16
REMARK    3  A    between atoms: C_16  and  O_17
REMARK    4  A    between atoms: N_19  and  C_20
REMARK                            x       y       z     vdW  Elec       q    Type
REMARK                         _______ _______ _______ _____ _____    ______ ____
ROOT
ATOM      1  C   UNL     1       0.364  13.411  21.177  0.00  0.00    +0.000 C 
ATOM      2  C   UNL     1      -0.983  12.798  20.830  0.00  0.00    +0.000 C 
ATOM      3  O   UNL     1      -1.985  13.509  20.937  0.00  0.00    +0.000 OA
ATOM      4  N   UNL     1      -0.930  11.529  20.229  0.00  0.00    +0.000 N 
ATOM      5  C   UNL     1       0.024  10.528  20.621  0.00  0.00    +0.000 A 
ATOM      6  C   UNL     1       0.343  10.375  21.982  0.00  0.00    +0.000 A 
ATOM      7  C   UNL     1       1.201   9.358  22.418  0.00  0.00    +0.000 A 
ATOM      8  C   UNL     1       1.756   8.479  21.500  0.00  0.00    +0.000 A 
ATOM      9  C   UNL     1       1.447   8.606  20.149  0.00  0.00    +0.000 A 
ATOM     10  C   UNL     1       0.574   9.613  19.709  0.00  0.00    +0.000 A 
ATOM     11  S   UNL     1       0.199   9.703  17.979  0.00  0.00    +0.000 S 
ATOM     12  C   UNL     1      -1.460  10.335  18.122  0.00  0.00    +0.000 A 
ATOM     13  C   UNL     1      -2.346  10.044  17.082  0.00  0.00    +0.000 A 
ATOM     14  C   UNL     1      -3.649  10.536  17.109  0.00  0.00    +0.000 A 
ATOM     15  C   UNL     1      -4.118  11.301  18.190  0.00  0.00    +0.000 A 
ATOM     16  C   UNL     1      -3.203  11.600  19.218  0.00  0.00    +0.000 A 
ATOM     17  C   UNL     1      -1.865  11.149  19.198  0.00  0.00    +0.000 A 
ENDROOT
BRANCH  15  18
ATOM     18  C   UNL     1      -5.565  11.799  18.196  0.00  0.00    +0.000 C 
ATOM     19  C   UNL     1      -6.647  10.891  18.897  0.00  0.00    +0.000 C 
ATOM     20  N   UNL     1      -6.743  10.990  20.367  0.00  0.00    +0.000 NA
ATOM     21  C   UNL     1      -7.916  10.273  20.864  0.00  0.00    +0.000 C 
ATOM     22  C   UNL     1      -6.802  12.412  20.745  0.00  0.00    +0.000 C 
ATOM     23  C   UNL     1      -5.635  13.202  20.137  0.00  0.00    +0.000 C 
ATOM     24  O   UNL     1      -5.628  13.139  18.708  0.00  0.00    +0.000 OA
BRANCH  18  25
ATOM     25  O   UNL     1      -5.962  11.891  16.812  0.00  0.00    +0.000 OA
ATOM     26  H   UNL     1      -5.830  12.811  16.538  0.00  0.00    +0.000 HD
ENDBRANCH  18  25
ENDBRANCH  15  18
TORSDOF 2
ENDMDL
MODEL 6
REMARK VINA RESULT:      -6.2      3.118      4.638
REMARK  Name = 
REMARK  4 active torsions:
REMARK  status: ('A' for Active; 'I' for Inactive)
REMARK    1  A    between atoms: C_1  and  C_2
REMARK    2  A    between atoms: C_15  and  C_16
REMARK    3  A    between atoms: C_16  and  O_17
REMARK    4  A    between atoms: N_19  and  C_20
REMARK                            x       y       z     vdW  Elec       q    Type
REMARK                         _______ _______ _______ _____ _____    ______ ____
ROOT
ATOM      1  C   UNL     1      -0.453  13.775  22.033  0.00  0.00    +0.000 C 
ATOM      2  C   UNL     1      -1.776  13.201  21.554  0.00  0.00    +0.000 C 
ATOM      3  O   UNL     1      -2.792  13.879  21.717  0.00  0.00    +0.000 OA
ATOM      4  N   UNL     1      -1.680  12.024  20.791  0.00  0.00    +0.000 N 
ATOM      5  C   UNL     1      -0.726  10.990  21.081  0.00  0.00    +0.000 A 
ATOM      6  C   UNL     1      -0.455  10.658  22.421  0.00  0.00    +0.000 A 
ATOM      7  C   UNL     1       0.402   9.601  22.748  0.00  0.00    +0.000 A 
ATOM      8  C   UNL     1       1.005   8.860  21.742  0.00  0.00    +0.000 A 
ATOM      9  C   UNL     1       0.744   9.165  20.410  0.00  0.00    +0.000 A 
ATOM     10  C   UNL     1      -0.128  10.213  20.076  0.00  0.00    +0.000 A 
ATOM     11  S   UNL     1      -0.440  10.532  18.360  0.00  0.00    +0.000 S 
ATOM     12  C   UNL     1      -2.112  11.121  18.523  0.00  0.00    +0.000 A 
ATOM     13  C   UNL     1      -2.954  10.963  17.420  0.00  0.00    +0.000 A 
ATOM     14  C   UNL     1      -4.265  11.433  17.462  0.00  0.00    +0.000 A 
ATOM     15  C   UNL     1      -4.787  12.040  18.617  0.00  0.00    +0.000 A 
ATOM     16  C   UNL     1      -3.915  12.207  19.710  0.00  0.00    +0.000 A 
ATOM     17  C   UNL     1      -2.570  11.777  19.682  0.00  0.00    +0.000 A 
ENDROOT
BRANCH  15  18
ATOM     18  C   UNL     1      -6.241  12.517  18.634  0.00  0.00    +0.000 C 
ATOM     19  C   UNL     1      -7.095  12.210  19.923  0.00  0.00    +0.000 C 
ATOM     20  N   UNL     1      -6.916  13.124  21.068  0.00  0.00    +0.000 NA
ATOM     21  C   UNL     1      -7.914  12.865  22.106  0.00  0.00    +0.000 C 
ATOM     22  C   UNL     1      -7.014  14.513  20.588  0.00  0.00    +0.000 C 
ATOM     23  C   UNL     1      -6.050  14.772  19.422  0.00  0.00    +0.000 C 
ATOM     24  O   UNL     1      -6.310  13.913  18.307  0.00  0.00    +0.000 OA
BRANCH  18  25
ATOM     25  O   UNL     1      -6.899  11.830  17.549  0.00  0.00    +0.000 OA
ATOM     26  H   UNL     1      -7.682  12.349  17.316  0.00  0.00    +0.000 HD
ENDBRANCH  18  25
ENDBRANCH  15  18
TORSDOF 2
ENDMDL
MODEL 7
REMARK VINA RESULT:      -6.2      1.483      1.871
REMARK  Name = 
REMARK  4 active torsions:
REMARK  status: ('A' for Active; 'I' for Inactive)
REMARK    1  A    between atoms: C_1  and  C_2
REMARK    2  A    between atoms: C_15  and  C_16
REMARK    3  A    between atoms: C_16  and  O_17
REMARK    4  A    between atoms: N_19  and  C_20
REMARK                            x       y       z     vdW  Elec       q    Type
REMARK                         _______ _______ _______ _____ _____    ______ ____
ROOT
ATOM      1  C   UNL     1      -0.784  14.580  19.554  0.00  0.00    +0.000 C 
ATOM      2  C   UNL     1      -1.857  13.971  20.442  0.00  0.00    +0.000 C 
ATOM      3  O   UNL     1      -2.213  14.607  21.436  0.00  0.00    +0.000 OA
ATOM      4  N   UNL     1      -2.480  12.820  19.929  0.00  0.00    +0.000 N 
ATOM      5  C   UNL     1      -1.762  11.814  19.196  0.00  0.00    +0.000 A 
ATOM      6  C   UNL     1      -0.466  11.455  19.606  0.00  0.00    +0.000 A 
ATOM      7  C   UNL     1       0.236  10.421  18.975  0.00  0.00    +0.000 A 
ATOM      8  C   UNL     1      -0.346   9.731  17.921  0.00  0.00    +0.000 A 
ATOM      9  C   UNL     1      -1.631  10.063  17.505  0.00  0.00    +0.000 A 
ATOM     10  C   UNL     1      -2.346  11.087  18.146  0.00  0.00    +0.000 A 
ATOM     11  S   UNL     1      -3.990  11.441  17.586  0.00  0.00    +0.000 S 
ATOM     12  C   UNL     1      -4.671  11.964  19.146  0.00  0.00    +0.000 A 
ATOM     13  C   UNL     1      -6.047  11.806  19.327  0.00  0.00    +0.000 A 
ATOM     14  C   UNL     1      -6.654  12.226  20.508  0.00  0.00    +0.000 A 
ATOM     15  C   UNL     1      -5.904  12.781  21.558  0.00  0.00    +0.000 A 
ATOM     16  C   UNL     1      -4.522  12.950  21.347  0.00  0.00    +0.000 A 
ATOM     17  C   UNL     1      -3.885  12.571  20.144  0.00  0.00    +0.000 A 
ENDROOT
BRANCH  15  18
ATOM     18  C   UNL     1      -6.604  13.205  22.851  0.00  0.00    +0.000 C 
ATOM     19  C   UNL     1      -5.830  14.187  23.812  0.00  0.00    +0.000 C 
ATOM     20  N   UNL     1      -5.877  15.622  23.468  0.00  0.00    +0.000 NA
ATOM     21  C   UNL     1      -5.315  16.436  24.545  0.00  0.00    +0.000 C 
ATOM     22  C   UNL     1      -7.276  16.002  23.204  0.00  0.00    +0.000 C 
ATOM     23  C   UNL     1      -7.916  15.084  22.154  0.00  0.00    +0.000 C 
ATOM     24  O   UNL     1      -7.916  13.713  22.564  0.00  0.00    +0.000 OA
BRANCH  18  25
ATOM     25  O   UNL     1      -6.812  11.993  23.607  0.00  0.00    +0.000 OA
ATOM     26  H   UNL     1      -7.360  12.225  24.372  0.00  0.00    +0.000 HD
ENDBRANCH  18  25
ENDBRANCH  15  18
TORSDOF 2
ENDMDL
MODEL 8
REMARK VINA RESULT:      -6.2      3.146      4.303
REMARK  Name = 
REMARK  4 active torsions:
REMARK  status: ('A' for Active; 'I' for Inactive)
REMARK    1  A    between atoms: C_1  and  C_2
REMARK    2  A    between atoms: C_15  and  C_16
REMARK    3  A    between atoms: C_16  and  O_17
REMARK    4  A    between atoms: N_19  and  C_20
REMARK                            x       y       z     vdW  Elec       q    Type
REMARK                         _______ _______ _______ _____ _____    ______ ____
ROOT
ATOM      1  C   UNL     1       1.113   9.315  22.659  0.00  0.00    +0.000 C 
ATOM      2  C   UNL     1      -0.185  10.095  22.527  0.00  0.00    +0.000 C 
ATOM      3  O   UNL     1      -1.144   9.738  23.214  0.00  0.00    +0.000 OA
ATOM      4  N   UNL     1      -0.102  11.277  21.772  0.00  0.00    +0.000 N 
ATOM      5  C   UNL     1       0.703  11.382  20.586  0.00  0.00    +0.000 A 
ATOM      6  C   UNL     1       0.764  10.296  19.695  0.00  0.00    +0.000 A 
ATOM      7  C   UNL     1       1.466  10.385  18.487  0.00  0.00    +0.000 A 
ATOM      8  C   UNL     1       2.122  11.560  18.152  0.00  0.00    +0.000 A 
ATOM      9  C   UNL     1       2.068  12.651  19.015  0.00  0.00    +0.000 A 
ATOM     10  C   UNL     1       1.350  12.573  20.218  0.00  0.00    +0.000 A 
ATOM     11  S   UNL     1       1.297  14.006  21.259  0.00  0.00    +0.000 S 
ATOM     12  C   UNL     1      -0.318  13.740  21.959  0.00  0.00    +0.000 A 
ATOM     13  C   UNL     1      -1.020  14.866  22.392  0.00  0.00    +0.000 A 
ATOM     14  C   UNL     1      -2.274  14.730  22.983  0.00  0.00    +0.000 A 
ATOM     15  C   UNL     1      -2.882  13.472  23.125  0.00  0.00    +0.000 A 
ATOM     16  C   UNL     1      -2.149  12.347  22.699  0.00  0.00    +0.000 A 
ATOM     17  C   UNL     1      -0.859  12.451  22.134  0.00  0.00    +0.000 A 
ENDROOT
BRANCH  15  18
ATOM     18  C   UNL     1      -4.274  13.366  23.753  0.00  0.00    +0.000 C 
ATOM     19  C   UNL     1      -5.106  14.697  23.911  0.00  0.00    +0.000 C 
ATOM     20  N   UNL     1      -5.825  15.174  22.713  0.00  0.00    +0.000 NA
ATOM     21  C   UNL     1      -6.723  16.278  23.047  0.00  0.00    +0.000 C 
ATOM     22  C   UNL     1      -6.576  14.049  22.129  0.00  0.00    +0.000 C 
ATOM     23  C   UNL     1      -5.665  12.839  21.875  0.00  0.00    +0.000 C 
ATOM     24  O   UNL     1      -5.051  12.366  23.077  0.00  0.00    +0.000 OA
BRANCH  18  25
ATOM     25  O   UNL     1      -4.071  12.865  25.091  0.00  0.00    +0.000 OA
ATOM     26  H   UNL     1      -3.198  13.170  25.380  0.00  0.00    +0.000 HD
ENDBRANCH  18  25
ENDBRANCH  15  18
TORSDOF 2
ENDMDL
MODEL 9
REMARK VINA RESULT:      -6.1      2.497      3.511
REMARK  Name = 
REMARK  4 active torsions:
REMARK  status: ('A' for Active; 'I' for Inactive)
REMARK    1  A    between atoms: C_1  and  C_2
REMARK    2  A    between atoms: C_15  and  C_16
REMARK    3  A    between atoms: C_16  and  O_17
REMARK    4  A    between atoms: N_19  and  C_20
REMARK                            x       y       z     vdW  Elec       q    Type
REMARK                         _______ _______ _______ _____ _____    ______ ____
ROOT
ATOM      1  C   UNL     1      -0.606  14.302  19.826  0.00  0.00    +0.000 C 
ATOM      2  C   UNL     1      -1.896  13.568  20.151  0.00  0.00    +0.000 C 
ATOM      3  O   UNL     1      -2.750  14.167  20.808  0.00  0.00    +0.000 OA
ATOM      4  N   UNL     1      -2.069  12.336  19.497  0.00  0.00    +0.000 N 
ATOM      5  C   UNL     1      -0.982  11.424  19.268  0.00  0.00    +0.000 A 
ATOM      6  C   UNL     1      -0.006  11.250  20.265  0.00  0.00    +0.000 A 
ATOM      7  C   UNL     1       1.022  10.310  20.121  0.00  0.00    +0.000 A 
ATOM      8  C   UNL     1       1.092   9.530  18.975  0.00  0.00    +0.000 A 
ATOM      9  C   UNL     1       0.131   9.679  17.980  0.00  0.00    +0.000 A 
ATOM     10  C   UNL     1      -0.911  10.608  18.128  0.00  0.00    +0.000 A 
ATOM     11  S   UNL     1      -2.119  10.728  16.836  0.00  0.00    +0.000 S 
ATOM     12  C   UNL     1      -3.513  11.179  17.847  0.00  0.00    +0.000 A 
ATOM     13  C   UNL     1      -4.782  10.841  17.373  0.00  0.00    +0.000 A 
ATOM     14  C   UNL     1      -5.921  11.194  18.094  0.00  0.00    +0.000 A 
ATOM     15  C   UNL     1      -5.827  11.863  19.325  0.00  0.00    +0.000 A 
ATOM     16  C   UNL     1      -4.539  12.213  19.776  0.00  0.00    +0.000 A 
ATOM     17  C   UNL     1      -3.369  11.903  19.047  0.00  0.00    +0.000 A 
ENDROOT
BRANCH  15  18
ATOM     18  C   UNL     1      -7.100  12.209  20.101  0.00  0.00    +0.000 C 
ATOM     19  C   UNL     1      -6.945  12.599  21.622  0.00  0.00    +0.000 C 
ATOM     20  N   UNL     1      -6.545  13.991  21.910  0.00  0.00    +0.000 NA
ATOM     21  C   UNL     1      -6.651  14.280  23.339  0.00  0.00    +0.000 C 
ATOM     22  C   UNL     1      -7.399  14.902  21.129  0.00  0.00    +0.000 C 
ATOM     23  C   UNL     1      -7.386  14.542  19.637  0.00  0.00    +0.000 C 
ATOM     24  O   UNL     1      -7.853  13.210  19.401  0.00  0.00    +0.000 OA
BRANCH  18  25
ATOM     25  O   UNL     1      -7.917  11.019  20.079  0.00  0.00    +0.000 OA
ATOM     26  H   UNL     1      -8.791  11.268  20.413  0.00  0.00    +0.000 HD
ENDBRANCH  18  25
ENDBRANCH  15  18
TORSDOF 2
ENDMDL
