MODEL 1
REMARK VINA RESULT:      -7.5      0.000      0.000
REMARK  Name = 
REMARK  18 active torsions:
REMARK  status: ('A' for Active; 'I' for Inactive)
REMARK    1  A    between atoms: C_1  and  C_2
REMARK    2  A    between atoms: N_4  and  C_5
REMARK    3  A    between atoms: C_5  and  C_6
REMARK    4  A    between atoms: C_5  and  C_14
REMARK    5  A    between atoms: C_6  and  C_7
REMARK    6  A    between atoms: C_10  and  O_11
REMARK    7  A    between atoms: N_16  and  C_17
REMARK    8  A    between atoms: C_17  and  C_18
REMARK    9  A    between atoms: C_17  and  C_31
REMARK   10  A    between atoms: N_20  and  C_21
REMARK   11  A    between atoms: C_21  and  C_22
REMARK   12  A    between atoms: C_21  and  C_23
REMARK   13  A    between atoms: N_25  and  C_26
REMARK   14  A    between atoms: C_26  and  C_27
REMARK   15  A    between atoms: C_27  and  C_28
REMARK   16  A    between atoms: C_28  and  O_30
REMARK   17  A    between atoms: C_31  and  C_32
REMARK   18  A    between atoms: C_31  and  C_33
REMARK                            x       y       z     vdW  Elec       q    Type
REMARK                         _______ _______ _______ _____ _____    ______ ____
ROOT
ATOM      1  C   UNL     1       3.065   6.461  18.883  0.00  0.00    +0.000 C 
ENDROOT
BRANCH   1   4
ATOM      2  C   UNL     1       1.632   8.482  19.337  0.00  0.00    +0.000 C 
ATOM      3  O   UNL     1       1.789   8.399  20.558  0.00  0.00    +0.000 OA
ATOM      4  N   UNL     1       2.152   7.544  18.476  0.00  0.00    +0.000 N 
ATOM      5  H   UNL     1       2.036   7.646  17.473  0.00  0.00    +0.000 HD
BRANCH   2   6
ATOM      6  C   UNL     1       0.751   9.609  18.710  0.00  0.00    +0.000 C 
BRANCH   6  10
ATOM      7  C   UNL     1       2.587  12.911  18.144  0.00  0.00    +0.000 C 
ATOM      8  C   UNL     1       1.651  11.946  18.819  0.00  0.00    +0.000 C 
ATOM      9  O   UNL     1       0.936  12.279  19.758  0.00  0.00    +0.000 OA
ATOM     10  N   UNL     1       1.649  10.689  18.267  0.00  0.00    +0.000 N 
ATOM     11  H   UNL     1       2.383  10.421  17.618  0.00  0.00    +0.000 HD
ENDBRANCH   6  10
BRANCH   6  12
ATOM     12  C   UNL     1      -0.199   9.110  17.594  0.00  0.00    +0.000 C 
BRANCH  12  13
ATOM     13  C   UNL     1      -1.480   9.900  17.436  0.00  0.00    +0.000 A 
ATOM     14  C   UNL     1      -2.227   9.801  16.254  0.00  0.00    +0.000 A 
ATOM     15  C   UNL     1      -3.377  10.578  16.077  0.00  0.00    +0.000 A 
ATOM     16  C   UNL     1      -3.781  11.446  17.080  0.00  0.00    +0.000 A 
ATOM     17  C   UNL     1      -3.085  11.520  18.277  0.00  0.00    +0.000 A 
ATOM     18  C   UNL     1      -1.945  10.740  18.460  0.00  0.00    +0.000 A 
BRANCH  16  19
ATOM     19  O   UNL     1      -4.871  12.250  16.929  0.00  0.00    +0.000 OA
ATOM     20  H   UNL     1      -5.649  11.686  16.800  0.00  0.00    +0.000 HD
ENDBRANCH  16  19
ENDBRANCH  12  13
ENDBRANCH   6  12
ENDBRANCH   2   6
ENDBRANCH   1   4
BRANCH   1  21
ATOM     21  C   UNL     1       4.360   6.662  18.042  0.00  0.00    +0.000 C 
ATOM     22  O   UNL     1       4.356   7.351  17.018  0.00  0.00    +0.000 OA
ATOM     23  N   UNL     1       5.504   6.050  18.500  0.00  0.00    +0.000 N 
ATOM     24  H   UNL     1       5.501   5.516  19.363  0.00  0.00    +0.000 HD
BRANCH  23  25
ATOM     25  C   UNL     1       6.795   6.171  17.813  0.00  0.00    +0.000 C 
ATOM     26  C   UNL     1       7.960   6.201  18.801  0.00  0.00    +0.000 C 
BRANCH  25  27
ATOM     27  C   UNL     1       6.967   4.981  16.846  0.00  0.00    +0.000 C 
ATOM     28  O   UNL     1       7.957   4.250  16.875  0.00  0.00    +0.000 OA
ATOM     29  N   UNL     1       5.952   4.828  15.925  0.00  0.00    +0.000 N 
ATOM     30  H   UNL     1       5.070   5.312  16.080  0.00  0.00    +0.000 HD
BRANCH  29  31
ATOM     31  C   UNL     1       5.921   3.726  14.978  0.00  0.00    +0.000 C 
BRANCH  31  32
ATOM     32  C   UNL     1       6.457   4.110  13.597  0.00  0.00    +0.000 C 
BRANCH  32  33
ATOM     33  C   UNL     1       5.800   3.310  12.500  0.00  0.00    +0.000 C 
ATOM     34  O   UNL     1       4.677   3.524  12.057  0.00  0.00    +0.000 OA
BRANCH  33  35
ATOM     35  O   UNL     1       6.572   2.294  12.055  0.00  0.00    +0.000 OA
ATOM     36  H   UNL     1       6.223   1.852  11.257  0.00  0.00    +0.000 HD
ENDBRANCH  33  35
ENDBRANCH  32  33
ENDBRANCH  31  32
ENDBRANCH  29  31
ENDBRANCH  25  27
ENDBRANCH  23  25
ENDBRANCH   1  21
BRANCH   1  37
ATOM     37  C   UNL     1       2.390   5.075  18.733  0.00  0.00    +0.000 C 
ATOM     38  C   UNL     1       1.600   4.644  19.975  0.00  0.00    +0.000 C 
ATOM     39  C   UNL     1       1.505   4.961  17.491  0.00  0.00    +0.000 C 
ENDBRANCH   1  37
TORSDOF 14
ENDMDL
MODEL 2
REMARK VINA RESULT:      -7.1      0.788      1.308
REMARK  Name = 
REMARK  18 active torsions:
REMARK  status: ('A' for Active; 'I' for Inactive)
REMARK    1  A    between atoms: C_1  and  C_2
REMARK    2  A    between atoms: N_4  and  C_5
REMARK    3  A    between atoms: C_5  and  C_6
REMARK    4  A    between atoms: C_5  and  C_14
REMARK    5  A    between atoms: C_6  and  C_7
REMARK    6  A    between atoms: C_10  and  O_11
REMARK    7  A    between atoms: N_16  and  C_17
REMARK    8  A    between atoms: C_17  and  C_18
REMARK    9  A    between atoms: C_17  and  C_31
REMARK   10  A    between atoms: N_20  and  C_21
REMARK   11  A    between atoms: C_21  and  C_22
REMARK   12  A    between atoms: C_21  and  C_23
REMARK   13  A    between atoms: N_25  and  C_26
REMARK   14  A    between atoms: C_26  and  C_27
REMARK   15  A    between atoms: C_27  and  C_28
REMARK   16  A    between atoms: C_28  and  O_30
REMARK   17  A    between atoms: C_31  and  C_32
REMARK   18  A    between atoms: C_31  and  C_33
REMARK                            x       y       z     vdW  Elec       q    Type
REMARK                         _______ _______ _______ _____ _____    ______ ____
ROOT
ATOM      1  C   UNL     1       2.945   6.721  19.032  0.00  0.00    +0.000 C 
ENDROOT
BRANCH   1   4
ATOM      2  C   UNL     1       1.468   8.726  19.404  0.00  0.00    +0.000 C 
ATOM      3  O   UNL     1       1.467   8.580  20.629  0.00  0.00    +0.000 OA
ATOM      4  N   UNL     1       2.092   7.830  18.569  0.00  0.00    +0.000 N 
ATOM      5  H   UNL     1       2.106   7.984  17.565  0.00  0.00    +0.000 HD
BRANCH   2   6
ATOM      6  C   UNL     1       0.675   9.891  18.728  0.00  0.00    +0.000 C 
BRANCH   6  10
ATOM      7  C   UNL     1       2.707  13.082  18.193  0.00  0.00    +0.000 C 
ATOM      8  C   UNL     1       1.691  12.180  18.841  0.00  0.00    +0.000 C 
ATOM      9  O   UNL     1       0.954  12.567  19.740  0.00  0.00    +0.000 OA
ATOM     10  N   UNL     1       1.648  10.914  18.310  0.00  0.00    +0.000 N 
ATOM     11  H   UNL     1       2.395  10.596  17.699  0.00  0.00    +0.000 HD
ENDBRANCH   6  10
BRANCH   6  12
ATOM     12  C   UNL     1      -0.256   9.429  17.581  0.00  0.00    +0.000 C 
BRANCH  12  13
ATOM     13  C   UNL     1      -1.573  10.167  17.482  0.00  0.00    +0.000 A 
ATOM     14  C   UNL     1      -1.999  10.992  18.532  0.00  0.00    +0.000 A 
ATOM     15  C   UNL     1      -3.245  11.625  18.474  0.00  0.00    +0.000 A 
ATOM     16  C   UNL     1      -4.059  11.437  17.367  0.00  0.00    +0.000 A 
ATOM     17  C   UNL     1      -3.634  10.667  16.294  0.00  0.00    +0.000 A 
ATOM     18  C   UNL     1      -2.389  10.044  16.347  0.00  0.00    +0.000 A 
BRANCH  16  19
ATOM     19  O   UNL     1      -5.298  12.002  17.290  0.00  0.00    +0.000 OA
ATOM     20  H   UNL     1      -5.796  11.750  18.084  0.00  0.00    +0.000 HD
ENDBRANCH  16  19
ENDBRANCH  12  13
ENDBRANCH   6  12
ENDBRANCH   2   6
ENDBRANCH   1   4
BRANCH   1  21
ATOM     21  C   UNL     1       4.059   6.565  17.954  0.00  0.00    +0.000 C 
ATOM     22  O   UNL     1       3.970   7.128  16.860  0.00  0.00    +0.000 OA
ATOM     23  N   UNL     1       5.144   5.787  18.285  0.00  0.00    +0.000 N 
ATOM     24  H   UNL     1       5.220   5.360  19.203  0.00  0.00    +0.000 HD
BRANCH  23  25
ATOM     25  C   UNL     1       6.271   5.571  17.370  0.00  0.00    +0.000 C 
ATOM     26  C   UNL     1       7.493   5.018  18.101  0.00  0.00    +0.000 C 
BRANCH  25  27
ATOM     27  C   UNL     1       5.840   4.587  16.262  0.00  0.00    +0.000 C 
ATOM     28  O   UNL     1       5.652   3.390  16.485  0.00  0.00    +0.000 OA
ATOM     29  N   UNL     1       5.725   5.140  15.004  0.00  0.00    +0.000 N 
ATOM     30  H   UNL     1       5.679   6.153  14.914  0.00  0.00    +0.000 HD
BRANCH  29  31
ATOM     31  C   UNL     1       5.274   4.373  13.856  0.00  0.00    +0.000 C 
BRANCH  31  32
ATOM     32  C   UNL     1       6.426   3.773  13.047  0.00  0.00    +0.000 C 
BRANCH  32  33
ATOM     33  C   UNL     1       5.928   2.836  11.974  0.00  0.00    +0.000 C 
ATOM     34  O   UNL     1       4.781   2.820  11.540  0.00  0.00    +0.000 OA
BRANCH  33  35
ATOM     35  O   UNL     1       6.878   1.980  11.541  0.00  0.00    +0.000 OA
ATOM     36  H   UNL     1       7.754   2.391  11.414  0.00  0.00    +0.000 HD
ENDBRANCH  33  35
ENDBRANCH  32  33
ENDBRANCH  31  32
ENDBRANCH  29  31
ENDBRANCH  25  27
ENDBRANCH  23  25
ENDBRANCH   1  21
BRANCH   1  37
ATOM     37  C   UNL     1       2.107   5.447  19.303  0.00  0.00    +0.000 C 
ATOM     38  C   UNL     1       1.954   4.545  18.072  0.00  0.00    +0.000 C 
ATOM     39  C   UNL     1       2.617   4.624  20.488  0.00  0.00    +0.000 C 
ENDBRANCH   1  37
TORSDOF 14
ENDMDL
MODEL 3
REMARK VINA RESULT:      -7.1      2.265      3.348
REMARK  Name = 
REMARK  18 active torsions:
REMARK  status: ('A' for Active; 'I' for Inactive)
REMARK    1  A    between atoms: C_1  and  C_2
REMARK    2  A    between atoms: N_4  and  C_5
REMARK    3  A    between atoms: C_5  and  C_6
REMARK    4  A    between atoms: C_5  and  C_14
REMARK    5  A    between atoms: C_6  and  C_7
REMARK    6  A    between atoms: C_10  and  O_11
REMARK    7  A    between atoms: N_16  and  C_17
REMARK    8  A    between atoms: C_17  and  C_18
REMARK    9  A    between atoms: C_17  and  C_31
REMARK   10  A    between atoms: N_20  and  C_21
REMARK   11  A    between atoms: C_21  and  C_22
REMARK   12  A    between atoms: C_21  and  C_23
REMARK   13  A    between atoms: N_25  and  C_26
REMARK   14  A    between atoms: C_26  and  C_27
REMARK   15  A    between atoms: C_27  and  C_28
REMARK   16  A    between atoms: C_28  and  O_30
REMARK   17  A    between atoms: C_31  and  C_32
REMARK   18  A    between atoms: C_31  and  C_33
REMARK                            x       y       z     vdW  Elec       q    Type
REMARK                         _______ _______ _______ _____ _____    ______ ____
ROOT
ATOM      1  C   UNL     1       3.407   5.003  19.114  0.00  0.00    +0.000 C 
ENDROOT
BRANCH   1   4
ATOM      2  C   UNL     1       2.015   6.778  20.235  0.00  0.00    +0.000 C 
ATOM      3  O   UNL     1       1.288   5.949  20.789  0.00  0.00    +0.000 OA
ATOM      4  N   UNL     1       3.005   6.400  19.359  0.00  0.00    +0.000 N 
ATOM      5  H   UNL     1       3.611   7.095  18.936  0.00  0.00    +0.000 HD
BRANCH   2   6
ATOM      6  C   UNL     1       1.788   8.311  20.430  0.00  0.00    +0.000 C 
BRANCH   6  10
ATOM      7  C   UNL     1      -0.364   9.847  17.671  0.00  0.00    +0.000 C 
ATOM      8  C   UNL     1       0.904   9.463  18.386  0.00  0.00    +0.000 C 
ATOM      9  O   UNL     1       2.009   9.816  17.991  0.00  0.00    +0.000 OA
ATOM     10  N   UNL     1       0.701   8.724  19.525  0.00  0.00    +0.000 N 
ATOM     11  H   UNL     1      -0.209   8.311  19.705  0.00  0.00    +0.000 HD
ENDBRANCH   6  10
BRANCH   6  12
ATOM     12  C   UNL     1       1.547   8.725  21.901  0.00  0.00    +0.000 C 
BRANCH  12  13
ATOM     13  C   UNL     1       0.629   9.912  22.097  0.00  0.00    +0.000 A 
ATOM     14  C   UNL     1      -0.445   9.833  22.994  0.00  0.00    +0.000 A 
ATOM     15  C   UNL     1      -1.333  10.904  23.130  0.00  0.00    +0.000 A 
ATOM     16  C   UNL     1      -1.145  12.052  22.376  0.00  0.00    +0.000 A 
ATOM     17  C   UNL     1      -0.059  12.171  21.522  0.00  0.00    +0.000 A 
ATOM     18  C   UNL     1       0.833  11.108  21.392  0.00  0.00    +0.000 A 
BRANCH  16  19
ATOM     19  O   UNL     1      -2.013  13.102  22.448  0.00  0.00    +0.000 OA
ATOM     20  H   UNL     1      -2.917  12.750  22.420  0.00  0.00    +0.000 HD
ENDBRANCH  16  19
ENDBRANCH  12  13
ENDBRANCH   6  12
ENDBRANCH   2   6
ENDBRANCH   1   4
BRANCH   1  21
ATOM     21  C   UNL     1       4.944   5.043  18.868  0.00  0.00    +0.000 C 
ATOM     22  O   UNL     1       5.678   4.135  19.268  0.00  0.00    +0.000 OA
ATOM     23  N   UNL     1       5.439   6.123  18.174  0.00  0.00    +0.000 N 
ATOM     24  H   UNL     1       4.818   6.844  17.820  0.00  0.00    +0.000 HD
BRANCH  23  25
ATOM     25  C   UNL     1       6.864   6.276  17.860  0.00  0.00    +0.000 C 
ATOM     26  C   UNL     1       7.745   5.958  19.066  0.00  0.00    +0.000 C 
BRANCH  25  27
ATOM     27  C   UNL     1       7.228   5.337  16.691  0.00  0.00    +0.000 C 
ATOM     28  O   UNL     1       7.958   4.357  16.839  0.00  0.00    +0.000 OA
ATOM     29  N   UNL     1       6.708   5.704  15.467  0.00  0.00    +0.000 N 
ATOM     30  H   UNL     1       5.949   6.381  15.437  0.00  0.00    +0.000 HD
BRANCH  29  31
ATOM     31  C   UNL     1       6.900   4.903  14.270  0.00  0.00    +0.000 C 
BRANCH  31  32
ATOM     32  C   UNL     1       5.866   3.785  14.125  0.00  0.00    +0.000 C 
BRANCH  32  33
ATOM     33  C   UNL     1       5.670   3.387  12.683  0.00  0.00    +0.000 C 
ATOM     34  O   UNL     1       4.651   3.599  12.033  0.00  0.00    +0.000 OA
BRANCH  33  35
ATOM     35  O   UNL     1       6.736   2.738  12.166  0.00  0.00    +0.000 OA
ATOM     36  H   UNL     1       6.506   1.920  11.686  0.00  0.00    +0.000 HD
ENDBRANCH  33  35
ENDBRANCH  32  33
ENDBRANCH  31  32
ENDBRANCH  29  31
ENDBRANCH  25  27
ENDBRANCH  23  25
ENDBRANCH   1  21
BRANCH   1  37
ATOM     37  C   UNL     1       2.572   4.373  17.971  0.00  0.00    +0.000 C 
ATOM     38  C   UNL     1       3.429   3.709  16.886  0.00  0.00    +0.000 C 
ATOM     39  C   UNL     1       1.508   3.391  18.466  0.00  0.00    +0.000 C 
ENDBRANCH   1  37
TORSDOF 14
ENDMDL
MODEL 4
REMARK VINA RESULT:      -6.9      3.350      5.359
REMARK  Name = 
REMARK  18 active torsions:
REMARK  status: ('A' for Active; 'I' for Inactive)
REMARK    1  A    between atoms: C_1  and  C_2
REMARK    2  A    between atoms: N_4  and  C_5
REMARK    3  A    between atoms: C_5  and  C_6
REMARK    4  A    between atoms: C_5  and  C_14
REMARK    5  A    between atoms: C_6  and  C_7
REMARK    6  A    between atoms: C_10  and  O_11
REMARK    7  A    between atoms: N_16  and  C_17
REMARK    8  A    between atoms: C_17  and  C_18
REMARK    9  A    between atoms: C_17  and  C_31
REMARK   10  A    between atoms: N_20  and  C_21
REMARK   11  A    between atoms: C_21  and  C_22
REMARK   12  A    between atoms: C_21  and  C_23
REMARK   13  A    between atoms: N_25  and  C_26
REMARK   14  A    between atoms: C_26  and  C_27
REMARK   15  A    between atoms: C_27  and  C_28
REMARK   16  A    between atoms: C_28  and  O_30
REMARK   17  A    between atoms: C_31  and  C_32
REMARK   18  A    between atoms: C_31  and  C_33
REMARK                            x       y       z     vdW  Elec       q    Type
REMARK                         _______ _______ _______ _____ _____    ______ ____
ROOT
ATOM      1  C   UNL     1       1.374   9.442  20.089  0.00  0.00    +0.000 C 
ENDROOT
BRANCH   1   4
ATOM      2  C   UNL     1       0.323  11.629  19.414  0.00  0.00    +0.000 C 
ATOM      3  O   UNL     1       1.377  12.255  19.561  0.00  0.00    +0.000 OA
ATOM      4  N   UNL     1       0.228  10.292  19.720  0.00  0.00    +0.000 N 
ATOM      5  H   UNL     1      -0.640   9.789  19.565  0.00  0.00    +0.000 HD
BRANCH   2   6
ATOM      6  C   UNL     1      -0.987  12.348  18.959  0.00  0.00    +0.000 C 
BRANCH   6  10
ATOM      7  C   UNL     1      -3.692   9.950  17.720  0.00  0.00    +0.000 C 
ATOM      8  C   UNL     1      -2.566  10.944  17.611  0.00  0.00    +0.000 C 
ATOM      9  O   UNL     1      -2.191  11.388  16.532  0.00  0.00    +0.000 OA
ATOM     10  N   UNL     1      -2.037  11.324  18.819  0.00  0.00    +0.000 N 
ATOM     11  H   UNL     1      -2.259  10.796  19.658  0.00  0.00    +0.000 HD
ENDBRANCH   6  10
BRANCH   6  12
ATOM     12  C   UNL     1      -1.403  13.526  19.873  0.00  0.00    +0.000 C 
BRANCH  12  13
ATOM     13  C   UNL     1      -2.168  13.138  21.119  0.00  0.00    +0.000 A 
ATOM     14  C   UNL     1      -1.514  12.481  22.171  0.00  0.00    +0.000 A 
ATOM     15  C   UNL     1      -2.231  12.063  23.298  0.00  0.00    +0.000 A 
ATOM     16  C   UNL     1      -3.594  12.306  23.374  0.00  0.00    +0.000 A 
ATOM     17  C   UNL     1      -4.249  13.000  22.368  0.00  0.00    +0.000 A 
ATOM     18  C   UNL     1      -3.535  13.426  21.249  0.00  0.00    +0.000 A 
BRANCH  16  19
ATOM     19  O   UNL     1      -4.335  11.877  24.435  0.00  0.00    +0.000 OA
ATOM     20  H   UNL     1      -5.193  11.571  24.102  0.00  0.00    +0.000 HD
ENDBRANCH  16  19
ENDBRANCH  12  13
ENDBRANCH   6  12
ENDBRANCH   2   6
ENDBRANCH   1   4
BRANCH   1  21
ATOM     21  C   UNL     1       1.688   8.586  18.827  0.00  0.00    +0.000 C 
ATOM     22  O   UNL     1       1.385   8.979  17.697  0.00  0.00    +0.000 OA
ATOM     23  N   UNL     1       2.329   7.385  19.030  0.00  0.00    +0.000 N 
ATOM     24  H   UNL     1       2.605   7.091  19.962  0.00  0.00    +0.000 HD
BRANCH  23  25
ATOM     25  C   UNL     1       2.698   6.489  17.928  0.00  0.00    +0.000 C 
ATOM     26  C   UNL     1       4.197   6.540  17.638  0.00  0.00    +0.000 C 
BRANCH  25  27
ATOM     27  C   UNL     1       2.289   5.046  18.289  0.00  0.00    +0.000 C 
ATOM     28  O   UNL     1       1.561   4.792  19.249  0.00  0.00    +0.000 OA
ATOM     29  N   UNL     1       2.832   4.068  17.484  0.00  0.00    +0.000 N 
ATOM     30  H   UNL     1       3.241   4.336  16.591  0.00  0.00    +0.000 HD
BRANCH  29  31
ATOM     31  C   UNL     1       2.508   2.661  17.643  0.00  0.00    +0.000 C 
BRANCH  31  32
ATOM     32  C   UNL     1       3.672   1.837  18.198  0.00  0.00    +0.000 C 
BRANCH  32  33
ATOM     33  C   UNL     1       3.890   2.096  19.668  0.00  0.00    +0.000 C 
ATOM     34  O   UNL     1       4.966   1.978  20.245  0.00  0.00    +0.000 OA
BRANCH  33  35
ATOM     35  O   UNL     1       2.759   2.456  20.312  0.00  0.00    +0.000 OA
ATOM     36  H   UNL     1       2.726   3.401  20.557  0.00  0.00    +0.000 HD
ENDBRANCH  33  35
ENDBRANCH  32  33
ENDBRANCH  31  32
ENDBRANCH  29  31
ENDBRANCH  25  27
ENDBRANCH  23  25
ENDBRANCH   1  21
BRANCH   1  37
ATOM     37  C   UNL     1       1.079   8.634  21.377  0.00  0.00    +0.000 C 
ATOM     38  C   UNL     1       1.599   9.308  22.652  0.00  0.00    +0.000 C 
ATOM     39  C   UNL     1      -0.399   8.277  21.545  0.00  0.00    +0.000 C 
ENDBRANCH   1  37
TORSDOF 14
ENDMDL
MODEL 5
REMARK VINA RESULT:      -6.9      1.530      2.041
REMARK  Name = 
REMARK  18 active torsions:
REMARK  status: ('A' for Active; 'I' for Inactive)
REMARK    1  A    between atoms: C_1  and  C_2
REMARK    2  A    between atoms: N_4  and  C_5
REMARK    3  A    between atoms: C_5  and  C_6
REMARK    4  A    between atoms: C_5  and  C_14
REMARK    5  A    between atoms: C_6  and  C_7
REMARK    6  A    between atoms: C_10  and  O_11
REMARK    7  A    between atoms: N_16  and  C_17
REMARK    8  A    between atoms: C_17  and  C_18
REMARK    9  A    between atoms: C_17  and  C_31
REMARK   10  A    between atoms: N_20  and  C_21
REMARK   11  A    between atoms: C_21  and  C_22
REMARK   12  A    between atoms: C_21  and  C_23
REMARK   13  A    between atoms: N_25  and  C_26
REMARK   14  A    between atoms: C_26  and  C_27
REMARK   15  A    between atoms: C_27  and  C_28
REMARK   16  A    between atoms: C_28  and  O_30
REMARK   17  A    between atoms: C_31  and  C_32
REMARK   18  A    between atoms: C_31  and  C_33
REMARK                            x       y       z     vdW  Elec       q    Type
REMARK                         _______ _______ _______ _____ _____    ______ ____
ROOT
ATOM      1  C   UNL     1       3.176   6.176  19.095  0.00  0.00    +0.000 C 
ENDROOT
BRANCH   1   4
ATOM      2  C   UNL     1       1.672   7.913  20.127  0.00  0.00    +0.000 C 
ATOM      3  O   UNL     1       2.235   7.843  21.223  0.00  0.00    +0.000 OA
ATOM      4  N   UNL     1       2.020   7.090  19.082  0.00  0.00    +0.000 N 
ATOM      5  H   UNL     1       1.565   7.183  18.179  0.00  0.00    +0.000 HD
BRANCH   2   6
ATOM      6  C   UNL     1       0.467   8.879  19.897  0.00  0.00    +0.000 C 
BRANCH   6  10
ATOM      7  C   UNL     1      -0.516  10.352  23.284  0.00  0.00    +0.000 C 
ATOM      8  C   UNL     1      -0.421   9.309  22.202  0.00  0.00    +0.000 C 
ATOM      9  O   UNL     1      -0.981   8.222  22.292  0.00  0.00    +0.000 OA
ATOM     10  N   UNL     1       0.311   9.702  21.109  0.00  0.00    +0.000 N 
ATOM     11  H   UNL     1       0.896  10.530  21.164  0.00  0.00    +0.000 HD
ENDBRANCH   6  10
BRANCH   6  12
ATOM     12  C   UNL     1       0.577   9.718  18.601  0.00  0.00    +0.000 C 
BRANCH  12  13
ATOM     13  C   UNL     1      -0.727  10.288  18.088  0.00  0.00    +0.000 A 
ATOM     14  C   UNL     1      -1.441   9.621  17.083  0.00  0.00    +0.000 A 
ATOM     15  C   UNL     1      -2.613  10.177  16.560  0.00  0.00    +0.000 A 
ATOM     16  C   UNL     1      -3.072  11.393  17.044  0.00  0.00    +0.000 A 
ATOM     17  C   UNL     1      -2.409  12.043  18.075  0.00  0.00    +0.000 A 
ATOM     18  C   UNL     1      -1.247  11.486  18.604  0.00  0.00    +0.000 A 
BRANCH  16  19
ATOM     19  O   UNL     1      -4.187  11.989  16.532  0.00  0.00    +0.000 OA
ATOM     20  H   UNL     1      -4.282  12.860  16.946  0.00  0.00    +0.000 HD
ENDBRANCH  16  19
ENDBRANCH  12  13
ENDBRANCH   6  12
ENDBRANCH   2   6
ENDBRANCH   1   4
BRANCH   1  21
ATOM     21  C   UNL     1       4.106   6.652  17.941  0.00  0.00    +0.000 C 
ATOM     22  O   UNL     1       3.725   7.490  17.119  0.00  0.00    +0.000 OA
ATOM     23  N   UNL     1       5.369   6.110  17.891  0.00  0.00    +0.000 N 
ATOM     24  H   UNL     1       5.682   5.448  18.596  0.00  0.00    +0.000 HD
BRANCH  23  25
ATOM     25  C   UNL     1       6.351   6.483  16.867  0.00  0.00    +0.000 C 
ATOM     26  C   UNL     1       7.580   7.152  17.480  0.00  0.00    +0.000 C 
BRANCH  25  27
ATOM     27  C   UNL     1       6.781   5.219  16.093  0.00  0.00    +0.000 C 
ATOM     28  O   UNL     1       7.762   4.551  16.421  0.00  0.00    +0.000 OA
ATOM     29  N   UNL     1       6.011   4.922  14.989  0.00  0.00    +0.000 N 
ATOM     30  H   UNL     1       5.101   5.367  14.889  0.00  0.00    +0.000 HD
BRANCH  29  31
ATOM     31  C   UNL     1       6.236   3.736  14.180  0.00  0.00    +0.000 C 
BRANCH  31  32
ATOM     32  C   UNL     1       6.323   4.042  12.683  0.00  0.00    +0.000 C 
BRANCH  32  33
ATOM     33  C   UNL     1       5.897   2.861  11.846  0.00  0.00    +0.000 C 
ATOM     34  O   UNL     1       6.645   1.964  11.472  0.00  0.00    +0.000 OA
BRANCH  33  35
ATOM     35  O   UNL     1       4.587   2.894  11.517  0.00  0.00    +0.000 OA
ATOM     36  H   UNL     1       4.135   3.721  11.774  0.00  0.00    +0.000 HD
ENDBRANCH  33  35
ENDBRANCH  32  33
ENDBRANCH  31  32
ENDBRANCH  29  31
ENDBRANCH  25  27
ENDBRANCH  23  25
ENDBRANCH   1  21
BRANCH   1  37
ATOM     37  C   UNL     1       2.720   4.698  19.007  0.00  0.00    +0.000 C 
ATOM     38  C   UNL     1       2.128   4.163  20.316  0.00  0.00    +0.000 C 
ATOM     39  C   UNL     1       1.754   4.428  17.852  0.00  0.00    +0.000 C 
ENDBRANCH   1  37
TORSDOF 14
ENDMDL
MODEL 6
REMARK VINA RESULT:      -6.8      0.964      1.282
REMARK  Name = 
REMARK  18 active torsions:
REMARK  status: ('A' for Active; 'I' for Inactive)
REMARK    1  A    between atoms: C_1  and  C_2
REMARK    2  A    between atoms: N_4  and  C_5
REMARK    3  A    between atoms: C_5  and  C_6
REMARK    4  A    between atoms: C_5  and  C_14
REMARK    5  A    between atoms: C_6  and  C_7
REMARK    6  A    between atoms: C_10  and  O_11
REMARK    7  A    between atoms: N_16  and  C_17
REMARK    8  A    between atoms: C_17  and  C_18
REMARK    9  A    between atoms: C_17  and  C_31
REMARK   10  A    between atoms: N_20  and  C_21
REMARK   11  A    between atoms: C_21  and  C_22
REMARK   12  A    between atoms: C_21  and  C_23
REMARK   13  A    between atoms: N_25  and  C_26
REMARK   14  A    between atoms: C_26  and  C_27
REMARK   15  A    between atoms: C_27  and  C_28
REMARK   16  A    between atoms: C_28  and  O_30
REMARK   17  A    between atoms: C_31  and  C_32
REMARK   18  A    between atoms: C_31  and  C_33
REMARK                            x       y       z     vdW  Elec       q    Type
REMARK                         _______ _______ _______ _____ _____    ______ ____
ROOT
ATOM      1  C   UNL     1       2.891   6.926  19.034  0.00  0.00    +0.000 C 
ENDROOT
BRANCH   1   4
ATOM      2  C   UNL     1       1.346   8.756  19.813  0.00  0.00    +0.000 C 
ATOM      3  O   UNL     1       1.735   8.676  20.981  0.00  0.00    +0.000 OA
ATOM      4  N   UNL     1       1.801   7.898  18.839  0.00  0.00    +0.000 N 
ATOM      5  H   UNL     1       1.490   7.999  17.878  0.00  0.00    +0.000 HD
BRANCH   2   6
ATOM      6  C   UNL     1       0.241   9.779  19.397  0.00  0.00    +0.000 C 
BRANCH   6  10
ATOM      7  C   UNL     1       2.058  13.123  19.740  0.00  0.00    +0.000 C 
ATOM      8  C   UNL     1       1.685  11.808  19.109  0.00  0.00    +0.000 C 
ATOM      9  O   UNL     1       2.240  11.387  18.101  0.00  0.00    +0.000 OA
ATOM     10  N   UNL     1       0.704  11.123  19.783  0.00  0.00    +0.000 N 
ATOM     11  H   UNL     1       0.158  11.594  20.498  0.00  0.00    +0.000 HD
ENDBRANCH   6  10
BRANCH   6  12
ATOM     12  C   UNL     1      -0.172   9.680  17.909  0.00  0.00    +0.000 C 
BRANCH  12  13
ATOM     13  C   UNL     1      -1.556  10.200  17.587  0.00  0.00    +0.000 A 
ATOM     14  C   UNL     1      -2.236  11.010  18.507  0.00  0.00    +0.000 A 
ATOM     15  C   UNL     1      -3.541  11.440  18.243  0.00  0.00    +0.000 A 
ATOM     16  C   UNL     1      -4.161  11.065  17.060  0.00  0.00    +0.000 A 
ATOM     17  C   UNL     1      -3.487  10.309  16.113  0.00  0.00    +0.000 A 
ATOM     18  C   UNL     1      -2.183   9.887  16.371  0.00  0.00    +0.000 A 
BRANCH  16  19
ATOM     19  O   UNL     1      -5.446  11.428  16.784  0.00  0.00    +0.000 OA
ATOM     20  H   UNL     1      -5.961  10.622  16.623  0.00  0.00    +0.000 HD
ENDBRANCH  16  19
ENDBRANCH  12  13
ENDBRANCH   6  12
ENDBRANCH   2   6
ENDBRANCH   1   4
BRANCH   1  21
ATOM     21  C   UNL     1       3.870   7.144  17.843  0.00  0.00    +0.000 C 
ATOM     22  O   UNL     1       3.579   7.893  16.906  0.00  0.00    +0.000 OA
ATOM     23  N   UNL     1       5.074   6.479  17.893  0.00  0.00    +0.000 N 
ATOM     24  H   UNL     1       5.315   5.895  18.687  0.00  0.00    +0.000 HD
BRANCH  23  25
ATOM     25  C   UNL     1       6.093   6.609  16.845  0.00  0.00    +0.000 C 
ATOM     26  C   UNL     1       7.388   7.210  17.389  0.00  0.00    +0.000 C 
BRANCH  25  27
ATOM     27  C   UNL     1       6.381   5.217  16.244  0.00  0.00    +0.000 C 
ATOM     28  O   UNL     1       6.662   4.245  16.945  0.00  0.00    +0.000 OA
ATOM     29  N   UNL     1       6.339   5.158  14.867  0.00  0.00    +0.000 N 
ATOM     30  H   UNL     1       5.896   5.918  14.355  0.00  0.00    +0.000 HD
BRANCH  29  31
ATOM     31  C   UNL     1       6.527   3.916  14.136  0.00  0.00    +0.000 C 
BRANCH  31  32
ATOM     32  C   UNL     1       6.483   4.103  12.618  0.00  0.00    +0.000 C 
BRANCH  32  33
ATOM     33  C   UNL     1       5.615   3.065  11.952  0.00  0.00    +0.000 C 
ATOM     34  O   UNL     1       4.437   3.229  11.649  0.00  0.00    +0.000 OA
BRANCH  33  35
ATOM     35  O   UNL     1       6.261   1.899  11.734  0.00  0.00    +0.000 OA
ATOM     36  H   UNL     1       6.971   1.959  11.067  0.00  0.00    +0.000 HD
ENDBRANCH  33  35
ENDBRANCH  32  33
ENDBRANCH  31  32
ENDBRANCH  29  31
ENDBRANCH  25  27
ENDBRANCH  23  25
ENDBRANCH   1  21
BRANCH   1  37
ATOM     37  C   UNL     1       2.338   5.486  19.177  0.00  0.00    +0.000 C 
ATOM     38  C   UNL     1       1.456   5.292  20.416  0.00  0.00    +0.000 C 
ATOM     39  C   UNL     1       1.597   4.994  17.932  0.00  0.00    +0.000 C 
ENDBRANCH   1  37
TORSDOF 14
ENDMDL
MODEL 7
REMARK VINA RESULT:      -6.8      1.821      2.834
REMARK  Name = 
REMARK  18 active torsions:
REMARK  status: ('A' for Active; 'I' for Inactive)
REMARK    1  A    between atoms: C_1  and  C_2
REMARK    2  A    between atoms: N_4  and  C_5
REMARK    3  A    between atoms: C_5  and  C_6
REMARK    4  A    between atoms: C_5  and  C_14
REMARK    5  A    between atoms: C_6  and  C_7
REMARK    6  A    between atoms: C_10  and  O_11
REMARK    7  A    between atoms: N_16  and  C_17
REMARK    8  A    between atoms: C_17  and  C_18
REMARK    9  A    between atoms: C_17  and  C_31
REMARK   10  A    between atoms: N_20  and  C_21
REMARK   11  A    between atoms: C_21  and  C_22
REMARK   12  A    between atoms: C_21  and  C_23
REMARK   13  A    between atoms: N_25  and  C_26
REMARK   14  A    between atoms: C_26  and  C_27
REMARK   15  A    between atoms: C_27  and  C_28
REMARK   16  A    between atoms: C_28  and  O_30
REMARK   17  A    between atoms: C_31  and  C_32
REMARK   18  A    between atoms: C_31  and  C_33
REMARK                            x       y       z     vdW  Elec       q    Type
REMARK                         _______ _______ _______ _____ _____    ______ ____
ROOT
ATOM      1  C   UNL     1       3.554   4.498  19.248  0.00  0.00    +0.000 C 
ENDROOT
BRANCH   1   4
ATOM      2  C   UNL     1       2.693   6.783  18.630  0.00  0.00    +0.000 C 
ATOM      3  O   UNL     1       3.457   6.881  17.667  0.00  0.00    +0.000 OA
ATOM      4  N   UNL     1       2.734   5.701  19.479  0.00  0.00    +0.000 N 
ATOM      5  H   UNL     1       2.077   5.625  20.248  0.00  0.00    +0.000 HD
BRANCH   2   6
ATOM      6  C   UNL     1       1.697   7.930  18.993  0.00  0.00    +0.000 C 
BRANCH   6  10
ATOM      7  C   UNL     1       1.541   9.088  22.631  0.00  0.00    +0.000 C 
ATOM      8  C   UNL     1       1.017   8.561  21.322  0.00  0.00    +0.000 C 
ATOM      9  O   UNL     1      -0.178   8.365  21.129  0.00  0.00    +0.000 OA
ATOM     10  N   UNL     1       1.987   8.359  20.372  0.00  0.00    +0.000 N 
ATOM     11  H   UNL     1       2.967   8.363  20.641  0.00  0.00    +0.000 HD
ENDBRANCH   6  10
BRANCH   6  12
ATOM     12  C   UNL     1       1.694   9.099  17.979  0.00  0.00    +0.000 C 
BRANCH  12  13
ATOM     13  C   UNL     1       0.695  10.199  18.264  0.00  0.00    +0.000 A 
ATOM     14  C   UNL     1       1.127  11.424  18.791  0.00  0.00    +0.000 A 
ATOM     15  C   UNL     1       0.201  12.420  19.117  0.00  0.00    +0.000 A 
ATOM     16  C   UNL     1      -1.151  12.194  18.911  0.00  0.00    +0.000 A 
ATOM     17  C   UNL     1      -1.595  11.010  18.341  0.00  0.00    +0.000 A 
ATOM     18  C   UNL     1      -0.673  10.020  18.007  0.00  0.00    +0.000 A 
BRANCH  16  19
ATOM     19  O   UNL     1      -2.088  13.124  19.254  0.00  0.00    +0.000 OA
ATOM     20  H   UNL     1      -1.876  13.952  18.797  0.00  0.00    +0.000 HD
ENDBRANCH  16  19
ENDBRANCH  12  13
ENDBRANCH   6  12
ENDBRANCH   2   6
ENDBRANCH   1   4
BRANCH   1  21
ATOM     21  C   UNL     1       4.976   5.019  18.883  0.00  0.00    +0.000 C 
ATOM     22  O   UNL     1       5.702   5.541  19.734  0.00  0.00    +0.000 OA
ATOM     23  N   UNL     1       5.386   4.855  17.580  0.00  0.00    +0.000 N 
ATOM     24  H   UNL     1       4.792   4.391  16.900  0.00  0.00    +0.000 HD
BRANCH  23  25
ATOM     25  C   UNL     1       6.707   5.285  17.107  0.00  0.00    +0.000 C 
ATOM     26  C   UNL     1       7.821   4.398  17.660  0.00  0.00    +0.000 C 
BRANCH  25  27
ATOM     27  C   UNL     1       6.730   5.244  15.565  0.00  0.00    +0.000 C 
ATOM     28  O   UNL     1       7.691   5.653  14.912  0.00  0.00    +0.000 OA
ATOM     29  N   UNL     1       5.581   4.757  14.978  0.00  0.00    +0.000 N 
ATOM     30  H   UNL     1       4.917   4.240  15.551  0.00  0.00    +0.000 HD
BRANCH  29  31
ATOM     31  C   UNL     1       5.452   4.594  13.540  0.00  0.00    +0.000 C 
BRANCH  31  32
ATOM     32  C   UNL     1       6.189   3.362  13.010  0.00  0.00    +0.000 C 
BRANCH  32  33
ATOM     33  C   UNL     1       5.435   2.702  11.881  0.00  0.00    +0.000 C 
ATOM     34  O   UNL     1       5.787   1.672  11.316  0.00  0.00    +0.000 OA
BRANCH  33  35
ATOM     35  O   UNL     1       4.322   3.379  11.525  0.00  0.00    +0.000 OA
ATOM     36  H   UNL     1       3.552   3.204  12.100  0.00  0.00    +0.000 HD
ENDBRANCH  33  35
ENDBRANCH  32  33
ENDBRANCH  31  32
ENDBRANCH  29  31
ENDBRANCH  25  27
ENDBRANCH  23  25
ENDBRANCH   1  21
BRANCH   1  37
ATOM     37  C   UNL     1       2.901   3.571  18.193  0.00  0.00    +0.000 C 
ATOM     38  C   UNL     1       3.383   2.118  18.277  0.00  0.00    +0.000 C 
ATOM     39  C   UNL     1       1.372   3.612  18.211  0.00  0.00    +0.000 C 
ENDBRANCH   1  37
TORSDOF 14
ENDMDL
MODEL 8
REMARK VINA RESULT:      -6.8      3.213      5.538
REMARK  Name = 
REMARK  18 active torsions:
REMARK  status: ('A' for Active; 'I' for Inactive)
REMARK    1  A    between atoms: C_1  and  C_2
REMARK    2  A    between atoms: N_4  and  C_5
REMARK    3  A    between atoms: C_5  and  C_6
REMARK    4  A    between atoms: C_5  and  C_14
REMARK    5  A    between atoms: C_6  and  C_7
REMARK    6  A    between atoms: C_10  and  O_11
REMARK    7  A    between atoms: N_16  and  C_17
REMARK    8  A    between atoms: C_17  and  C_18
REMARK    9  A    between atoms: C_17  and  C_31
REMARK   10  A    between atoms: N_20  and  C_21
REMARK   11  A    between atoms: C_21  and  C_22
REMARK   12  A    between atoms: C_21  and  C_23
REMARK   13  A    between atoms: N_25  and  C_26
REMARK   14  A    between atoms: C_26  and  C_27
REMARK   15  A    between atoms: C_27  and  C_28
REMARK   16  A    between atoms: C_28  and  O_30
REMARK   17  A    between atoms: C_31  and  C_32
REMARK   18  A    between atoms: C_31  and  C_33
REMARK                            x       y       z     vdW  Elec       q    Type
REMARK                         _______ _______ _______ _____ _____    ______ ____
ROOT
ATOM      1  C   UNL     1       1.672   9.225  19.914  0.00  0.00    +0.000 C 
ENDROOT
BRANCH   1   4
ATOM      2  C   UNL     1       0.537  11.392  19.317  0.00  0.00    +0.000 C 
ATOM      3  O   UNL     1       1.541  12.062  19.569  0.00  0.00    +0.000 OA
ATOM      4  N   UNL     1       0.502  10.034  19.530  0.00  0.00    +0.000 N 
ATOM      5  H   UNL     1      -0.324   9.495  19.289  0.00  0.00    +0.000 HD
BRANCH   2   6
ATOM      6  C   UNL     1      -0.785  12.066  18.829  0.00  0.00    +0.000 C 
BRANCH   6  10
ATOM      7  C   UNL     1      -3.550   9.698  17.670  0.00  0.00    +0.000 C 
ATOM      8  C   UNL     1      -2.486  10.754  17.537  0.00  0.00    +0.000 C 
ATOM      9  O   UNL     1      -2.278  11.343  16.482  0.00  0.00    +0.000 OA
ATOM     10  N   UNL     1      -1.808  11.014  18.702  0.00  0.00    +0.000 N 
ATOM     11  H   UNL     1      -1.894  10.379  19.490  0.00  0.00    +0.000 HD
ENDBRANCH   6  10
BRANCH   6  12
ATOM     12  C   UNL     1      -1.240  13.256  19.708  0.00  0.00    +0.000 C 
BRANCH  12  13
ATOM     13  C   UNL     1      -2.040  12.883  20.937  0.00  0.00    +0.000 A 
ATOM     14  C   UNL     1      -3.430  13.070  20.957  0.00  0.00    +0.000 A 
ATOM     15  C   UNL     1      -4.165  12.787  22.112  0.00  0.00    +0.000 A 
ATOM     16  C   UNL     1      -3.514  12.314  23.242  0.00  0.00    +0.000 A 
ATOM     17  C   UNL     1      -2.149  12.072  23.226  0.00  0.00    +0.000 A 
ATOM     18  C   UNL     1      -1.416  12.344  22.072  0.00  0.00    +0.000 A 
BRANCH  16  19
ATOM     19  O   UNL     1      -4.189  12.066  24.401  0.00  0.00    +0.000 OA
ATOM     20  H   UNL     1      -4.898  11.432  24.209  0.00  0.00    +0.000 HD
ENDBRANCH  16  19
ENDBRANCH  12  13
ENDBRANCH   6  12
ENDBRANCH   2   6
ENDBRANCH   1   4
BRANCH   1  21
ATOM     21  C   UNL     1       1.977   8.314  18.688  0.00  0.00    +0.000 C 
ATOM     22  O   UNL     1       1.439   8.514  17.595  0.00  0.00    +0.000 OA
ATOM     23  N   UNL     1       2.879   7.292  18.876  0.00  0.00    +0.000 N 
ATOM     24  H   UNL     1       3.341   7.162  19.771  0.00  0.00    +0.000 HD
BRANCH  23  25
ATOM     25  C   UNL     1       3.268   6.372  17.802  0.00  0.00    +0.000 C 
ATOM     26  C   UNL     1       4.786   6.253  17.683  0.00  0.00    +0.000 C 
BRANCH  25  27
ATOM     27  C   UNL     1       2.660   4.981  18.082  0.00  0.00    +0.000 C 
ATOM     28  O   UNL     1       1.537   4.665  17.688  0.00  0.00    +0.000 OA
ATOM     29  N   UNL     1       3.451   4.142  18.839  0.00  0.00    +0.000 N 
ATOM     30  H   UNL     1       4.438   4.364  18.951  0.00  0.00    +0.000 HD
BRANCH  29  31
ATOM     31  C   UNL     1       3.062   2.777  19.148  0.00  0.00    +0.000 C 
BRANCH  31  32
ATOM     32  C   UNL     1       2.999   2.499  20.652  0.00  0.00    +0.000 C 
BRANCH  32  33
ATOM     33  C   UNL     1       1.611   2.710  21.203  0.00  0.00    +0.000 C 
ATOM     34  O   UNL     1       1.302   2.584  22.383  0.00  0.00    +0.000 OA
BRANCH  33  35
ATOM     35  O   UNL     1       0.710   3.035  20.250  0.00  0.00    +0.000 OA
ATOM     36  H   UNL     1       0.625   2.368  19.541  0.00  0.00    +0.000 HD
ENDBRANCH  33  35
ENDBRANCH  32  33
ENDBRANCH  31  32
ENDBRANCH  29  31
ENDBRANCH  25  27
ENDBRANCH  23  25
ENDBRANCH   1  21
BRANCH   1  37
ATOM     37  C   UNL     1       1.422   8.475  21.246  0.00  0.00    +0.000 C 
ATOM     38  C   UNL     1       0.687   9.321  22.293  0.00  0.00    +0.000 C 
ATOM     39  C   UNL     1       0.702   7.136  21.064  0.00  0.00    +0.000 C 
ENDBRANCH   1  37
TORSDOF 14
ENDMDL
MODEL 9
REMARK VINA RESULT:      -6.8      1.991      2.862
REMARK  Name = 
REMARK  18 active torsions:
REMARK  status: ('A' for Active; 'I' for Inactive)
REMARK    1  A    between atoms: C_1  and  C_2
REMARK    2  A    between atoms: N_4  and  C_5
REMARK    3  A    between atoms: C_5  and  C_6
REMARK    4  A    between atoms: C_5  and  C_14
REMARK    5  A    between atoms: C_6  and  C_7
REMARK    6  A    between atoms: C_10  and  O_11
REMARK    7  A    between atoms: N_16  and  C_17
REMARK    8  A    between atoms: C_17  and  C_18
REMARK    9  A    between atoms: C_17  and  C_31
REMARK   10  A    between atoms: N_20  and  C_21
REMARK   11  A    between atoms: C_21  and  C_22
REMARK   12  A    between atoms: C_21  and  C_23
REMARK   13  A    between atoms: N_25  and  C_26
REMARK   14  A    between atoms: C_26  and  C_27
REMARK   15  A    between atoms: C_27  and  C_28
REMARK   16  A    between atoms: C_28  and  O_30
REMARK   17  A    between atoms: C_31  and  C_32
REMARK   18  A    between atoms: C_31  and  C_33
REMARK                            x       y       z     vdW  Elec       q    Type
REMARK                         _______ _______ _______ _____ _____    ______ ____
ROOT
ATOM      1  C   UNL     1       3.042   5.854  18.691  0.00  0.00    +0.000 C 
ENDROOT
BRANCH   1   4
ATOM      2  C   UNL     1       1.699   7.602  19.908  0.00  0.00    +0.000 C 
ATOM      3  O   UNL     1       1.756   6.993  20.979  0.00  0.00    +0.000 OA
ATOM      4  N   UNL     1       2.229   7.081  18.751  0.00  0.00    +0.000 N 
ATOM      5  H   UNL     1       2.198   7.612  17.886  0.00  0.00    +0.000 HD
BRANCH   2   6
ATOM      6  C   UNL     1       0.938   8.961  19.790  0.00  0.00    +0.000 C 
BRANCH   6  10
ATOM      7  C   UNL     1      -0.138   9.894  23.336  0.00  0.00    +0.000 C 
ATOM      8  C   UNL     1      -0.135   9.110  22.050  0.00  0.00    +0.000 C 
ATOM      9  O   UNL     1      -0.934   8.205  21.836  0.00  0.00    +0.000 OA
ATOM     10  N   UNL     1       0.809   9.525  21.145  0.00  0.00    +0.000 N 
ATOM     11  H   UNL     1       1.554  10.149  21.440  0.00  0.00    +0.000 HD
ENDBRANCH   6  10
BRANCH   6  12
ATOM     12  C   UNL     1       1.571   9.946  18.777  0.00  0.00    +0.000 C 
BRANCH  12  13
ATOM     13  C   UNL     1       0.966  11.332  18.760  0.00  0.00    +0.000 A 
ATOM     14  C   UNL     1      -0.408  11.499  18.538  0.00  0.00    +0.000 A 
ATOM     15  C   UNL     1      -0.961  12.781  18.457  0.00  0.00    +0.000 A 
ATOM     16  C   UNL     1      -0.143  13.892  18.602  0.00  0.00    +0.000 A 
ATOM     17  C   UNL     1       1.209  13.748  18.874  0.00  0.00    +0.000 A 
ATOM     18  C   UNL     1       1.760  12.472  18.965  0.00  0.00    +0.000 A 
BRANCH  16  19
ATOM     19  O   UNL     1      -0.636  15.158  18.487  0.00  0.00    +0.000 OA
ATOM     20  H   UNL     1      -0.095  15.637  17.840  0.00  0.00    +0.000 HD
ENDBRANCH  16  19
ENDBRANCH  12  13
ENDBRANCH   6  12
ENDBRANCH   2   6
ENDBRANCH   1   4
BRANCH   1  21
ATOM     21  C   UNL     1       4.363   6.257  17.970  0.00  0.00    +0.000 C 
ATOM     22  O   UNL     1       4.344   6.896  16.915  0.00  0.00    +0.000 OA
ATOM     23  N   UNL     1       5.543   5.881  18.570  0.00  0.00    +0.000 N 
ATOM     24  H   UNL     1       5.543   5.386  19.456  0.00  0.00    +0.000 HD
BRANCH  23  25
ATOM     25  C   UNL     1       6.857   6.209  18.006  0.00  0.00    +0.000 C 
ATOM     26  C   UNL     1       7.993   5.757  18.921  0.00  0.00    +0.000 C 
BRANCH  25  27
ATOM     27  C   UNL     1       7.000   5.531  16.628  0.00  0.00    +0.000 C 
ATOM     28  O   UNL     1       7.611   6.058  15.697  0.00  0.00    +0.000 OA
ATOM     29  N   UNL     1       6.359   4.316  16.508  0.00  0.00    +0.000 N 
ATOM     30  H   UNL     1       6.061   3.831  17.351  0.00  0.00    +0.000 HD
BRANCH  29  31
ATOM     31  C   UNL     1       6.438   3.511  15.300  0.00  0.00    +0.000 C 
BRANCH  31  32
ATOM     32  C   UNL     1       5.739   4.158  14.103  0.00  0.00    +0.000 C 
BRANCH  32  33
ATOM     33  C   UNL     1       6.365   3.740  12.796  0.00  0.00    +0.000 C 
ATOM     34  O   UNL     1       7.143   4.428  12.143  0.00  0.00    +0.000 OA
BRANCH  33  35
ATOM     35  O   UNL     1       5.964   2.517  12.388  0.00  0.00    +0.000 OA
ATOM     36  H   UNL     1       6.603   2.065  11.803  0.00  0.00    +0.000 HD
ENDBRANCH  33  35
ENDBRANCH  32  33
ENDBRANCH  31  32
ENDBRANCH  29  31
ENDBRANCH  25  27
ENDBRANCH  23  25
ENDBRANCH   1  21
BRANCH   1  37
ATOM     37  C   UNL     1       2.257   4.694  18.028  0.00  0.00    +0.000 C 
ATOM     38  C   UNL     1       3.136   3.773  17.174  0.00  0.00    +0.000 C 
ATOM     39  C   UNL     1       1.447   3.862  19.024  0.00  0.00    +0.000 C 
ENDBRANCH   1  37
TORSDOF 14
ENDMDL
