MODEL 1
REMARK VINA RESULT:      -8.7      0.000      0.000
REMARK  Name = 
REMARK  2 active torsions:
REMARK  status: ('A' for Active; 'I' for Inactive)
REMARK    1  A    between atoms: C_13  and  O_14
REMARK    2  A    between atoms: O_14  and  C_15
REMARK                            x       y       z     vdW  Elec       q    Type
REMARK                         _______ _______ _______ _____ _____    ______ ____
ROOT
ATOM      1  O   UNL     1      -0.781   8.336  22.062  0.00  0.00    +0.000 OA
ATOM      2  S   UNL     1       0.266   9.280  21.754  0.00  0.00    +0.000 S 
ATOM      3  O   UNL     1       1.207   9.803  22.728  0.00  0.00    +0.000 OA
ATOM      4  C   UNL     1      -0.446  10.642  20.879  0.00  0.00    +0.000 A 
ATOM      5  C   UNL     1      -1.377  11.540  21.364  0.00  0.00    +0.000 A 
ATOM      6  C   UNL     1      -1.824  12.527  20.484  0.00  0.00    +0.000 A 
ATOM      7  C   UNL     1      -1.327  12.594  19.169  0.00  0.00    +0.000 A 
ATOM      8  C   UNL     1      -0.393  11.661  18.705  0.00  0.00    +0.000 A 
ATOM      9  C   UNL     1       0.042  10.657  19.565  0.00  0.00    +0.000 A 
ATOM     10  C   UNL     1       0.936   9.541  19.266  0.00  0.00    +0.000 A 
ATOM     11  C   UNL     1       1.504   9.218  18.048  0.00  0.00    +0.000 A 
ATOM     12  C   UNL     1       2.277   8.055  17.946  0.00  0.00    +0.000 A 
ATOM     13  C   UNL     1       2.541   7.243  19.068  0.00  0.00    +0.000 A 
ATOM     14  C   UNL     1       1.953   7.543  20.299  0.00  0.00    +0.000 A 
ATOM     15  C   UNL     1       1.166   8.687  20.358  0.00  0.00    +0.000 A 
ENDROOT
BRANCH  13  16
ATOM     16  O   UNL     1       3.392   6.158  19.042  0.00  0.00    +0.000 OA
BRANCH  16  17
ATOM     17  C   UNL     1       2.880   4.998  18.355  0.00  0.00    +0.000 C 
ATOM     18  C   UNL     1       3.997   3.949  18.090  0.00  0.00    +0.000 C 
ATOM     19  N   UNL     1       3.670   2.609  18.630  0.00  0.00    +0.000 NA
ATOM     20  C   UNL     1       3.502   2.742  20.094  0.00  0.00    +0.000 C 
ATOM     21  C   UNL     1       2.357   3.698  20.460  0.00  0.00    +0.000 C 
ATOM     22  C   UNL     1       1.764   4.301  19.178  0.00  0.00    +0.000 C 
ATOM     23  C   UNL     1       1.244   3.119  18.332  0.00  0.00    +0.000 C 
ATOM     24  C   UNL     1       2.405   2.159  18.019  0.00  0.00    +0.000 C 
ENDBRANCH  16  17
ENDBRANCH  13  16
TORSDOF 2
ENDMDL
MODEL 2
REMARK VINA RESULT:      -8.7      2.475      3.719
REMARK  Name = 
REMARK  2 active torsions:
REMARK  status: ('A' for Active; 'I' for Inactive)
REMARK    1  A    between atoms: C_13  and  O_14
REMARK    2  A    between atoms: O_14  and  C_15
REMARK                            x       y       z     vdW  Elec       q    Type
REMARK                         _______ _______ _______ _____ _____    ______ ____
ROOT
ATOM      1  O   UNL     1       1.641  11.590  18.846  0.00  0.00    +0.000 OA
ATOM      2  S   UNL     1       0.600  10.598  18.962  0.00  0.00    +0.000 S 
ATOM      3  O   UNL     1      -0.525  10.485  18.051  0.00  0.00    +0.000 OA
ATOM      4  C   UNL     1      -0.024  10.629  20.616  0.00  0.00    +0.000 A 
ATOM      5  C   UNL     1      -0.686  11.674  21.231  0.00  0.00    +0.000 A 
ATOM      6  C   UNL     1      -1.067  11.488  22.561  0.00  0.00    +0.000 A 
ATOM      7  C   UNL     1      -0.790  10.279  23.224  0.00  0.00    +0.000 A 
ATOM      8  C   UNL     1      -0.108   9.243  22.576  0.00  0.00    +0.000 A 
ATOM      9  C   UNL     1       0.300   9.425  21.258  0.00  0.00    +0.000 A 
ATOM     10  C   UNL     1       1.094   8.522  20.429  0.00  0.00    +0.000 A 
ATOM     11  C   UNL     1       1.649   7.310  20.794  0.00  0.00    +0.000 A 
ATOM     12  C   UNL     1       2.448   6.623  19.872  0.00  0.00    +0.000 A 
ATOM     13  C   UNL     1       2.645   7.106  18.563  0.00  0.00    +0.000 A 
ATOM     14  C   UNL     1       2.111   8.341  18.187  0.00  0.00    +0.000 A 
ATOM     15  C   UNL     1       1.349   9.011  19.136  0.00  0.00    +0.000 A 
ENDROOT
BRANCH  13  16
ATOM     16  O   UNL     1       3.322   6.407  17.585  0.00  0.00    +0.000 OA
BRANCH  16  17
ATOM     17  C   UNL     1       4.706   6.130  17.882  0.00  0.00    +0.000 C 
ATOM     18  C   UNL     1       4.976   4.602  17.986  0.00  0.00    +0.000 C 
ATOM     19  N   UNL     1       6.054   4.143  17.080  0.00  0.00    +0.000 NA
ATOM     20  C   UNL     1       5.635   4.442  15.692  0.00  0.00    +0.000 C 
ATOM     21  C   UNL     1       5.427   5.947  15.464  0.00  0.00    +0.000 C 
ATOM     22  C   UNL     1       5.644   6.700  16.784  0.00  0.00    +0.000 C 
ATOM     23  C   UNL     1       7.094   6.409  17.227  0.00  0.00    +0.000 C 
ATOM     24  C   UNL     1       7.283   4.892  17.405  0.00  0.00    +0.000 C 
ENDBRANCH  16  17
ENDBRANCH  13  16
TORSDOF 2
ENDMDL
MODEL 3
REMARK VINA RESULT:      -8.4      0.800      1.229
REMARK  Name = 
REMARK  2 active torsions:
REMARK  status: ('A' for Active; 'I' for Inactive)
REMARK    1  A    between atoms: C_13  and  O_14
REMARK    2  A    between atoms: O_14  and  C_15
REMARK                            x       y       z     vdW  Elec       q    Type
REMARK                         _______ _______ _______ _____ _____    ______ ____
ROOT
ATOM      1  O   UNL     1      -0.807   8.404  22.206  0.00  0.00    +0.000 OA
ATOM      2  S   UNL     1       0.314   9.282  21.969  0.00  0.00    +0.000 S 
ATOM      3  O   UNL     1       1.322   9.607  22.963  0.00  0.00    +0.000 OA
ATOM      4  C   UNL     1      -0.291  10.791  21.275  0.00  0.00    +0.000 A 
ATOM      5  C   UNL     1      -1.125  11.706  21.888  0.00  0.00    +0.000 A 
ATOM      6  C   UNL     1      -1.502  12.822  21.138  0.00  0.00    +0.000 A 
ATOM      7  C   UNL     1      -1.032  12.993  19.823  0.00  0.00    +0.000 A 
ATOM      8  C   UNL     1      -0.197  12.041  19.226  0.00  0.00    +0.000 A 
ATOM      9  C   UNL     1       0.165  10.912  19.955  0.00  0.00    +0.000 A 
ATOM     10  C   UNL     1       0.946   9.763  19.504  0.00  0.00    +0.000 A 
ATOM     11  C   UNL     1       1.454   9.532  18.240  0.00  0.00    +0.000 A 
ATOM     12  C   UNL     1       2.115   8.324  17.983  0.00  0.00    +0.000 A 
ATOM     13  C   UNL     1       2.330   7.371  18.999  0.00  0.00    +0.000 A 
ATOM     14  C   UNL     1       1.802   7.579  20.274  0.00  0.00    +0.000 A 
ATOM     15  C   UNL     1       1.124   8.774  20.487  0.00  0.00    +0.000 A 
ENDROOT
BRANCH  13  16
ATOM     16  O   UNL     1       3.079   6.225  18.824  0.00  0.00    +0.000 OA
BRANCH  16  17
ATOM     17  C   UNL     1       2.378   4.993  19.088  0.00  0.00    +0.000 C 
ATOM     18  C   UNL     1       1.743   4.407  17.795  0.00  0.00    +0.000 C 
ATOM     19  N   UNL     1       2.165   3.013  17.526  0.00  0.00    +0.000 NA
ATOM     20  C   UNL     1       3.635   3.011  17.357  0.00  0.00    +0.000 C 
ATOM     21  C   UNL     1       4.362   3.496  18.621  0.00  0.00    +0.000 C 
ATOM     22  C   UNL     1       3.329   3.917  19.676  0.00  0.00    +0.000 C 
ATOM     23  C   UNL     1       2.472   2.669  19.980  0.00  0.00    +0.000 C 
ATOM     24  C   UNL     1       1.793   2.182  18.688  0.00  0.00    +0.000 C 
ENDBRANCH  16  17
ENDBRANCH  13  16
TORSDOF 2
ENDMDL
MODEL 4
REMARK VINA RESULT:      -8.3      1.965      2.731
REMARK  Name = 
REMARK  2 active torsions:
REMARK  status: ('A' for Active; 'I' for Inactive)
REMARK    1  A    between atoms: C_13  and  O_14
REMARK    2  A    between atoms: O_14  and  C_15
REMARK                            x       y       z     vdW  Elec       q    Type
REMARK                         _______ _______ _______ _____ _____    ______ ____
ROOT
ATOM      1  O   UNL     1      -0.593   8.142  21.883  0.00  0.00    +0.000 OA
ATOM      2  S   UNL     1       0.518   9.035  21.661  0.00  0.00    +0.000 S 
ATOM      3  O   UNL     1       1.525   9.351  22.658  0.00  0.00    +0.000 OA
ATOM      4  C   UNL     1      -0.104  10.551  20.998  0.00  0.00    +0.000 A 
ATOM      5  C   UNL     1      -0.946  11.446  21.631  0.00  0.00    +0.000 A 
ATOM      6  C   UNL     1      -1.335  12.573  20.904  0.00  0.00    +0.000 A 
ATOM      7  C   UNL     1      -0.871  12.775  19.591  0.00  0.00    +0.000 A 
ATOM      8  C   UNL     1      -0.028  11.843  18.974  0.00  0.00    +0.000 A 
ATOM      9  C   UNL     1       0.348  10.704  19.679  0.00  0.00    +0.000 A 
ATOM     10  C   UNL     1       1.139   9.572  19.204  0.00  0.00    +0.000 A 
ATOM     11  C   UNL     1       1.646   9.371  17.934  0.00  0.00    +0.000 A 
ATOM     12  C   UNL     1       2.319   8.175  17.653  0.00  0.00    +0.000 A 
ATOM     13  C   UNL     1       2.547   7.205  18.649  0.00  0.00    +0.000 A 
ATOM     14  C   UNL     1       2.019   7.382  19.930  0.00  0.00    +0.000 A 
ATOM     15  C   UNL     1       1.330   8.565  20.167  0.00  0.00    +0.000 A 
ENDROOT
BRANCH  13  16
ATOM     16  O   UNL     1       3.307   6.071  18.450  0.00  0.00    +0.000 OA
BRANCH  16  17
ATOM     17  C   UNL     1       4.730   6.258  18.594  0.00  0.00    +0.000 C 
ATOM     18  C   UNL     1       5.429   4.970  19.112  0.00  0.00    +0.000 C 
ATOM     19  N   UNL     1       6.527   4.513  18.230  0.00  0.00    +0.000 NA
ATOM     20  C   UNL     1       5.945   4.217  16.902  0.00  0.00    +0.000 C 
ATOM     21  C   UNL     1       5.302   5.458  16.263  0.00  0.00    +0.000 C 
ATOM     22  C   UNL     1       5.388   6.639  17.241  0.00  0.00    +0.000 C 
ATOM     23  C   UNL     1       6.889   6.879  17.515  0.00  0.00    +0.000 C 
ATOM     24  C   UNL     1       7.513   5.605  18.113  0.00  0.00    +0.000 C 
ENDBRANCH  16  17
ENDBRANCH  13  16
TORSDOF 2
ENDMDL
MODEL 5
REMARK VINA RESULT:      -8.0      1.957      2.915
REMARK  Name = 
REMARK  2 active torsions:
REMARK  status: ('A' for Active; 'I' for Inactive)
REMARK    1  A    between atoms: C_13  and  O_14
REMARK    2  A    between atoms: O_14  and  C_15
REMARK                            x       y       z     vdW  Elec       q    Type
REMARK                         _______ _______ _______ _____ _____    ______ ____
ROOT
ATOM      1  O   UNL     1       1.119  12.088  18.686  0.00  0.00    +0.000 OA
ATOM      2  S   UNL     1       0.093  11.100  18.922  0.00  0.00    +0.000 S 
ATOM      3  O   UNL     1      -1.001  10.825  18.009  0.00  0.00    +0.000 OA
ATOM      4  C   UNL     1      -0.580  11.364  20.536  0.00  0.00    +0.000 A 
ATOM      5  C   UNL     1      -1.279  12.474  20.968  0.00  0.00    +0.000 A 
ATOM      6  C   UNL     1      -1.697  12.481  22.300  0.00  0.00    +0.000 A 
ATOM      7  C   UNL     1      -1.417  11.392  23.145  0.00  0.00    +0.000 A 
ATOM      8  C   UNL     1      -0.695  10.286  22.680  0.00  0.00    +0.000 A 
ATOM      9  C   UNL     1      -0.252  10.278  21.360  0.00  0.00    +0.000 A 
ATOM     10  C   UNL     1       0.583   9.280  20.698  0.00  0.00    +0.000 A 
ATOM     11  C   UNL     1       1.150   8.149  21.256  0.00  0.00    +0.000 A 
ATOM     12  C   UNL     1       1.989   7.351  20.470  0.00  0.00    +0.000 A 
ATOM     13  C   UNL     1       2.216   7.637  19.108  0.00  0.00    +0.000 A 
ATOM     14  C   UNL     1       1.670   8.788  18.537  0.00  0.00    +0.000 A 
ATOM     15  C   UNL     1       0.868   9.576  19.354  0.00  0.00    +0.000 A 
ENDROOT
BRANCH  13  16
ATOM     16  O   UNL     1       2.935   6.815  18.265  0.00  0.00    +0.000 OA
BRANCH  16  17
ATOM     17  C   UNL     1       3.049   5.445  18.701  0.00  0.00    +0.000 C 
ATOM     18  C   UNL     1       2.407   4.462  17.682  0.00  0.00    +0.000 C 
ATOM     19  N   UNL     1       3.343   3.409  17.225  0.00  0.00    +0.000 NA
ATOM     20  C   UNL     1       4.485   4.078  16.562  0.00  0.00    +0.000 C 
ATOM     21  C   UNL     1       5.243   5.011  17.519  0.00  0.00    +0.000 C 
ATOM     22  C   UNL     1       4.535   5.032  18.881  0.00  0.00    +0.000 C 
ATOM     23  C   UNL     1       4.544   3.581  19.408  0.00  0.00    +0.000 C 
ATOM     24  C   UNL     1       3.816   2.665  18.408  0.00  0.00    +0.000 C 
ENDBRANCH  16  17
ENDBRANCH  13  16
TORSDOF 2
ENDMDL
MODEL 6
REMARK VINA RESULT:      -8.0      1.877      2.364
REMARK  Name = 
REMARK  2 active torsions:
REMARK  status: ('A' for Active; 'I' for Inactive)
REMARK    1  A    between atoms: C_13  and  O_14
REMARK    2  A    between atoms: O_14  and  C_15
REMARK                            x       y       z     vdW  Elec       q    Type
REMARK                         _______ _______ _______ _____ _____    ______ ____
ROOT
ATOM      1  O   UNL     1      -0.682   8.259  21.903  0.00  0.00    +0.000 OA
ATOM      2  S   UNL     1       0.383   9.199  21.649  0.00  0.00    +0.000 S 
ATOM      3  O   UNL     1       1.344   9.634  22.646  0.00  0.00    +0.000 OA
ATOM      4  C   UNL     1      -0.306  10.632  20.876  0.00  0.00    +0.000 A 
ATOM      5  C   UNL     1      -1.212  11.515  21.430  0.00  0.00    +0.000 A 
ATOM      6  C   UNL     1      -1.645  12.569  20.624  0.00  0.00    +0.000 A 
ATOM      7  C   UNL     1      -1.159  12.714  19.312  0.00  0.00    +0.000 A 
ATOM      8  C   UNL     1      -0.249  11.796  18.775  0.00  0.00    +0.000 A 
ATOM      9  C   UNL     1       0.171  10.726  19.560  0.00  0.00    +0.000 A 
ATOM     10  C   UNL     1       1.036   9.613  19.177  0.00  0.00    +0.000 A 
ATOM     11  C   UNL     1       1.586   9.362  17.935  0.00  0.00    +0.000 A 
ATOM     12  C   UNL     1       2.331   8.192  17.746  0.00  0.00    +0.000 A 
ATOM     13  C   UNL     1       2.587   7.300  18.807  0.00  0.00    +0.000 A 
ATOM     14  C   UNL     1       2.018   7.528  20.062  0.00  0.00    +0.000 A 
ATOM     15  C   UNL     1       1.257   8.682  20.207  0.00  0.00    +0.000 A 
ENDROOT
BRANCH  13  16
ATOM     16  O   UNL     1       3.414   6.201  18.699  0.00  0.00    +0.000 OA
BRANCH  16  17
ATOM     17  C   UNL     1       4.103   6.079  17.438  0.00  0.00    +0.000 C 
ATOM     18  C   UNL     1       5.495   6.771  17.476  0.00  0.00    +0.000 C 
ATOM     19  N   UNL     1       6.602   5.862  17.098  0.00  0.00    +0.000 NA
ATOM     20  C   UNL     1       6.619   4.744  18.067  0.00  0.00    +0.000 C 
ATOM     21  C   UNL     1       5.310   3.940  18.042  0.00  0.00    +0.000 C 
ATOM     22  C   UNL     1       4.327   4.591  17.059  0.00  0.00    +0.000 C 
ATOM     23  C   UNL     1       5.009   4.571  15.673  0.00  0.00    +0.000 C 
ATOM     24  C   UNL     1       6.336   5.347  15.741  0.00  0.00    +0.000 C 
ENDBRANCH  16  17
ENDBRANCH  13  16
TORSDOF 2
ENDMDL
MODEL 7
REMARK VINA RESULT:      -7.7      1.567      2.079
REMARK  Name = 
REMARK  2 active torsions:
REMARK  status: ('A' for Active; 'I' for Inactive)
REMARK    1  A    between atoms: C_13  and  O_14
REMARK    2  A    between atoms: O_14  and  C_15
REMARK                            x       y       z     vdW  Elec       q    Type
REMARK                         _______ _______ _______ _____ _____    ______ ____
ROOT
ATOM      1  O   UNL     1      -0.661   8.915  22.050  0.00  0.00    +0.000 OA
ATOM      2  S   UNL     1       0.628   9.526  21.832  0.00  0.00    +0.000 S 
ATOM      3  O   UNL     1       1.675   9.606  22.835  0.00  0.00    +0.000 OA
ATOM      4  C   UNL     1       0.378  11.140  21.157  0.00  0.00    +0.000 A 
ATOM      5  C   UNL     1      -0.238  12.210  21.778  0.00  0.00    +0.000 A 
ATOM      6  C   UNL     1      -0.351  13.391  21.042  0.00  0.00    +0.000 A 
ATOM      7  C   UNL     1       0.156  13.471  19.733  0.00  0.00    +0.000 A 
ATOM      8  C   UNL     1       0.764  12.366  19.127  0.00  0.00    +0.000 A 
ATOM      9  C   UNL     1       0.861  11.175  19.840  0.00  0.00    +0.000 A 
ATOM     10  C   UNL     1       1.372   9.887  19.377  0.00  0.00    +0.000 A 
ATOM     11  C   UNL     1       1.827   9.566  18.112  0.00  0.00    +0.000 A 
ATOM     12  C   UNL     1       2.206   8.245  17.842  0.00  0.00    +0.000 A 
ATOM     13  C   UNL     1       2.197   7.255  18.845  0.00  0.00    +0.000 A 
ATOM     14  C   UNL     1       1.717   7.559  20.120  0.00  0.00    +0.000 A 
ATOM     15  C   UNL     1       1.318   8.871  20.346  0.00  0.00    +0.000 A 
ENDROOT
BRANCH  13  16
ATOM     16  O   UNL     1       2.675   5.974  18.658  0.00  0.00    +0.000 OA
BRANCH  16  17
ATOM     17  C   UNL     1       4.023   5.896  18.154  0.00  0.00    +0.000 C 
ATOM     18  C   UNL     1       5.024   5.456  19.260  0.00  0.00    +0.000 C 
ATOM     19  N   UNL     1       5.814   4.261  18.882  0.00  0.00    +0.000 NA
ATOM     20  C   UNL     1       4.867   3.148  18.652  0.00  0.00    +0.000 C 
ATOM     21  C   UNL     1       3.885   3.453  17.510  0.00  0.00    +0.000 C 
ATOM     22  C   UNL     1       4.132   4.876  16.988  0.00  0.00    +0.000 C 
ATOM     23  C   UNL     1       5.590   4.915  16.482  0.00  0.00    +0.000 C 
ATOM     24  C   UNL     1       6.546   4.564  17.637  0.00  0.00    +0.000 C 
ENDBRANCH  16  17
ENDBRANCH  13  16
TORSDOF 2
ENDMDL
MODEL 8
REMARK VINA RESULT:      -7.6      1.391      2.225
REMARK  Name = 
REMARK  2 active torsions:
REMARK  status: ('A' for Active; 'I' for Inactive)
REMARK    1  A    between atoms: C_13  and  O_14
REMARK    2  A    between atoms: O_14  and  C_15
REMARK                            x       y       z     vdW  Elec       q    Type
REMARK                         _______ _______ _______ _____ _____    ______ ____
ROOT
ATOM      1  O   UNL     1      -0.748   8.246  22.027  0.00  0.00    +0.000 OA
ATOM      2  S   UNL     1       0.385   9.139  21.992  0.00  0.00    +0.000 S 
ATOM      3  O   UNL     1       1.491   9.094  22.932  0.00  0.00    +0.000 OA
ATOM      4  C   UNL     1      -0.211  10.801  21.912  0.00  0.00    +0.000 A 
ATOM      5  C   UNL     1      -0.946  11.463  22.876  0.00  0.00    +0.000 A 
ATOM      6  C   UNL     1      -1.337  12.772  22.589  0.00  0.00    +0.000 A 
ATOM      7  C   UNL     1      -0.979  13.375  21.370  0.00  0.00    +0.000 A 
ATOM      8  C   UNL     1      -0.243  12.674  20.407  0.00  0.00    +0.000 A 
ATOM      9  C   UNL     1       0.131  11.359  20.672  0.00  0.00    +0.000 A 
ATOM     10  C   UNL     1       0.817  10.423  19.785  0.00  0.00    +0.000 A 
ATOM     11  C   UNL     1       1.201  10.631  18.473  0.00  0.00    +0.000 A 
ATOM     12  C   UNL     1       1.782   9.575  17.760  0.00  0.00    +0.000 A 
ATOM     13  C   UNL     1       2.044   8.330  18.367  0.00  0.00    +0.000 A 
ATOM     14  C   UNL     1       1.640   8.098  19.684  0.00  0.00    +0.000 A 
ATOM     15  C   UNL     1       1.037   9.157  20.353  0.00  0.00    +0.000 A 
ENDROOT
BRANCH  13  16
ATOM     16  O   UNL     1       2.722   7.304  17.743  0.00  0.00    +0.000 OA
BRANCH  16  17
ATOM     17  C   UNL     1       3.356   6.363  18.634  0.00  0.00    +0.000 C 
ATOM     18  C   UNL     1       2.613   4.997  18.649  0.00  0.00    +0.000 C 
ATOM     19  N   UNL     1       3.499   3.854  18.327  0.00  0.00    +0.000 NA
ATOM     20  C   UNL     1       4.037   4.070  16.966  0.00  0.00    +0.000 C 
ATOM     21  C   UNL     1       4.866   5.360  16.869  0.00  0.00    +0.000 C 
ATOM     22  C   UNL     1       4.827   6.095  18.217  0.00  0.00    +0.000 C 
ATOM     23  C   UNL     1       5.429   5.132  19.264  0.00  0.00    +0.000 C 
ATOM     24  C   UNL     1       4.604   3.834  19.305  0.00  0.00    +0.000 C 
ENDBRANCH  16  17
ENDBRANCH  13  16
TORSDOF 2
ENDMDL
MODEL 9
REMARK VINA RESULT:      -7.4      4.138      8.707
REMARK  Name = 
REMARK  2 active torsions:
REMARK  status: ('A' for Active; 'I' for Inactive)
REMARK    1  A    between atoms: C_13  and  O_14
REMARK    2  A    between atoms: O_14  and  C_15
REMARK                            x       y       z     vdW  Elec       q    Type
REMARK                         _______ _______ _______ _____ _____    ______ ____
ROOT
ATOM      1  O   UNL     1      -0.543  10.619  18.054  0.00  0.00    +0.000 OA
ATOM      2  S   UNL     1       0.610  10.726  18.915  0.00  0.00    +0.000 S 
ATOM      3  O   UNL     1       1.624  11.760  18.798  0.00  0.00    +0.000 OA
ATOM      4  C   UNL     1       1.420   9.156  18.966  0.00  0.00    +0.000 A 
ATOM      5  C   UNL     1       2.029   8.504  17.911  0.00  0.00    +0.000 A 
ATOM      6  C   UNL     1       2.585   7.251  18.175  0.00  0.00    +0.000 A 
ATOM      7  C   UNL     1       2.529   6.700  19.468  0.00  0.00    +0.000 A 
ATOM      8  C   UNL     1       1.895   7.380  20.514  0.00  0.00    +0.000 A 
ATOM      9  C   UNL     1       1.314   8.619  20.257  0.00  0.00    +0.000 A 
ATOM     10  C   UNL     1       0.534   9.453  21.168  0.00  0.00    +0.000 A 
ATOM     11  C   UNL     1       0.167   9.166  22.470  0.00  0.00    +0.000 A 
ATOM     12  C   UNL     1      -0.654  10.067  23.158  0.00  0.00    +0.000 A 
ATOM     13  C   UNL     1      -1.060  11.286  22.580  0.00  0.00    +0.000 A 
ATOM     14  C   UNL     1      -0.718  11.579  21.258  0.00  0.00    +0.000 A 
ATOM     15  C   UNL     1       0.071  10.648  20.592  0.00  0.00    +0.000 A 
ENDROOT
BRANCH  13  16
ATOM     16  O   UNL     1      -1.766  12.257  23.260  0.00  0.00    +0.000 OA
BRANCH  16  17
ATOM     17  C   UNL     1      -3.198  12.192  23.101  0.00  0.00    +0.000 C 
ATOM     18  C   UNL     1      -3.939  12.668  24.383  0.00  0.00    +0.000 C 
ATOM     19  N   UNL     1      -4.903  13.762  24.119  0.00  0.00    +0.000 NA
ATOM     20  C   UNL     1      -4.144  14.910  23.574  0.00  0.00    +0.000 C 
ATOM     21  C   UNL     1      -3.442  14.562  22.253  0.00  0.00    +0.000 C 
ATOM     22  C   UNL     1      -3.676  13.081  21.922  0.00  0.00    +0.000 C 
ATOM     23  C   UNL     1      -5.204  12.891  21.798  0.00  0.00    +0.000 C 
ATOM     24  C   UNL     1      -5.881  13.289  23.122  0.00  0.00    +0.000 C 
ENDBRANCH  16  17
ENDBRANCH  13  16
TORSDOF 2
ENDMDL
