MODEL 1
REMARK VINA RESULT:      -8.7      0.000      0.000
REMARK  Name = 
REMARK  5 active torsions:
REMARK  status: ('A' for Active; 'I' for Inactive)
REMARK    1  A    between atoms: C_1  and  C_2
REMARK    2  A    between atoms: N_12  and  S_13
REMARK    3  A    between atoms: S_13  and  C_16
REMARK    4  A    between atoms: C_19  and  C_20
REMARK    5  A    between atoms: C_23  and  C_24
REMARK                            x       y       z     vdW  Elec       q    Type
REMARK                         _______ _______ _______ _____ _____    ______ ____
ROOT
ATOM      1  S   UNL     1       4.547   3.654  18.312  0.00  0.00    +0.000 S 
ATOM      2  O   UNL     1       3.710   2.813  17.481  0.00  0.00    +0.000 OA
ATOM      3  O   UNL     1       5.079   3.146  19.560  0.00  0.00    +0.000 OA
ENDROOT
BRANCH   1  15
ATOM      4  C   UNL     1       8.690   9.053  18.492  0.00  0.00    +0.000 C 
ATOM      5  C   UNL     1       7.912   7.801  18.207  0.00  0.00    +0.000 A 
ATOM      6  C   UNL     1       8.173   6.623  18.919  0.00  0.00    +0.000 A 
ATOM      7  C   UNL     1       7.451   5.457  18.652  0.00  0.00    +0.000 A 
ATOM      8  C   UNL     1       6.477   5.447  17.655  0.00  0.00    +0.000 A 
ATOM      9  C   UNL     1       6.228   6.615  16.924  0.00  0.00    +0.000 A 
ATOM     10  C   UNL     1       6.915   7.794  17.219  0.00  0.00    +0.000 A 
ATOM     11  O   UNL     1       5.271   6.668  15.942  0.00  0.00    +0.000 OA
ATOM     12  C   UNL     1       5.636   5.887  14.799  0.00  0.00    +0.000 C 
ATOM     13  C   UNL     1       5.241   4.420  14.932  0.00  0.00    +0.000 C 
ATOM     14  C   UNL     1       6.041   3.683  15.992  0.00  0.00    +0.000 C 
ATOM     15  N   UNL     1       5.824   4.211  17.345  0.00  0.00    +0.000 N 
ENDBRANCH   1  15
BRANCH   1  16
ATOM     16  C   UNL     1       3.571   5.090  18.736  0.00  0.00    +0.000 A 
ATOM     17  C   UNL     1       3.128   5.959  17.735  0.00  0.00    +0.000 A 
ATOM     18  C   UNL     1       2.385   7.095  18.079  0.00  0.00    +0.000 A 
ATOM     19  C   UNL     1       2.078   7.383  19.419  0.00  0.00    +0.000 A 
ATOM     20  C   UNL     1       2.443   6.446  20.397  0.00  0.00    +0.000 A 
ATOM     21  C   UNL     1       3.174   5.299  20.058  0.00  0.00    +0.000 A 
BRANCH  19  22
ATOM     22  C   UNL     1       1.444   8.649  19.768  0.00  0.00    +0.000 A 
ATOM     23  C   UNL     1       1.110   9.280  20.946  0.00  0.00    +0.000 A 
ATOM     24  N   UNL     1       0.466  10.462  20.695  0.00  0.00    +0.000 NA
ATOM     25  C   UNL     1       0.407  10.517  19.380  0.00  0.00    +0.000 A 
ATOM     26  O   UNL     1       0.982   9.442  18.748  0.00  0.00    +0.000 OA
BRANCH  25  27
ATOM     27  C   UNL     1      -0.245  11.687  18.657  0.00  0.00    +0.000 C 
ATOM     28  C   UNL     1      -1.634  11.497  18.084  0.00  0.00    +0.000 C 
ATOM     29  C   UNL     1      -1.448  12.362  19.282  0.00  0.00    +0.000 C 
ENDBRANCH  25  27
ENDBRANCH  19  22
ENDBRANCH   1  16
TORSDOF 4
ENDMDL
MODEL 2
REMARK VINA RESULT:      -8.6      0.851      1.153
REMARK  Name = 
REMARK  5 active torsions:
REMARK  status: ('A' for Active; 'I' for Inactive)
REMARK    1  A    between atoms: C_1  and  C_2
REMARK    2  A    between atoms: N_12  and  S_13
REMARK    3  A    between atoms: S_13  and  C_16
REMARK    4  A    between atoms: C_19  and  C_20
REMARK    5  A    between atoms: C_23  and  C_24
REMARK                            x       y       z     vdW  Elec       q    Type
REMARK                         _______ _______ _______ _____ _____    ______ ____
ROOT
ATOM      1  S   UNL     1       4.475   3.696  18.276  0.00  0.00    +0.000 S 
ATOM      2  O   UNL     1       3.632   2.882  17.425  0.00  0.00    +0.000 OA
ATOM      3  O   UNL     1       4.959   3.171  19.537  0.00  0.00    +0.000 OA
ENDROOT
BRANCH   1  15
ATOM      4  C   UNL     1       8.702   9.028  18.477  0.00  0.00    +0.000 C 
ATOM      5  C   UNL     1       7.913   7.783  18.193  0.00  0.00    +0.000 A 
ATOM      6  C   UNL     1       8.129   6.617  18.939  0.00  0.00    +0.000 A 
ATOM      7  C   UNL     1       7.397   5.458  18.674  0.00  0.00    +0.000 A 
ATOM      8  C   UNL     1       6.457   5.441  17.645  0.00  0.00    +0.000 A 
ATOM      9  C   UNL     1       6.252   6.596  16.880  0.00  0.00    +0.000 A 
ATOM     10  C   UNL     1       6.950   7.771  17.173  0.00  0.00    +0.000 A 
ATOM     11  O   UNL     1       5.330   6.643  15.866  0.00  0.00    +0.000 OA
ATOM     12  C   UNL     1       5.720   5.830  14.754  0.00  0.00    +0.000 C 
ATOM     13  C   UNL     1       5.295   4.374  14.905  0.00  0.00    +0.000 C 
ATOM     14  C   UNL     1       6.047   3.647  16.007  0.00  0.00    +0.000 C 
ATOM     15  N   UNL     1       5.793   4.210  17.341  0.00  0.00    +0.000 N 
ENDBRANCH   1  15
BRANCH   1  16
ATOM     16  C   UNL     1       3.537   5.163  18.676  0.00  0.00    +0.000 A 
ATOM     17  C   UNL     1       3.028   5.971  17.656  0.00  0.00    +0.000 A 
ATOM     18  C   UNL     1       2.315   7.133  17.978  0.00  0.00    +0.000 A 
ATOM     19  C   UNL     1       2.105   7.506  19.316  0.00  0.00    +0.000 A 
ATOM     20  C   UNL     1       2.534   6.629  20.323  0.00  0.00    +0.000 A 
ATOM     21  C   UNL     1       3.235   5.457  20.007  0.00  0.00    +0.000 A 
BRANCH  19  22
ATOM     22  C   UNL     1       1.501   8.797  19.628  0.00  0.00    +0.000 A 
ATOM     23  C   UNL     1       0.586   9.246  20.555  0.00  0.00    +0.000 A 
ATOM     24  N   UNL     1       0.326  10.577  20.369  0.00  0.00    +0.000 NA
ATOM     25  C   UNL     1       1.068  10.903  19.331  0.00  0.00    +0.000 A 
ATOM     26  O   UNL     1       1.810   9.865  18.825  0.00  0.00    +0.000 OA
BRANCH  25  27
ATOM     27  C   UNL     1       1.082  12.318  18.770  0.00  0.00    +0.000 C 
ATOM     28  C   UNL     1       1.939  13.360  19.458  0.00  0.00    +0.000 C 
ATOM     29  C   UNL     1       2.346  12.843  18.122  0.00  0.00    +0.000 C 
ENDBRANCH  25  27
ENDBRANCH  19  22
ENDBRANCH   1  16
TORSDOF 4
ENDMDL
MODEL 3
REMARK VINA RESULT:      -8.6      2.874      6.794
REMARK  Name = 
REMARK  5 active torsions:
REMARK  status: ('A' for Active; 'I' for Inactive)
REMARK    1  A    between atoms: C_1  and  C_2
REMARK    2  A    between atoms: N_12  and  S_13
REMARK    3  A    between atoms: S_13  and  C_16
REMARK    4  A    between atoms: C_19  and  C_20
REMARK    5  A    between atoms: C_23  and  C_24
REMARK                            x       y       z     vdW  Elec       q    Type
REMARK                         _______ _______ _______ _____ _____    ______ ____
ROOT
ATOM      1  S   UNL     1       5.423   4.059  17.854  0.00  0.00    +0.000 S 
ATOM      2  O   UNL     1       5.590   3.437  19.151  0.00  0.00    +0.000 OA
ATOM      3  O   UNL     1       5.861   3.372  16.656  0.00  0.00    +0.000 OA
ENDROOT
BRANCH   1  15
ATOM      4  C   UNL     1       1.141   8.093  21.279  0.00  0.00    +0.000 C 
ATOM      5  C   UNL     1       1.853   7.137  20.369  0.00  0.00    +0.000 A 
ATOM      6  C   UNL     1       2.689   7.611  19.350  0.00  0.00    +0.000 A 
ATOM      7  C   UNL     1       3.350   6.721  18.500  0.00  0.00    +0.000 A 
ATOM      8  C   UNL     1       3.167   5.346  18.642  0.00  0.00    +0.000 A 
ATOM      9  C   UNL     1       2.315   4.866  19.645  0.00  0.00    +0.000 A 
ATOM     10  C   UNL     1       1.688   5.752  20.525  0.00  0.00    +0.000 A 
ATOM     11  O   UNL     1       2.108   3.524  19.842  0.00  0.00    +0.000 OA
ATOM     12  C   UNL     1       1.371   2.935  18.765  0.00  0.00    +0.000 C 
ATOM     13  C   UNL     1       2.260   2.501  17.605  0.00  0.00    +0.000 C 
ATOM     14  C   UNL     1       2.878   3.672  16.859  0.00  0.00    +0.000 C 
ATOM     15  N   UNL     1       3.785   4.469  17.696  0.00  0.00    +0.000 N 
ENDBRANCH   1  15
BRANCH   1  16
ATOM     16  C   UNL     1       6.327   5.599  17.903  0.00  0.00    +0.000 A 
ATOM     17  C   UNL     1       7.382   5.766  18.806  0.00  0.00    +0.000 A 
ATOM     18  C   UNL     1       8.069   6.985  18.855  0.00  0.00    +0.000 A 
ATOM     19  C   UNL     1       7.714   8.052  18.013  0.00  0.00    +0.000 A 
ATOM     20  C   UNL     1       6.723   7.830  17.046  0.00  0.00    +0.000 A 
ATOM     21  C   UNL     1       6.041   6.607  16.981  0.00  0.00    +0.000 A 
BRANCH  19  22
ATOM     22  C   UNL     1       8.335   9.360  18.190  0.00  0.00    +0.000 A 
ATOM     23  C   UNL     1       8.289  10.560  17.514  0.00  0.00    +0.000 A 
ATOM     24  N   UNL     1       9.129  11.472  18.094  0.00  0.00    +0.000 NA
ATOM     25  C   UNL     1       9.675  10.809  19.092  0.00  0.00    +0.000 A 
ATOM     26  O   UNL     1       9.240   9.512  19.209  0.00  0.00    +0.000 OA
BRANCH  25  27
ATOM     27  C   UNL     1      10.696  11.456  20.019  0.00  0.00    +0.000 C 
ATOM     28  C   UNL     1      12.108  11.659  19.509  0.00  0.00    +0.000 C 
ATOM     29  C   UNL     1      11.218  12.839  19.690  0.00  0.00    +0.000 C 
ENDBRANCH  25  27
ENDBRANCH  19  22
ENDBRANCH   1  16
TORSDOF 4
ENDMDL
MODEL 4
REMARK VINA RESULT:      -8.6      1.065      1.361
REMARK  Name = 
REMARK  5 active torsions:
REMARK  status: ('A' for Active; 'I' for Inactive)
REMARK    1  A    between atoms: C_1  and  C_2
REMARK    2  A    between atoms: N_12  and  S_13
REMARK    3  A    between atoms: S_13  and  C_16
REMARK    4  A    between atoms: C_19  and  C_20
REMARK    5  A    between atoms: C_23  and  C_24
REMARK                            x       y       z     vdW  Elec       q    Type
REMARK                         _______ _______ _______ _____ _____    ______ ____
ROOT
ATOM      1  S   UNL     1       4.431   3.766  18.358  0.00  0.00    +0.000 S 
ATOM      2  O   UNL     1       3.612   2.899  17.537  0.00  0.00    +0.000 OA
ATOM      3  O   UNL     1       4.895   3.317  19.655  0.00  0.00    +0.000 OA
ENDROOT
BRANCH   1  15
ATOM      4  C   UNL     1       8.761   9.017  18.500  0.00  0.00    +0.000 C 
ATOM      5  C   UNL     1       7.949   7.784  18.231  0.00  0.00    +0.000 A 
ATOM      6  C   UNL     1       8.139   6.626  18.995  0.00  0.00    +0.000 A 
ATOM      7  C   UNL     1       7.386   5.477  18.744  0.00  0.00    +0.000 A 
ATOM      8  C   UNL     1       6.449   5.463  17.711  0.00  0.00    +0.000 A 
ATOM      9  C   UNL     1       6.271   6.611  16.928  0.00  0.00    +0.000 A 
ATOM     10  C   UNL     1       6.990   7.776  17.207  0.00  0.00    +0.000 A 
ATOM     11  O   UNL     1       5.354   6.661  15.909  0.00  0.00    +0.000 OA
ATOM     12  C   UNL     1       5.732   5.825  14.811  0.00  0.00    +0.000 C 
ATOM     13  C   UNL     1       5.278   4.379  14.981  0.00  0.00    +0.000 C 
ATOM     14  C   UNL     1       6.011   3.654  16.097  0.00  0.00    +0.000 C 
ATOM     15  N   UNL     1       5.763   4.241  17.421  0.00  0.00    +0.000 N 
ENDBRANCH   1  15
BRANCH   1  16
ATOM     16  C   UNL     1       3.473   5.244  18.659  0.00  0.00    +0.000 A 
ATOM     17  C   UNL     1       2.928   5.958  17.587  0.00  0.00    +0.000 A 
ATOM     18  C   UNL     1       2.200   7.129  17.830  0.00  0.00    +0.000 A 
ATOM     19  C   UNL     1       2.008   7.606  19.138  0.00  0.00    +0.000 A 
ATOM     20  C   UNL     1       2.474   6.820  20.202  0.00  0.00    +0.000 A 
ATOM     21  C   UNL     1       3.191   5.640  19.967  0.00  0.00    +0.000 A 
BRANCH  19  22
ATOM     22  C   UNL     1       1.386   8.906  19.357  0.00  0.00    +0.000 A 
ATOM     23  C   UNL     1       1.528  10.160  18.804  0.00  0.00    +0.000 A 
ATOM     24  N   UNL     1       0.712  11.061  19.434  0.00  0.00    +0.000 NA
ATOM     25  C   UNL     1       0.107  10.345  20.360  0.00  0.00    +0.000 A 
ATOM     26  O   UNL     1       0.472   9.022  20.374  0.00  0.00    +0.000 OA
BRANCH  25  27
ATOM     27  C   UNL     1      -0.906  10.964  21.314  0.00  0.00    +0.000 C 
ATOM     28  C   UNL     1      -0.678  10.816  22.804  0.00  0.00    +0.000 C 
ATOM     29  C   UNL     1      -0.492  12.148  22.163  0.00  0.00    +0.000 C 
ENDBRANCH  25  27
ENDBRANCH  19  22
ENDBRANCH   1  16
TORSDOF 4
ENDMDL
MODEL 5
REMARK VINA RESULT:      -8.5      1.145      1.746
REMARK  Name = 
REMARK  5 active torsions:
REMARK  status: ('A' for Active; 'I' for Inactive)
REMARK    1  A    between atoms: C_1  and  C_2
REMARK    2  A    between atoms: N_12  and  S_13
REMARK    3  A    between atoms: S_13  and  C_16
REMARK    4  A    between atoms: C_19  and  C_20
REMARK    5  A    between atoms: C_23  and  C_24
REMARK                            x       y       z     vdW  Elec       q    Type
REMARK                         _______ _______ _______ _____ _____    ______ ____
ROOT
ATOM      1  S   UNL     1       4.091   3.788  18.038  0.00  0.00    +0.000 S 
ATOM      2  O   UNL     1       3.207   3.165  17.075  0.00  0.00    +0.000 OA
ATOM      3  O   UNL     1       4.393   3.119  19.288  0.00  0.00    +0.000 OA
ENDROOT
BRANCH   1  15
ATOM      4  C   UNL     1       8.750   8.722  18.575  0.00  0.00    +0.000 C 
ATOM      5  C   UNL     1       7.882   7.546  18.235  0.00  0.00    +0.000 A 
ATOM      6  C   UNL     1       7.913   6.388  19.022  0.00  0.00    +0.000 A 
ATOM      7  C   UNL     1       7.107   5.291  18.705  0.00  0.00    +0.000 A 
ATOM      8  C   UNL     1       6.279   5.329  17.584  0.00  0.00    +0.000 A 
ATOM      9  C   UNL     1       6.261   6.476  16.780  0.00  0.00    +0.000 A 
ATOM     10  C   UNL     1       7.031   7.590  17.120  0.00  0.00    +0.000 A 
ATOM     11  O   UNL     1       5.456   6.575  15.674  0.00  0.00    +0.000 OA
ATOM     12  C   UNL     1       5.880   5.699  14.624  0.00  0.00    +0.000 C 
ATOM     13  C   UNL     1       5.310   4.292  14.759  0.00  0.00    +0.000 C 
ATOM     14  C   UNL     1       5.874   3.533  15.948  0.00  0.00    +0.000 C 
ATOM     15  N   UNL     1       5.539   4.154  17.236  0.00  0.00    +0.000 N 
ENDBRANCH   1  15
BRANCH   1  16
ATOM     16  C   UNL     1       3.348   5.352  18.480  0.00  0.00    +0.000 A 
ATOM     17  C   UNL     1       2.951   5.594  19.798  0.00  0.00    +0.000 A 
ATOM     18  C   UNL     1       2.346   6.812  20.130  0.00  0.00    +0.000 A 
ATOM     19  C   UNL     1       2.125   7.801  19.157  0.00  0.00    +0.000 A 
ATOM     20  C   UNL     1       2.623   7.580  17.865  0.00  0.00    +0.000 A 
ATOM     21  C   UNL     1       3.242   6.369  17.529  0.00  0.00    +0.000 A 
BRANCH  19  22
ATOM     22  C   UNL     1       1.354   8.993  19.489  0.00  0.00    +0.000 A 
ATOM     23  C   UNL     1       0.786  10.020  18.766  0.00  0.00    +0.000 A 
ATOM     24  N   UNL     1       0.204  10.934  19.602  0.00  0.00    +0.000 NA
ATOM     25  C   UNL     1       0.441  10.458  20.807  0.00  0.00    +0.000 A 
ATOM     26  O   UNL     1       1.142   9.277  20.815  0.00  0.00    +0.000 OA
BRANCH  25  27
ATOM     27  C   UNL     1      -0.036  11.178  22.060  0.00  0.00    +0.000 C 
ATOM     28  C   UNL     1      -1.524  11.397  22.245  0.00  0.00    +0.000 C 
ATOM     29  C   UNL     1      -0.817  10.405  23.102  0.00  0.00    +0.000 C 
ENDBRANCH  25  27
ENDBRANCH  19  22
ENDBRANCH   1  16
TORSDOF 4
ENDMDL
MODEL 6
REMARK VINA RESULT:      -8.4      2.779      8.297
REMARK  Name = 
REMARK  5 active torsions:
REMARK  status: ('A' for Active; 'I' for Inactive)
REMARK    1  A    between atoms: C_1  and  C_2
REMARK    2  A    between atoms: N_12  and  S_13
REMARK    3  A    between atoms: S_13  and  C_16
REMARK    4  A    between atoms: C_19  and  C_20
REMARK    5  A    between atoms: C_23  and  C_24
REMARK                            x       y       z     vdW  Elec       q    Type
REMARK                         _______ _______ _______ _____ _____    ______ ____
ROOT
ATOM      1  S   UNL     1       0.636  10.123  20.727  0.00  0.00    +0.000 S 
ATOM      2  O   UNL     1       1.650  10.786  21.520  0.00  0.00    +0.000 OA
ATOM      3  O   UNL     1      -0.544   9.575  21.365  0.00  0.00    +0.000 OA
ENDROOT
BRANCH   1  15
ATOM      4  C   UNL     1       3.149  15.933  18.224  0.00  0.00    +0.000 C 
ATOM      5  C   UNL     1       2.379  14.699  18.592  0.00  0.00    +0.000 A 
ATOM      6  C   UNL     1       2.797  13.439  18.146  0.00  0.00    +0.000 A 
ATOM      7  C   UNL     1       2.080  12.290  18.486  0.00  0.00    +0.000 A 
ATOM      8  C   UNL     1       0.922  12.387  19.257  0.00  0.00    +0.000 A 
ATOM      9  C   UNL     1       0.485  13.647  19.687  0.00  0.00    +0.000 A 
ATOM     10  C   UNL     1       1.225  14.792  19.387  0.00  0.00    +0.000 A 
ATOM     11  O   UNL     1      -0.637  13.802  20.460  0.00  0.00    +0.000 OA
ATOM     12  C   UNL     1      -1.832  13.503  19.730  0.00  0.00    +0.000 C 
ATOM     13  C   UNL     1      -2.180  12.019  19.742  0.00  0.00    +0.000 C 
ATOM     14  C   UNL     1      -1.199  11.171  18.951  0.00  0.00    +0.000 C 
ATOM     15  N   UNL     1       0.161  11.201  19.507  0.00  0.00    +0.000 N 
ENDBRANCH   1  15
BRANCH   1  16
ATOM     16  C   UNL     1       1.439   8.753  19.908  0.00  0.00    +0.000 A 
ATOM     17  C   UNL     1       1.853   8.875  18.578  0.00  0.00    +0.000 A 
ATOM     18  C   UNL     1       2.458   7.788  17.936  0.00  0.00    +0.000 A 
ATOM     19  C   UNL     1       2.655   6.568  18.605  0.00  0.00    +0.000 A 
ATOM     20  C   UNL     1       2.327   6.500  19.966  0.00  0.00    +0.000 A 
ATOM     21  C   UNL     1       1.734   7.589  20.620  0.00  0.00    +0.000 A 
BRANCH  19  22
ATOM     22  C   UNL     1       3.140   5.404  17.872  0.00  0.00    +0.000 A 
ATOM     23  C   UNL     1       2.713   4.103  17.717  0.00  0.00    +0.000 A 
ATOM     24  N   UNL     1       3.592   3.396  16.942  0.00  0.00    +0.000 NA
ATOM     25  C   UNL     1       4.536   4.270  16.657  0.00  0.00    +0.000 A 
ATOM     26  O   UNL     1       4.327   5.516  17.195  0.00  0.00    +0.000 OA
BRANCH  25  27
ATOM     27  C   UNL     1       5.739   3.898  15.801  0.00  0.00    +0.000 C 
ATOM     28  C   UNL     1       5.706   4.235  14.325  0.00  0.00    +0.000 C 
ATOM     29  C   UNL     1       6.608   5.000  15.231  0.00  0.00    +0.000 C 
ENDBRANCH  25  27
ENDBRANCH  19  22
ENDBRANCH   1  16
TORSDOF 4
ENDMDL
MODEL 7
REMARK VINA RESULT:      -8.3      2.780      8.435
REMARK  Name = 
REMARK  5 active torsions:
REMARK  status: ('A' for Active; 'I' for Inactive)
REMARK    1  A    between atoms: C_1  and  C_2
REMARK    2  A    between atoms: N_12  and  S_13
REMARK    3  A    between atoms: S_13  and  C_16
REMARK    4  A    between atoms: C_19  and  C_20
REMARK    5  A    between atoms: C_23  and  C_24
REMARK                            x       y       z     vdW  Elec       q    Type
REMARK                         _______ _______ _______ _____ _____    ______ ____
ROOT
ATOM      1  S   UNL     1       0.606   9.869  20.334  0.00  0.00    +0.000 S 
ATOM      2  O   UNL     1       1.538  10.661  21.109  0.00  0.00    +0.000 OA
ATOM      3  O   UNL     1      -0.552   9.276  20.971  0.00  0.00    +0.000 OA
ENDROOT
BRANCH   1  15
ATOM      4  C   UNL     1       0.996  16.487  18.788  0.00  0.00    +0.000 C 
ATOM      5  C   UNL     1       0.760  15.008  18.884  0.00  0.00    +0.000 A 
ATOM      6  C   UNL     1       1.789  14.103  18.599  0.00  0.00    +0.000 A 
ATOM      7  C   UNL     1       1.570  12.726  18.686  0.00  0.00    +0.000 A 
ATOM      8  C   UNL     1       0.312  12.236  19.037  0.00  0.00    +0.000 A 
ATOM      9  C   UNL     1      -0.728  13.136  19.302  0.00  0.00    +0.000 A 
ATOM     10  C   UNL     1      -0.499  14.514  19.260  0.00  0.00    +0.000 A 
ATOM     11  O   UNL     1      -1.981  12.713  19.666  0.00  0.00    +0.000 OA
ATOM     12  C   UNL     1      -2.658  12.061  18.586  0.00  0.00    +0.000 C 
ATOM     13  C   UNL     1      -2.322  10.577  18.484  0.00  0.00    +0.000 C 
ATOM     14  C   UNL     1      -0.887  10.321  18.057  0.00  0.00    +0.000 C 
ATOM     15  N   UNL     1       0.098  10.821  19.025  0.00  0.00    +0.000 N 
ENDBRANCH   1  15
BRANCH   1  16
ATOM     16  C   UNL     1       1.539   8.513  19.640  0.00  0.00    +0.000 A 
ATOM     17  C   UNL     1       2.114   8.632  18.371  0.00  0.00    +0.000 A 
ATOM     18  C   UNL     1       2.823   7.555  17.824  0.00  0.00    +0.000 A 
ATOM     19  C   UNL     1       2.963   6.347  18.528  0.00  0.00    +0.000 A 
ATOM     20  C   UNL     1       2.468   6.284  19.838  0.00  0.00    +0.000 A 
ATOM     21  C   UNL     1       1.771   7.363  20.398  0.00  0.00    +0.000 A 
BRANCH  19  22
ATOM     22  C   UNL     1       3.565   5.189  17.877  0.00  0.00    +0.000 A 
ATOM     23  C   UNL     1       3.393   3.824  17.964  0.00  0.00    +0.000 A 
ATOM     24  N   UNL     1       4.278   3.174  17.146  0.00  0.00    +0.000 NA
ATOM     25  C   UNL     1       4.975   4.148  16.596  0.00  0.00    +0.000 A 
ATOM     26  O   UNL     1       4.596   5.405  16.999  0.00  0.00    +0.000 OA
BRANCH  25  27
ATOM     27  C   UNL     1       6.093   3.868  15.602  0.00  0.00    +0.000 C 
ATOM     28  C   UNL     1       5.823   4.095  14.129  0.00  0.00    +0.000 C 
ATOM     29  C   UNL     1       6.727   5.027  14.860  0.00  0.00    +0.000 C 
ENDBRANCH  25  27
ENDBRANCH  19  22
ENDBRANCH   1  16
TORSDOF 4
ENDMDL
MODEL 8
REMARK VINA RESULT:      -8.3      2.826      9.321
REMARK  Name = 
REMARK  5 active torsions:
REMARK  status: ('A' for Active; 'I' for Inactive)
REMARK    1  A    between atoms: C_1  and  C_2
REMARK    2  A    between atoms: N_12  and  S_13
REMARK    3  A    between atoms: S_13  and  C_16
REMARK    4  A    between atoms: C_19  and  C_20
REMARK    5  A    between atoms: C_23  and  C_24
REMARK                            x       y       z     vdW  Elec       q    Type
REMARK                         _______ _______ _______ _____ _____    ______ ____
ROOT
ATOM      1  S   UNL     1       0.856  11.222  19.913  0.00  0.00    +0.000 S 
ATOM      2  O   UNL     1       0.769  12.091  18.758  0.00  0.00    +0.000 OA
ATOM      3  O   UNL     1       1.643  11.615  21.064  0.00  0.00    +0.000 OA
ENDROOT
BRANCH   1  15
ATOM      4  C   UNL     1      -5.275  11.600  16.978  0.00  0.00    +0.000 C 
ATOM      5  C   UNL     1      -4.071  11.438  17.858  0.00  0.00    +0.000 A 
ATOM      6  C   UNL     1      -3.235  10.322  17.723  0.00  0.00    +0.000 A 
ATOM      7  C   UNL     1      -2.115  10.169  18.544  0.00  0.00    +0.000 A 
ATOM      8  C   UNL     1      -1.829  11.117  19.527  0.00  0.00    +0.000 A 
ATOM      9  C   UNL     1      -2.675  12.223  19.682  0.00  0.00    +0.000 A 
ATOM     10  C   UNL     1      -3.769  12.402  18.833  0.00  0.00    +0.000 A 
ATOM     11  O   UNL     1      -2.436  13.194  20.621  0.00  0.00    +0.000 OA
ATOM     12  C   UNL     1      -2.629  12.707  21.953  0.00  0.00    +0.000 C 
ATOM     13  C   UNL     1      -1.389  12.027  22.522  0.00  0.00    +0.000 C 
ATOM     14  C   UNL     1      -1.062  10.714  21.832  0.00  0.00    +0.000 C 
ATOM     15  N   UNL     1      -0.729  10.880  20.411  0.00  0.00    +0.000 N 
ENDBRANCH   1  15
BRANCH   1  16
ATOM     16  C   UNL     1       1.550   9.677  19.341  0.00  0.00    +0.000 A 
ATOM     17  C   UNL     1       2.086   9.583  18.054  0.00  0.00    +0.000 A 
ATOM     18  C   UNL     1       2.605   8.362  17.605  0.00  0.00    +0.000 A 
ATOM     19  C   UNL     1       2.592   7.222  18.426  0.00  0.00    +0.000 A 
ATOM     20  C   UNL     1       2.144   7.365  19.747  0.00  0.00    +0.000 A 
ATOM     21  C   UNL     1       1.637   8.587  20.209  0.00  0.00    +0.000 A 
BRANCH  19  22
ATOM     22  C   UNL     1       2.990   5.927  17.885  0.00  0.00    +0.000 A 
ATOM     23  C   UNL     1       2.443   4.663  17.883  0.00  0.00    +0.000 A 
ATOM     24  N   UNL     1       3.279   3.776  17.260  0.00  0.00    +0.000 NA
ATOM     25  C   UNL     1       4.316   4.511  16.913  0.00  0.00    +0.000 A 
ATOM     26  O   UNL     1       4.210   5.834  17.265  0.00  0.00    +0.000 OA
BRANCH  25  27
ATOM     27  C   UNL     1       5.511   3.914  16.182  0.00  0.00    +0.000 C 
ATOM     28  C   UNL     1       5.674   4.206  14.705  0.00  0.00    +0.000 C 
ATOM     29  C   UNL     1       6.606   4.834  15.683  0.00  0.00    +0.000 C 
ENDBRANCH  25  27
ENDBRANCH  19  22
ENDBRANCH   1  16
TORSDOF 4
ENDMDL
MODEL 9
REMARK VINA RESULT:      -8.2      1.023      1.539
REMARK  Name = 
REMARK  5 active torsions:
REMARK  status: ('A' for Active; 'I' for Inactive)
REMARK    1  A    between atoms: C_1  and  C_2
REMARK    2  A    between atoms: N_12  and  S_13
REMARK    3  A    between atoms: S_13  and  C_16
REMARK    4  A    between atoms: C_19  and  C_20
REMARK    5  A    between atoms: C_23  and  C_24
REMARK                            x       y       z     vdW  Elec       q    Type
REMARK                         _______ _______ _______ _____ _____    ______ ____
ROOT
ATOM      1  S   UNL     1       3.931   3.913  18.153  0.00  0.00    +0.000 S 
ATOM      2  O   UNL     1       3.040   3.274  17.207  0.00  0.00    +0.000 OA
ATOM      3  O   UNL     1       4.199   3.291  19.434  0.00  0.00    +0.000 OA
ENDROOT
BRANCH   1  15
ATOM      4  C   UNL     1       8.765   8.686  18.586  0.00  0.00    +0.000 C 
ATOM      5  C   UNL     1       7.857   7.533  18.273  0.00  0.00    +0.000 A 
ATOM      6  C   UNL     1       7.838   6.399  19.094  0.00  0.00    +0.000 A 
ATOM      7  C   UNL     1       6.995   5.323  18.803  0.00  0.00    +0.000 A 
ATOM      8  C   UNL     1       6.178   5.358  17.673  0.00  0.00    +0.000 A 
ATOM      9  C   UNL     1       6.210   6.480  16.835  0.00  0.00    +0.000 A 
ATOM     10  C   UNL     1       7.017   7.575  17.149  0.00  0.00    +0.000 A 
ATOM     11  O   UNL     1       5.417   6.576  15.719  0.00  0.00    +0.000 OA
ATOM     12  C   UNL     1       5.818   5.653  14.700  0.00  0.00    +0.000 C 
ATOM     13  C   UNL     1       5.194   4.272  14.872  0.00  0.00    +0.000 C 
ATOM     14  C   UNL     1       5.721   3.529  16.088  0.00  0.00    +0.000 C 
ATOM     15  N   UNL     1       5.399   4.201  17.354  0.00  0.00    +0.000 N 
ENDBRANCH   1  15
BRANCH   1  16
ATOM     16  C   UNL     1       3.230   5.516  18.516  0.00  0.00    +0.000 A 
ATOM     17  C   UNL     1       2.905   5.858  19.832  0.00  0.00    +0.000 A 
ATOM     18  C   UNL     1       2.333   7.107  20.105  0.00  0.00    +0.000 A 
ATOM     19  C   UNL     1       2.072   8.026  19.074  0.00  0.00    +0.000 A 
ATOM     20  C   UNL     1       2.498   7.703  17.778  0.00  0.00    +0.000 A 
ATOM     21  C   UNL     1       3.086   6.462  17.500  0.00  0.00    +0.000 A 
BRANCH  19  22
ATOM     22  C   UNL     1       1.332   9.250  19.358  0.00  0.00    +0.000 A 
ATOM     23  C   UNL     1       0.257   9.576  20.155  0.00  0.00    +0.000 A 
ATOM     24  N   UNL     1      -0.073  10.896  20.004  0.00  0.00    +0.000 NA
ATOM     25  C   UNL     1       0.790  11.338  19.113  0.00  0.00    +0.000 A 
ATOM     26  O   UNL     1       1.677  10.386  18.672  0.00  0.00    +0.000 OA
BRANCH  25  27
ATOM     27  C   UNL     1       0.780  12.784  18.638  0.00  0.00    +0.000 C 
ATOM     28  C   UNL     1       1.529  13.817  19.454  0.00  0.00    +0.000 C 
ATOM     29  C   UNL     1       2.066  13.402  18.128  0.00  0.00    +0.000 C 
ENDBRANCH  25  27
ENDBRANCH  19  22
ENDBRANCH   1  16
TORSDOF 4
ENDMDL
