MODEL 1
REMARK VINA RESULT:      -7.4      0.000      0.000
REMARK  Name = 
REMARK  6 active torsions:
REMARK  status: ('A' for Active; 'I' for Inactive)
REMARK    1  A    between atoms: C_2  and  C_3
REMARK    2  A    between atoms: C_3  and  C_5
REMARK    3  A    between atoms: C_3  and  C_6
REMARK    4  A    between atoms: C_8  and  C_9
REMARK    5  A    between atoms: C_15  and  C_16
REMARK    6  A    between atoms: C_21  and  N_22
REMARK                            x       y       z     vdW  Elec       q    Type
REMARK                         _______ _______ _______ _____ _____    ______ ____
ROOT
ATOM      1  C   UNL     1       5.739   4.688  15.442  0.00  0.00    +0.000 A 
ATOM      2  C   UNL     1       6.661   5.676  16.003  0.00  0.00    +0.000 A 
ATOM      3  C   UNL     1       6.347   6.488  17.044  0.00  0.00    +0.000 A 
ATOM      4  C   UNL     1       5.045   6.344  17.621  0.00  0.00    +0.000 A 
ATOM      5  N   UNL     1       4.499   6.960  18.645  0.00  0.00    +0.000 NA
ATOM      6  C   UNL     1       3.215   6.453  18.773  0.00  0.00    +0.000 A 
ATOM      7  C   UNL     1       3.019   5.489  17.810  0.00  0.00    +0.000 A 
ATOM      8 CL   UNL     1       1.676   4.503  17.444  0.00  0.00    +0.000 Cl
ATOM      9  N   UNL     1       4.174   5.403  17.074  0.00  0.00    +0.000 N 
ATOM     10  C   UNL     1       4.518   4.586  15.999  0.00  0.00    +0.000 A 
ENDROOT
BRANCH   6  11
ATOM     11  C   UNL     1       2.271   6.846  19.820  0.00  0.00    +0.000 C 
ATOM     12  O   UNL     1       1.986   6.056  20.723  0.00  0.00    +0.000 OA
ATOM     13  N   UNL     1       1.705   8.124  19.780  0.00  0.00    +0.000 N 
ATOM     14  C   UNL     1       0.963   8.587  20.947  0.00  0.00    +0.000 C 
ATOM     15  C   UNL     1      -0.372   9.211  20.549  0.00  0.00    +0.000 C 
ATOM     16  C   UNL     1      -0.174  10.332  19.511  0.00  0.00    +0.000 C 
ATOM     17  C   UNL     1       0.553   9.724  18.305  0.00  0.00    +0.000 C 
ATOM     18  C   UNL     1       1.884   9.098  18.696  0.00  0.00    +0.000 C 
BRANCH  16  19
ATOM     19  N   UNL     1       0.490  11.514  20.090  0.00  0.00    +0.000 N 
ATOM     20  C   UNL     1       0.081  12.055  21.355  0.00  0.00    +0.000 C 
ATOM     21  C   UNL     1       0.950  13.273  21.491  0.00  0.00    +0.000 C 
ATOM     22  O   UNL     1       1.278  13.630  20.152  0.00  0.00    +0.000 OA
ATOM     23  C   UNL     1       1.059  12.535  19.350  0.00  0.00    +0.000 C 
ATOM     24  O   UNL     1       1.337  12.533  18.166  0.00  0.00    +0.000 OA
ENDBRANCH  16  19
ENDBRANCH   6  11
BRANCH   3  25
ATOM     25  C   UNL     1       7.372   7.472  17.540  0.00  0.00    +0.000 C 
ATOM     26  F   UNL     1       6.888   8.712  17.790  0.00  0.00    +0.000 F 
ATOM     27  F   UNL     1       7.949   7.039  18.694  0.00  0.00    +0.000 F 
ATOM     28  F   UNL     1       8.383   7.623  16.643  0.00  0.00    +0.000 F 
ENDBRANCH   3  25
BRANCH   1  29
ATOM     29  C   UNL     1       6.168   3.839  14.261  0.00  0.00    +0.000 C 
ATOM     30  H   UNL     1       6.463   2.848  14.632  0.00  0.00    +0.000 HD
ATOM     31  C   UNL     1       7.388   4.420  13.541  0.00  0.00    +0.000 C 
BRANCH  29  33
ATOM     32  H   UNL     1       4.120   3.261  13.815  0.00  0.00    +0.000 HD
ATOM     33  C   UNL     1       5.009   3.617  13.285  0.00  0.00    +0.000 C 
ENDBRANCH  29  33
ENDBRANCH   1  29
TORSDOF 5
ENDMDL
MODEL 2
REMARK VINA RESULT:      -7.2      0.753      1.275
REMARK  Name = 
REMARK  6 active torsions:
REMARK  status: ('A' for Active; 'I' for Inactive)
REMARK    1  A    between atoms: C_2  and  C_3
REMARK    2  A    between atoms: C_3  and  C_5
REMARK    3  A    between atoms: C_3  and  C_6
REMARK    4  A    between atoms: C_8  and  C_9
REMARK    5  A    between atoms: C_15  and  C_16
REMARK    6  A    between atoms: C_21  and  N_22
REMARK                            x       y       z     vdW  Elec       q    Type
REMARK                         _______ _______ _______ _____ _____    ______ ____
ROOT
ATOM      1  C   UNL     1       5.801   4.724  15.410  0.00  0.00    +0.000 A 
ATOM      2  C   UNL     1       6.725   5.701  15.985  0.00  0.00    +0.000 A 
ATOM      3  C   UNL     1       6.410   6.502  17.035  0.00  0.00    +0.000 A 
ATOM      4  C   UNL     1       5.106   6.357  17.606  0.00  0.00    +0.000 A 
ATOM      5  N   UNL     1       4.560   6.964  18.635  0.00  0.00    +0.000 NA
ATOM      6  C   UNL     1       3.273   6.461  18.753  0.00  0.00    +0.000 A 
ATOM      7  C   UNL     1       3.075   5.509  17.778  0.00  0.00    +0.000 A 
ATOM      8 CL   UNL     1       1.730   4.533  17.397  0.00  0.00    +0.000 Cl
ATOM      9  N   UNL     1       4.233   5.426  17.045  0.00  0.00    +0.000 N 
ATOM     10  C   UNL     1       4.577   4.619  15.962  0.00  0.00    +0.000 A 
ENDROOT
BRANCH   6  11
ATOM     11  C   UNL     1       2.327   6.845  19.801  0.00  0.00    +0.000 C 
ATOM     12  O   UNL     1       2.079   6.068  20.726  0.00  0.00    +0.000 OA
ATOM     13  N   UNL     1       1.716   8.102  19.737  0.00  0.00    +0.000 N 
ATOM     14  C   UNL     1       0.971   8.567  20.902  0.00  0.00    +0.000 C 
ATOM     15  C   UNL     1      -0.389   9.134  20.505  0.00  0.00    +0.000 C 
ATOM     16  C   UNL     1      -0.243  10.236  19.438  0.00  0.00    +0.000 C 
ATOM     17  C   UNL     1       0.492   9.624  18.238  0.00  0.00    +0.000 C 
ATOM     18  C   UNL     1       1.849   9.055  18.629  0.00  0.00    +0.000 C 
BRANCH  16  19
ATOM     19  N   UNL     1       0.386  11.454  19.981  0.00  0.00    +0.000 N 
ATOM     20  C   UNL     1       1.653  11.920  19.495  0.00  0.00    +0.000 C 
ATOM     21  C   UNL     1       1.933  13.102  20.380  0.00  0.00    +0.000 C 
ATOM     22  O   UNL     1       1.195  12.841  21.570  0.00  0.00    +0.000 OA
ATOM     23  C   UNL     1       0.232  11.903  21.281  0.00  0.00    +0.000 C 
ATOM     24  O   UNL     1      -0.598  11.554  22.098  0.00  0.00    +0.000 OA
ENDBRANCH  16  19
ENDBRANCH   6  11
BRANCH   3  25
ATOM     25  C   UNL     1       7.438   7.475  17.545  0.00  0.00    +0.000 C 
ATOM     26  F   UNL     1       8.057   7.093  18.688  0.00  0.00    +0.000 F 
ATOM     27  F   UNL     1       8.416   7.685  16.623  0.00  0.00    +0.000 F 
ATOM     28  F   UNL     1       6.882   8.693  17.792  0.00  0.00    +0.000 F 
ENDBRANCH   3  25
BRANCH   1  29
ATOM     29  C   UNL     1       6.229   3.886  14.221  0.00  0.00    +0.000 C 
ATOM     30  H   UNL     1       6.605   2.921  14.590  0.00  0.00    +0.000 HD
ATOM     31  C   UNL     1       7.375   4.533  13.438  0.00  0.00    +0.000 C 
BRANCH  29  33
ATOM     32  H   UNL     1       4.167   4.163  13.590  0.00  0.00    +0.000 HD
ATOM     33  C   UNL     1       5.044   3.575  13.302  0.00  0.00    +0.000 C 
ENDBRANCH  29  33
ENDBRANCH   1  29
TORSDOF 5
ENDMDL
MODEL 3
REMARK VINA RESULT:      -7.1      3.918      8.441
REMARK  Name = 
REMARK  6 active torsions:
REMARK  status: ('A' for Active; 'I' for Inactive)
REMARK    1  A    between atoms: C_2  and  C_3
REMARK    2  A    between atoms: C_3  and  C_5
REMARK    3  A    between atoms: C_3  and  C_6
REMARK    4  A    between atoms: C_8  and  C_9
REMARK    5  A    between atoms: C_15  and  C_16
REMARK    6  A    between atoms: C_21  and  N_22
REMARK                            x       y       z     vdW  Elec       q    Type
REMARK                         _______ _______ _______ _____ _____    ______ ____
ROOT
ATOM      1  C   UNL     1       0.862  11.648  19.813  0.00  0.00    +0.000 A 
ATOM      2  C   UNL     1       0.392  11.243  21.138  0.00  0.00    +0.000 A 
ATOM      3  C   UNL     1       0.440   9.965  21.591  0.00  0.00    +0.000 A 
ATOM      4  C   UNL     1       0.997   8.977  20.718  0.00  0.00    +0.000 A 
ATOM      5  N   UNL     1       1.200   7.694  20.911  0.00  0.00    +0.000 NA
ATOM      6  C   UNL     1       1.755   7.201  19.740  0.00  0.00    +0.000 A 
ATOM      7  C   UNL     1       1.907   8.239  18.847  0.00  0.00    +0.000 A 
ATOM      8 CL   UNL     1       2.525   8.292  17.259  0.00  0.00    +0.000 Cl
ATOM      9  N   UNL     1       1.437   9.376  19.456  0.00  0.00    +0.000 N 
ATOM     10  C   UNL     1       1.371  10.694  19.011  0.00  0.00    +0.000 A 
ENDROOT
BRANCH   6  11
ATOM     11  C   UNL     1       2.171   5.812  19.541  0.00  0.00    +0.000 C 
ATOM     12  O   UNL     1       1.479   4.890  19.981  0.00  0.00    +0.000 OA
ATOM     13  N   UNL     1       3.357   5.550  18.847  0.00  0.00    +0.000 N 
ATOM     14  C   UNL     1       3.633   4.175  18.447  0.00  0.00    +0.000 C 
ATOM     15  C   UNL     1       5.066   3.772  18.785  0.00  0.00    +0.000 C 
ATOM     16  C   UNL     1       6.079   4.762  18.180  0.00  0.00    +0.000 C 
ATOM     17  C   UNL     1       5.739   6.160  18.715  0.00  0.00    +0.000 C 
ATOM     18  C   UNL     1       4.310   6.565  18.382  0.00  0.00    +0.000 C 
BRANCH  16  19
ATOM     19  N   UNL     1       6.136   4.670  16.710  0.00  0.00    +0.000 N 
ATOM     20  C   UNL     1       5.838   3.442  16.027  0.00  0.00    +0.000 C 
ATOM     21  C   UNL     1       6.110   3.789  14.590  0.00  0.00    +0.000 C 
ATOM     22  O   UNL     1       7.046   4.861  14.651  0.00  0.00    +0.000 OA
ATOM     23  C   UNL     1       6.986   5.412  15.909  0.00  0.00    +0.000 C 
ATOM     24  O   UNL     1       7.622   6.402  16.213  0.00  0.00    +0.000 OA
ENDBRANCH  16  19
ENDBRANCH   6  11
BRANCH   3  25
ATOM     25  C   UNL     1      -0.074   9.659  22.972  0.00  0.00    +0.000 C 
ATOM     26  F   UNL     1       0.886   9.342  23.873  0.00  0.00    +0.000 F 
ATOM     27  F   UNL     1      -0.758  10.717  23.486  0.00  0.00    +0.000 F 
ATOM     28  F   UNL     1      -0.948   8.616  22.952  0.00  0.00    +0.000 F 
ENDBRANCH   3  25
BRANCH   1  29
ATOM     29  C   UNL     1       0.749  13.097  19.380  0.00  0.00    +0.000 C 
ATOM     30  H   UNL     1       0.608  13.719  20.275  0.00  0.00    +0.000 HD
ATOM     31  C   UNL     1      -0.466  13.341  18.480  0.00  0.00    +0.000 C 
BRANCH  29  33
ATOM     32  H   UNL     1       1.889  14.564  18.251  0.00  0.00    +0.000 HD
ATOM     33  C   UNL     1       2.036  13.579  18.706  0.00  0.00    +0.000 C 
ENDBRANCH  29  33
ENDBRANCH   1  29
TORSDOF 5
ENDMDL
MODEL 4
REMARK VINA RESULT:      -7.0      5.413      8.183
REMARK  Name = 
REMARK  6 active torsions:
REMARK  status: ('A' for Active; 'I' for Inactive)
REMARK    1  A    between atoms: C_2  and  C_3
REMARK    2  A    between atoms: C_3  and  C_5
REMARK    3  A    between atoms: C_3  and  C_6
REMARK    4  A    between atoms: C_8  and  C_9
REMARK    5  A    between atoms: C_15  and  C_16
REMARK    6  A    between atoms: C_21  and  N_22
REMARK                            x       y       z     vdW  Elec       q    Type
REMARK                         _______ _______ _______ _____ _____    ______ ____
ROOT
ATOM      1  C   UNL     1      -2.026  10.713  17.764  0.00  0.00    +0.000 A 
ATOM      2  C   UNL     1      -0.854   9.838  17.744  0.00  0.00    +0.000 A 
ATOM      3  C   UNL     1       0.317  10.139  18.362  0.00  0.00    +0.000 A 
ATOM      4  C   UNL     1       0.384  11.377  19.078  0.00  0.00    +0.000 A 
ATOM      5  N   UNL     1       1.361  11.893  19.788  0.00  0.00    +0.000 NA
ATOM      6  C   UNL     1       0.906  13.116  20.256  0.00  0.00    +0.000 A 
ATOM      7  C   UNL     1      -0.390  13.303  19.828  0.00  0.00    +0.000 A 
ATOM      8 CL   UNL     1      -1.493  14.581  20.067  0.00  0.00    +0.000 Cl
ATOM      9  N   UNL     1      -0.739  12.204  19.084  0.00  0.00    +0.000 N 
ATOM     10  C   UNL     1      -1.928  11.875  18.437  0.00  0.00    +0.000 A 
ENDROOT
BRANCH   6  11
ATOM     11  C   UNL     1       1.675  14.008  21.125  0.00  0.00    +0.000 C 
ATOM     12  O   UNL     1       1.238  14.317  22.236  0.00  0.00    +0.000 OA
ATOM     13  N   UNL     1       2.907  14.497  20.677  0.00  0.00    +0.000 N 
ATOM     14  C   UNL     1       3.768  15.179  21.636  0.00  0.00    +0.000 C 
ATOM     15  C   UNL     1       4.317  16.483  21.065  0.00  0.00    +0.000 C 
ATOM     16  C   UNL     1       5.029  16.245  19.720  0.00  0.00    +0.000 C 
ATOM     17  C   UNL     1       4.019  15.587  18.770  0.00  0.00    +0.000 C 
ATOM     18  C   UNL     1       3.466  14.287  19.337  0.00  0.00    +0.000 C 
BRANCH  16  19
ATOM     19  N   UNL     1       6.288  15.497  19.883  0.00  0.00    +0.000 N 
ATOM     20  C   UNL     1       7.120  15.679  21.039  0.00  0.00    +0.000 C 
ATOM     21  C   UNL     1       8.305  14.806  20.734  0.00  0.00    +0.000 C 
ATOM     22  O   UNL     1       8.332  14.723  19.312  0.00  0.00    +0.000 OA
ATOM     23  C   UNL     1       7.090  15.073  18.838  0.00  0.00    +0.000 C 
ATOM     24  O   UNL     1       6.806  15.009  17.658  0.00  0.00    +0.000 OA
ENDBRANCH  16  19
ENDBRANCH   6  11
BRANCH   3  25
ATOM     25  C   UNL     1       1.461   9.166  18.275  0.00  0.00    +0.000 C 
ATOM     26  F   UNL     1       1.252   8.124  17.435  0.00  0.00    +0.000 F 
ATOM     27  F   UNL     1       2.599   9.783  17.855  0.00  0.00    +0.000 F 
ATOM     28  F   UNL     1       1.747   8.633  19.494  0.00  0.00    +0.000 F 
ENDBRANCH   3  25
BRANCH   1  29
ATOM     29  C   UNL     1      -3.287  10.305  17.027  0.00  0.00    +0.000 C 
ATOM     30  H   UNL     1      -3.691   9.399  17.499  0.00  0.00    +0.000 HD
ATOM     31  C   UNL     1      -3.013   9.952  15.562  0.00  0.00    +0.000 C 
BRANCH  29  33
ATOM     32  H   UNL     1      -5.013  11.377  16.251  0.00  0.00    +0.000 HD
ATOM     33  C   UNL     1      -4.370  11.382  17.138  0.00  0.00    +0.000 C 
ENDBRANCH  29  33
ENDBRANCH   1  29
TORSDOF 5
ENDMDL
MODEL 5
REMARK VINA RESULT:      -6.9      7.501      9.794
REMARK  Name = 
REMARK  6 active torsions:
REMARK  status: ('A' for Active; 'I' for Inactive)
REMARK    1  A    between atoms: C_2  and  C_3
REMARK    2  A    between atoms: C_3  and  C_5
REMARK    3  A    between atoms: C_3  and  C_6
REMARK    4  A    between atoms: C_8  and  C_9
REMARK    5  A    between atoms: C_15  and  C_16
REMARK    6  A    between atoms: C_21  and  N_22
REMARK                            x       y       z     vdW  Elec       q    Type
REMARK                         _______ _______ _______ _____ _____    ______ ____
ROOT
ATOM      1  C   UNL     1      -5.736  11.979  18.466  0.00  0.00    +0.000 A 
ATOM      2  C   UNL     1      -5.128  11.358  17.288  0.00  0.00    +0.000 A 
ATOM      3  C   UNL     1      -3.796  11.131  17.165  0.00  0.00    +0.000 A 
ATOM      4  C   UNL     1      -2.959  11.512  18.261  0.00  0.00    +0.000 A 
ATOM      5  N   UNL     1      -1.663  11.375  18.425  0.00  0.00    +0.000 NA
ATOM      6  C   UNL     1      -1.360  11.924  19.662  0.00  0.00    +0.000 A 
ATOM      7  C   UNL     1      -2.524  12.368  20.249  0.00  0.00    +0.000 A 
ATOM      8 CL   UNL     1      -2.826  13.122  21.749  0.00  0.00    +0.000 Cl
ATOM      9  N   UNL     1      -3.550  12.107  19.375  0.00  0.00    +0.000 N 
ATOM     10  C   UNL     1      -4.920  12.336  19.476  0.00  0.00    +0.000 A 
ENDROOT
BRANCH   6  11
ATOM     11  C   UNL     1      -0.022  11.945  20.254  0.00  0.00    +0.000 C 
ATOM     12  O   UNL     1       0.420  10.943  20.821  0.00  0.00    +0.000 OA
ATOM     13  N   UNL     1       0.743  13.113  20.162  0.00  0.00    +0.000 N 
ATOM     14  C   UNL     1       2.152  13.046  20.535  0.00  0.00    +0.000 C 
ATOM     15  C   UNL     1       2.543  14.204  21.447  0.00  0.00    +0.000 C 
ATOM     16  C   UNL     1       2.180  15.560  20.812  0.00  0.00    +0.000 C 
ATOM     17  C   UNL     1       0.673  15.547  20.522  0.00  0.00    +0.000 C 
ATOM     18  C   UNL     1       0.277  14.392  19.614  0.00  0.00    +0.000 C 
BRANCH  16  19
ATOM     19  N   UNL     1       3.023  15.869  19.643  0.00  0.00    +0.000 N 
ATOM     20  C   UNL     1       4.340  15.314  19.505  0.00  0.00    +0.000 C 
ATOM     21  C   UNL     1       4.841  15.963  18.245  0.00  0.00    +0.000 C 
ATOM     22  O   UNL     1       4.099  17.175  18.146  0.00  0.00    +0.000 OA
ATOM     23  C   UNL     1       2.981  17.059  18.938  0.00  0.00    +0.000 C 
ATOM     24  O   UNL     1       2.123  17.920  18.977  0.00  0.00    +0.000 OA
ENDBRANCH  16  19
ENDBRANCH   6  11
BRANCH   3  25
ATOM     25  C   UNL     1      -3.277  10.489  15.907  0.00  0.00    +0.000 C 
ATOM     26  F   UNL     1      -2.619   9.321  16.102  0.00  0.00    +0.000 F 
ATOM     27  F   UNL     1      -4.289  10.225  15.037  0.00  0.00    +0.000 F 
ATOM     28  F   UNL     1      -2.417  11.315  15.251  0.00  0.00    +0.000 F 
ENDBRANCH   3  25
BRANCH   1  29
ATOM     29  C   UNL     1      -7.233  12.215  18.508  0.00  0.00    +0.000 C 
ATOM     30  H   UNL     1      -7.736  11.361  18.033  0.00  0.00    +0.000 HD
ATOM     31  C   UNL     1      -7.647  13.461  17.721  0.00  0.00    +0.000 C 
BRANCH  29  33
ATOM     32  H   UNL     1      -7.357  11.444  20.538  0.00  0.00    +0.000 HD
ATOM     33  C   UNL     1      -7.746  12.282  19.950  0.00  0.00    +0.000 C 
ENDBRANCH  29  33
ENDBRANCH   1  29
TORSDOF 5
ENDMDL
MODEL 6
REMARK VINA RESULT:      -6.8      0.905      1.137
REMARK  Name = 
REMARK  6 active torsions:
REMARK  status: ('A' for Active; 'I' for Inactive)
REMARK    1  A    between atoms: C_2  and  C_3
REMARK    2  A    between atoms: C_3  and  C_5
REMARK    3  A    between atoms: C_3  and  C_6
REMARK    4  A    between atoms: C_8  and  C_9
REMARK    5  A    between atoms: C_15  and  C_16
REMARK    6  A    between atoms: C_21  and  N_22
REMARK                            x       y       z     vdW  Elec       q    Type
REMARK                         _______ _______ _______ _____ _____    ______ ____
ROOT
ATOM      1  C   UNL     1       5.794   4.366  15.805  0.00  0.00    +0.000 A 
ATOM      2  C   UNL     1       6.829   4.746  16.767  0.00  0.00    +0.000 A 
ATOM      3  C   UNL     1       6.562   5.325  17.965  0.00  0.00    +0.000 A 
ATOM      4  C   UNL     1       5.189   5.556  18.294  0.00  0.00    +0.000 A 
ATOM      5  N   UNL     1       4.651   6.056  19.382  0.00  0.00    +0.000 NA
ATOM      6  C   UNL     1       3.280   6.070  19.175  0.00  0.00    +0.000 A 
ATOM      7  C   UNL     1       3.011   5.533  17.936  0.00  0.00    +0.000 A 
ATOM      8 CL   UNL     1       1.545   5.268  17.105  0.00  0.00    +0.000 Cl
ATOM      9  N   UNL     1       4.213   5.194  17.366  0.00  0.00    +0.000 N 
ATOM     10  C   UNL     1       4.512   4.606  16.139  0.00  0.00    +0.000 A 
ENDROOT
BRANCH   6  11
ATOM     11  C   UNL     1       2.298   6.520  20.163  0.00  0.00    +0.000 C 
ATOM     12  O   UNL     1       1.957   5.770  21.081  0.00  0.00    +0.000 OA
ATOM     13  N   UNL     1       1.760   7.806  20.049  0.00  0.00    +0.000 N 
ATOM     14  C   UNL     1       0.976   8.327  21.163  0.00  0.00    +0.000 C 
ATOM     15  C   UNL     1      -0.327   8.959  20.682  0.00  0.00    +0.000 C 
ATOM     16  C   UNL     1      -0.061  10.036  19.613  0.00  0.00    +0.000 C 
ATOM     17  C   UNL     1       0.707   9.368  18.464  0.00  0.00    +0.000 C 
ATOM     18  C   UNL     1       2.006   8.734  18.939  0.00  0.00    +0.000 C 
BRANCH  16  19
ATOM     19  N   UNL     1       0.600  11.227  20.176  0.00  0.00    +0.000 N 
ATOM     20  C   UNL     1       0.071  11.899  21.329  0.00  0.00    +0.000 C 
ATOM     21  C   UNL     1       0.994  13.076  21.478  0.00  0.00    +0.000 C 
ATOM     22  O   UNL     1       1.510  13.295  20.169  0.00  0.00    +0.000 OA
ATOM     23  C   UNL     1       1.323  12.146  19.437  0.00  0.00    +0.000 C 
ATOM     24  O   UNL     1       1.747  12.024  18.303  0.00  0.00    +0.000 OA
ENDBRANCH  16  19
ENDBRANCH   6  11
BRANCH   3  25
ATOM     25  C   UNL     1       7.706   5.677  18.878  0.00  0.00    +0.000 C 
ATOM     26  F   UNL     1       7.382   5.732  20.192  0.00  0.00    +0.000 F 
ATOM     27  F   UNL     1       8.720   4.777  18.764  0.00  0.00    +0.000 F 
ATOM     28  F   UNL     1       8.236   6.889  18.557  0.00  0.00    +0.000 F 
ENDBRANCH   3  25
BRANCH   1  29
ATOM     29  C   UNL     1       6.186   3.743  14.479  0.00  0.00    +0.000 C 
ATOM     30  H   UNL     1       6.499   2.706  14.659  0.00  0.00    +0.000 HD
ATOM     31  C   UNL     1       7.377   4.456  13.833  0.00  0.00    +0.000 C 
BRANCH  29  33
ATOM     32  H   UNL     1       4.992   4.554  12.852  0.00  0.00    +0.000 HD
ATOM     33  C   UNL     1       4.995   3.685  13.518  0.00  0.00    +0.000 C 
ENDBRANCH  29  33
ENDBRANCH   1  29
TORSDOF 5
ENDMDL
MODEL 7
REMARK VINA RESULT:      -6.8      6.664      8.658
REMARK  Name = 
REMARK  6 active torsions:
REMARK  status: ('A' for Active; 'I' for Inactive)
REMARK    1  A    between atoms: C_2  and  C_3
REMARK    2  A    between atoms: C_3  and  C_5
REMARK    3  A    between atoms: C_3  and  C_6
REMARK    4  A    between atoms: C_8  and  C_9
REMARK    5  A    between atoms: C_15  and  C_16
REMARK    6  A    between atoms: C_21  and  N_22
REMARK                            x       y       z     vdW  Elec       q    Type
REMARK                         _______ _______ _______ _____ _____    ______ ____
ROOT
ATOM      1  C   UNL     1      -1.806  10.880  18.609  0.00  0.00    +0.000 A 
ATOM      2  C   UNL     1      -1.270   9.946  19.599  0.00  0.00    +0.000 A 
ATOM      3  C   UNL     1      -0.296  10.272  20.486  0.00  0.00    +0.000 A 
ATOM      4  C   UNL     1       0.212  11.609  20.444  0.00  0.00    +0.000 A 
ATOM      5  N   UNL     1       1.112  12.197  21.199  0.00  0.00    +0.000 NA
ATOM      6  C   UNL     1       1.239  13.494  20.724  0.00  0.00    +0.000 A 
ATOM      7  C   UNL     1       0.362  13.674  19.678  0.00  0.00    +0.000 A 
ATOM      8 CL   UNL     1       0.034  15.022  18.687  0.00  0.00    +0.000 Cl
ATOM      9  N   UNL     1      -0.304  12.487  19.492  0.00  0.00    +0.000 N 
ATOM     10  C   UNL     1      -1.300  12.127  18.588  0.00  0.00    +0.000 A 
ENDROOT
BRANCH   6  11
ATOM     11  C   UNL     1       2.118  14.507  21.310  0.00  0.00    +0.000 C 
ATOM     12  O   UNL     1       1.778  15.103  22.335  0.00  0.00    +0.000 OA
ATOM     13  N   UNL     1       3.342  14.783  20.692  0.00  0.00    +0.000 N 
ATOM     14  C   UNL     1       4.307  15.609  21.411  0.00  0.00    +0.000 C 
ATOM     15  C   UNL     1       4.890  16.696  20.513  0.00  0.00    +0.000 C 
ATOM     16  C   UNL     1       5.492  16.094  19.229  0.00  0.00    +0.000 C 
ATOM     17  C   UNL     1       4.381  15.305  18.522  0.00  0.00    +0.000 C 
ATOM     18  C   UNL     1       3.794  14.221  19.414  0.00  0.00    +0.000 C 
BRANCH  16  19
ATOM     19  N   UNL     1       6.713  15.314  19.502  0.00  0.00    +0.000 N 
ATOM     20  C   UNL     1       7.646  15.719  20.514  0.00  0.00    +0.000 C 
ATOM     21  C   UNL     1       8.748  14.707  20.372  0.00  0.00    +0.000 C 
ATOM     22  O   UNL     1       8.654  14.261  19.023  0.00  0.00    +0.000 OA
ATOM     23  C   UNL     1       7.400  14.576  18.554  0.00  0.00    +0.000 C 
ATOM     24  O   UNL     1       7.016  14.235  17.451  0.00  0.00    +0.000 OA
ENDBRANCH  16  19
ENDBRANCH   6  11
BRANCH   3  25
ATOM     25  C   UNL     1       0.184   9.230  21.461  0.00  0.00    +0.000 C 
ATOM     26  F   UNL     1       0.308   9.668  22.737  0.00  0.00    +0.000 F 
ATOM     27  F   UNL     1      -0.661   8.164  21.495  0.00  0.00    +0.000 F 
ATOM     28  F   UNL     1       1.400   8.739  21.098  0.00  0.00    +0.000 F 
ENDBRANCH   3  25
BRANCH   1  29
ATOM     29  C   UNL     1      -2.880  10.422  17.641  0.00  0.00    +0.000 C 
ATOM     30  H   UNL     1      -3.372   9.533  18.060  0.00  0.00    +0.000 HD
ATOM     31  C   UNL     1      -2.300  10.005  16.286  0.00  0.00    +0.000 C 
BRANCH  29  33
ATOM     32  H   UNL     1      -4.511  11.337  16.531  0.00  0.00    +0.000 HD
ATOM     33  C   UNL     1      -3.965  11.489  17.468  0.00  0.00    +0.000 C 
ENDBRANCH  29  33
ENDBRANCH   1  29
TORSDOF 5
ENDMDL
MODEL 8
REMARK VINA RESULT:      -6.7      5.264      8.239
REMARK  Name = 
REMARK  6 active torsions:
REMARK  status: ('A' for Active; 'I' for Inactive)
REMARK    1  A    between atoms: C_2  and  C_3
REMARK    2  A    between atoms: C_3  and  C_5
REMARK    3  A    between atoms: C_3  and  C_6
REMARK    4  A    between atoms: C_8  and  C_9
REMARK    5  A    between atoms: C_15  and  C_16
REMARK    6  A    between atoms: C_21  and  N_22
REMARK                            x       y       z     vdW  Elec       q    Type
REMARK                         _______ _______ _______ _____ _____    ______ ____
ROOT
ATOM      1  C   UNL     1      -1.869  10.678  17.787  0.00  0.00    +0.000 A 
ATOM      2  C   UNL     1      -0.758   9.726  17.786  0.00  0.00    +0.000 A 
ATOM      3  C   UNL     1       0.461   9.997  18.317  0.00  0.00    +0.000 A 
ATOM      4  C   UNL     1       0.646  11.282  18.918  0.00  0.00    +0.000 A 
ATOM      5  N   UNL     1       1.692  11.788  19.532  0.00  0.00    +0.000 NA
ATOM      6  C   UNL     1       1.343  13.074  19.913  0.00  0.00    +0.000 A 
ATOM      7  C   UNL     1       0.041  13.314  19.535  0.00  0.00    +0.000 A 
ATOM      8 CL   UNL     1      -0.963  14.680  19.715  0.00  0.00    +0.000 Cl
ATOM      9  N   UNL     1      -0.419  12.182  18.908  0.00  0.00    +0.000 N 
ATOM     10  C   UNL     1      -1.660  11.883  18.350  0.00  0.00    +0.000 A 
ENDROOT
BRANCH   6  11
ATOM     11  C   UNL     1       2.214  13.981  20.663  0.00  0.00    +0.000 C 
ATOM     12  O   UNL     1       2.052  14.132  21.876  0.00  0.00    +0.000 OA
ATOM     13  N   UNL     1       3.228  14.664  19.983  0.00  0.00    +0.000 N 
ATOM     14  C   UNL     1       4.233  15.368  20.772  0.00  0.00    +0.000 C 
ATOM     15  C   UNL     1       4.474  16.778  20.239  0.00  0.00    +0.000 C 
ATOM     16  C   UNL     1       4.831  16.754  18.741  0.00  0.00    +0.000 C 
ATOM     17  C   UNL     1       3.683  16.053  18.002  0.00  0.00    +0.000 C 
ATOM     18  C   UNL     1       3.437  14.648  18.531  0.00  0.00    +0.000 C 
BRANCH  16  19
ATOM     19  N   UNL     1       6.161  16.166  18.497  0.00  0.00    +0.000 N 
ATOM     20  C   UNL     1       6.309  14.793  18.104  0.00  0.00    +0.000 C 
ATOM     21  C   UNL     1       7.802  14.620  18.064  0.00  0.00    +0.000 C 
ATOM     22  O   UNL     1       8.301  15.610  18.959  0.00  0.00    +0.000 OA
ATOM     23  C   UNL     1       7.321  16.557  19.141  0.00  0.00    +0.000 C 
ATOM     24  O   UNL     1       7.509  17.564  19.796  0.00  0.00    +0.000 OA
ENDBRANCH  16  19
ENDBRANCH   6  11
BRANCH   3  25
ATOM     25  C   UNL     1       1.534   8.944  18.260  0.00  0.00    +0.000 C 
ATOM     26  F   UNL     1       1.251   7.895  17.450  0.00  0.00    +0.000 F 
ATOM     27  F   UNL     1       2.712   9.466  17.823  0.00  0.00    +0.000 F 
ATOM     28  F   UNL     1       1.783   8.426  19.493  0.00  0.00    +0.000 F 
ENDBRANCH   3  25
BRANCH   1  29
ATOM     29  C   UNL     1      -3.192  10.297  17.150  0.00  0.00    +0.000 C 
ATOM     30  H   UNL     1      -3.598   9.426  17.682  0.00  0.00    +0.000 HD
ATOM     31  C   UNL     1      -3.033   9.883  15.685  0.00  0.00    +0.000 C 
BRANCH  29  33
ATOM     32  H   UNL     1      -4.778  11.320  18.232  0.00  0.00    +0.000 HD
ATOM     33  C   UNL     1      -4.222  11.421  17.294  0.00  0.00    +0.000 C 
ENDBRANCH  29  33
ENDBRANCH   1  29
TORSDOF 5
ENDMDL
MODEL 9
REMARK VINA RESULT:      -6.7      6.685      8.850
REMARK  Name = 
REMARK  6 active torsions:
REMARK  status: ('A' for Active; 'I' for Inactive)
REMARK    1  A    between atoms: C_2  and  C_3
REMARK    2  A    between atoms: C_3  and  C_5
REMARK    3  A    between atoms: C_3  and  C_6
REMARK    4  A    between atoms: C_8  and  C_9
REMARK    5  A    between atoms: C_15  and  C_16
REMARK    6  A    between atoms: C_21  and  N_22
REMARK                            x       y       z     vdW  Elec       q    Type
REMARK                         _______ _______ _______ _____ _____    ______ ____
ROOT
ATOM      1  C   UNL     1      -1.571  11.422  18.480  0.00  0.00    +0.000 A 
ATOM      2  C   UNL     1      -1.122  10.390  19.415  0.00  0.00    +0.000 A 
ATOM      3  C   UNL     1      -0.136  10.583  20.327  0.00  0.00    +0.000 A 
ATOM      4  C   UNL     1       0.475  11.876  20.372  0.00  0.00    +0.000 A 
ATOM      5  N   UNL     1       1.409  12.345  21.168  0.00  0.00    +0.000 NA
ATOM      6  C   UNL     1       1.643  13.653  20.775  0.00  0.00    +0.000 A 
ATOM      7  C   UNL     1       0.796  13.965  19.735  0.00  0.00    +0.000 A 
ATOM      8 CL   UNL     1       0.587  15.393  18.827  0.00  0.00    +0.000 Cl
ATOM      9  N   UNL     1       0.042  12.849  19.472  0.00  0.00    +0.000 N 
ATOM     10  C   UNL     1      -0.968  12.624  18.539  0.00  0.00    +0.000 A 
ENDROOT
BRANCH   6  11
ATOM     11  C   UNL     1       2.592  14.557  21.429  0.00  0.00    +0.000 C 
ATOM     12  O   UNL     1       2.334  15.025  22.540  0.00  0.00    +0.000 OA
ATOM     13  N   UNL     1       3.788  14.874  20.776  0.00  0.00    +0.000 N 
ATOM     14  C   UNL     1       4.822  15.571  21.532  0.00  0.00    +0.000 C 
ATOM     15  C   UNL     1       5.393  16.747  20.745  0.00  0.00    +0.000 C 
ATOM     16  C   UNL     1       5.897  16.297  19.361  0.00  0.00    +0.000 C 
ATOM     17  C   UNL     1       4.718  15.640  18.629  0.00  0.00    +0.000 C 
ATOM     18  C   UNL     1       4.144  14.467  19.412  0.00  0.00    +0.000 C 
BRANCH  16  19
ATOM     19  N   UNL     1       7.102  15.454  19.456  0.00  0.00    +0.000 N 
ATOM     20  C   UNL     1       8.195  15.809  20.315  0.00  0.00    +0.000 C 
ATOM     21  C   UNL     1       9.209  14.739  20.020  0.00  0.00    +0.000 C 
ATOM     22  O   UNL     1       8.891  14.297  18.704  0.00  0.00    +0.000 OA
ATOM     23  C   UNL     1       7.600  14.679  18.423  0.00  0.00    +0.000 C 
ATOM     24  O   UNL     1       7.040  14.358  17.393  0.00  0.00    +0.000 OA
ENDBRANCH  16  19
ENDBRANCH   6  11
BRANCH   3  25
ATOM     25  C   UNL     1       0.248   9.450  21.240  0.00  0.00    +0.000 C 
ATOM     26  F   UNL     1       1.449   8.887  20.964  0.00  0.00    +0.000 F 
ATOM     27  F   UNL     1       0.298   9.859  22.536  0.00  0.00    +0.000 F 
ATOM     28  F   UNL     1      -0.671   8.447  21.193  0.00  0.00    +0.000 F 
ENDBRANCH   3  25
BRANCH   1  29
ATOM     29  C   UNL     1      -2.665  11.110  17.477  0.00  0.00    +0.000 C 
ATOM     30  H   UNL     1      -2.495  11.714  16.575  0.00  0.00    +0.000 HD
ATOM     31  C   UNL     1      -4.055  11.483  18.001  0.00  0.00    +0.000 C 
BRANCH  29  33
ATOM     32  H   UNL     1      -1.935   9.511  16.197  0.00  0.00    +0.000 HD
ATOM     33  C   UNL     1      -2.619   9.642  17.042  0.00  0.00    +0.000 C 
ENDBRANCH  29  33
ENDBRANCH   1  29
TORSDOF 5
ENDMDL
