MODEL 1
REMARK VINA RESULT:      -8.3      0.000      0.000
REMARK  Name = 
REMARK  6 active torsions:
REMARK  status: ('A' for Active; 'I' for Inactive)
REMARK    1  A    between atoms: C_2  and  C_15
REMARK    2  A    between atoms: N_3  and  N_4
REMARK    3  A    between atoms: C_5  and  C_6
REMARK    4  A    between atoms: C_17  and  C_18
REMARK    5  A    between atoms: N_26  and  C_27
REMARK    6  A    between atoms: C_27  and  C_28
REMARK                            x       y       z     vdW  Elec       q    Type
REMARK                         _______ _______ _______ _____ _____    ______ ____
ROOT
ATOM      1  C   UNL     1       1.534   8.317  20.537  0.00  0.00    +0.000 A 
ATOM      2  C   UNL     1       1.911   6.990  20.665  0.00  0.00    +0.000 A 
ATOM      3  C   UNL     1       2.291   6.539  19.380  0.00  0.00    +0.000 A 
ATOM      4  N   UNL     1       2.163   7.526  18.487  0.00  0.00    +0.000 NA
ATOM      5  N   UNL     1       1.746   8.603  19.200  0.00  0.00    +0.000 N 
ENDROOT
BRANCH   3   6
ATOM      6  C   UNL     1       2.736   5.196  19.012  0.00  0.00    +0.000 A 
ATOM      7  C   UNL     1       1.872   4.324  18.337  0.00  0.00    +0.000 A 
ATOM      8  C   UNL     1       2.256   3.007  18.072  0.00  0.00    +0.000 A 
ATOM      9  C   UNL     1       3.514   2.559  18.470  0.00  0.00    +0.000 A 
ATOM     10 CL   UNL     1       3.969   0.925  18.186  0.00  0.00    +0.000 Cl
ATOM     11  C   UNL     1       4.398   3.422  19.110  0.00  0.00    +0.000 A 
ATOM     12  C   UNL     1       4.014   4.738  19.376  0.00  0.00    +0.000 A 
ENDBRANCH   3   6
BRANCH   1  14
ATOM     13  O   UNL     1       1.821   9.649  22.458  0.00  0.00    +0.000 OA
ATOM     14  C   UNL     1       1.081   9.233  21.570  0.00  0.00    +0.000 C 
ATOM     15  N   UNL     1      -0.268   9.582  21.464  0.00  0.00    +0.000 N 
ATOM     16  H   UNL     1      -0.797   9.305  20.647  0.00  0.00    +0.000 HD
BRANCH  15  17
ATOM     17  N   UNL     1      -0.876  10.363  22.410  0.00  0.00    +0.000 NA
ATOM     18  C   UNL     1      -1.190  11.567  22.034  0.00  0.00    +0.000 C 
BRANCH  18  19
ATOM     19  C   UNL     1      -1.848  12.531  22.949  0.00  0.00    +0.000 A 
ATOM     20  C   UNL     1      -3.138  12.273  23.455  0.00  0.00    +0.000 A 
ATOM     21  C   UNL     1      -3.754  13.179  24.328  0.00  0.00    +0.000 A 
ATOM     22  C   UNL     1      -3.065  14.328  24.651  0.00  0.00    +0.000 A 
ATOM     23  C   UNL     1      -1.810  14.583  24.151  0.00  0.00    +0.000 A 
ATOM     24  C   UNL     1      -1.166  13.702  23.303  0.00  0.00    +0.000 A 
ATOM     25  O   UNL     1      -1.312  15.772  24.588  0.00  0.00    +0.000 OA
ATOM     26  C   UNL     1      -2.441  16.280  25.332  0.00  0.00    +0.000 C 
ATOM     27  O   UNL     1      -3.511  15.322  25.465  0.00  0.00    +0.000 OA
ENDBRANCH  18  19
ENDBRANCH  15  17
ENDBRANCH   1  14
BRANCH   5  28
ATOM     28  C   UNL     1       1.743   9.899  18.522  0.00  0.00    +0.000 C 
BRANCH  28  29
ATOM     29  C   UNL     1       0.372  10.515  18.356  0.00  0.00    +0.000 A 
ATOM     30  C   UNL     1       0.163  11.870  18.651  0.00  0.00    +0.000 A 
ATOM     31  C   UNL     1      -1.070  12.473  18.389  0.00  0.00    +0.000 A 
ATOM     32  C   UNL     1      -2.111  11.731  17.834  0.00  0.00    +0.000 A 
ATOM     33  C   UNL     1      -1.927  10.379  17.558  0.00  0.00    +0.000 A 
ATOM     34  C   UNL     1      -0.696   9.771  17.826  0.00  0.00    +0.000 A 
ENDBRANCH  28  29
ENDBRANCH   5  28
TORSDOF 6
ENDMDL
MODEL 2
REMARK VINA RESULT:      -8.2      1.586      2.020
REMARK  Name = 
REMARK  6 active torsions:
REMARK  status: ('A' for Active; 'I' for Inactive)
REMARK    1  A    between atoms: C_2  and  C_15
REMARK    2  A    between atoms: N_3  and  N_4
REMARK    3  A    between atoms: C_5  and  C_6
REMARK    4  A    between atoms: C_17  and  C_18
REMARK    5  A    between atoms: N_26  and  C_27
REMARK    6  A    between atoms: C_27  and  C_28
REMARK                            x       y       z     vdW  Elec       q    Type
REMARK                         _______ _______ _______ _____ _____    ______ ____
ROOT
ATOM      1  C   UNL     1       1.050   8.894  19.968  0.00  0.00    +0.000 A 
ATOM      2  C   UNL     1       1.886   7.793  19.892  0.00  0.00    +0.000 A 
ATOM      3  C   UNL     1       2.326   7.695  18.552  0.00  0.00    +0.000 A 
ATOM      4  N   UNL     1       1.798   8.681  17.819  0.00  0.00    +0.000 NA
ATOM      5  N   UNL     1       1.065   9.421  18.689  0.00  0.00    +0.000 N 
ENDROOT
BRANCH   3   6
ATOM      6  C   UNL     1       3.202   6.672  17.982  0.00  0.00    +0.000 A 
ATOM      7  C   UNL     1       4.386   7.038  17.328  0.00  0.00    +0.000 A 
ATOM      8  C   UNL     1       5.175   6.075  16.695  0.00  0.00    +0.000 A 
ATOM      9  C   UNL     1       4.790   4.736  16.725  0.00  0.00    +0.000 A 
ATOM     10 CL   UNL     1       5.736   3.556  15.907  0.00  0.00    +0.000 Cl
ATOM     11  C   UNL     1       3.636   4.351  17.400  0.00  0.00    +0.000 A 
ATOM     12  C   UNL     1       2.846   5.314  18.031  0.00  0.00    +0.000 A 
ENDBRANCH   3   6
BRANCH   1  14
ATOM     13  O   UNL     1      -0.406   8.756  21.814  0.00  0.00    +0.000 OA
ATOM     14  C   UNL     1       0.361   9.429  21.131  0.00  0.00    +0.000 C 
ATOM     15  N   UNL     1       0.644  10.774  21.386  0.00  0.00    +0.000 N 
ATOM     16  H   UNL     1       1.371  11.243  20.863  0.00  0.00    +0.000 HD
BRANCH  15  17
ATOM     17  N   UNL     1       0.007  11.455  22.387  0.00  0.00    +0.000 NA
ATOM     18  C   UNL     1      -0.694  12.485  22.014  0.00  0.00    +0.000 C 
BRANCH  18  19
ATOM     19  C   UNL     1      -1.436  13.325  22.985  0.00  0.00    +0.000 A 
ATOM     20  C   UNL     1      -2.694  12.917  23.474  0.00  0.00    +0.000 A 
ATOM     21  C   UNL     1      -3.388  13.706  24.399  0.00  0.00    +0.000 A 
ATOM     22  C   UNL     1      -2.809  14.893  24.792  0.00  0.00    +0.000 A 
ATOM     23  C   UNL     1      -1.586  15.296  24.309  0.00  0.00    +0.000 A 
ATOM     24  C   UNL     1      -0.866  14.532  23.410  0.00  0.00    +0.000 A 
ATOM     25  O   UNL     1      -1.201  16.498  24.818  0.00  0.00    +0.000 OA
ATOM     26  C   UNL     1      -2.369  16.852  25.590  0.00  0.00    +0.000 C 
ATOM     27  O   UNL     1      -3.342  15.791  25.664  0.00  0.00    +0.000 OA
ENDBRANCH  18  19
ENDBRANCH  15  17
ENDBRANCH   1  14
BRANCH   5  28
ATOM     28  C   UNL     1       0.555  10.707  18.215  0.00  0.00    +0.000 C 
BRANCH  28  29
ATOM     29  C   UNL     1      -0.946  10.758  18.035  0.00  0.00    +0.000 A 
ATOM     30  C   UNL     1      -1.599   9.797  17.250  0.00  0.00    +0.000 A 
ATOM     31  C   UNL     1      -2.994   9.768  17.175  0.00  0.00    +0.000 A 
ATOM     32  C   UNL     1      -3.755  10.699  17.879  0.00  0.00    +0.000 A 
ATOM     33  C   UNL     1      -3.120  11.675  18.644  0.00  0.00    +0.000 A 
ATOM     34  C   UNL     1      -1.724  11.711  18.715  0.00  0.00    +0.000 A 
ENDBRANCH  28  29
ENDBRANCH   5  28
TORSDOF 6
ENDMDL
MODEL 3
REMARK VINA RESULT:      -8.1      4.475     10.191
REMARK  Name = 
REMARK  6 active torsions:
REMARK  status: ('A' for Active; 'I' for Inactive)
REMARK    1  A    between atoms: C_2  and  C_15
REMARK    2  A    between atoms: N_3  and  N_4
REMARK    3  A    between atoms: C_5  and  C_6
REMARK    4  A    between atoms: C_17  and  C_18
REMARK    5  A    between atoms: N_26  and  C_27
REMARK    6  A    between atoms: C_27  and  C_28
REMARK                            x       y       z     vdW  Elec       q    Type
REMARK                         _______ _______ _______ _____ _____    ______ ____
ROOT
ATOM      1  C   UNL     1       0.714  11.342  19.511  0.00  0.00    +0.000 A 
ATOM      2  C   UNL     1       1.003  12.379  20.383  0.00  0.00    +0.000 A 
ATOM      3  C   UNL     1      -0.205  12.731  21.027  0.00  0.00    +0.000 A 
ATOM      4  N   UNL     1      -1.205  11.959  20.587  0.00  0.00    +0.000 NA
ATOM      5  N   UNL     1      -0.634  11.100  19.706  0.00  0.00    +0.000 N 
ENDROOT
BRANCH   3   6
ATOM      6  C   UNL     1      -0.403  13.793  22.011  0.00  0.00    +0.000 A 
ATOM      7  C   UNL     1       0.292  15.005  21.895  0.00  0.00    +0.000 A 
ATOM      8  C   UNL     1       0.183  15.983  22.886  0.00  0.00    +0.000 A 
ATOM      9  C   UNL     1      -0.633  15.760  23.993  0.00  0.00    +0.000 A 
ATOM     10 CL   UNL     1      -0.730  16.945  25.236  0.00  0.00    +0.000 Cl
ATOM     11  C   UNL     1      -1.358  14.578  24.106  0.00  0.00    +0.000 A 
ATOM     12  C   UNL     1      -1.248  13.598  23.117  0.00  0.00    +0.000 A 
ENDBRANCH   3   6
BRANCH   1  14
ATOM     13  O   UNL     1       2.370  11.182  17.844  0.00  0.00    +0.000 OA
ATOM     14  C   UNL     1       1.619  10.617  18.634  0.00  0.00    +0.000 C 
ATOM     15  N   UNL     1       1.543   9.228  18.769  0.00  0.00    +0.000 N 
ATOM     16  H   UNL     1       0.995   8.823  19.516  0.00  0.00    +0.000 HD
BRANCH  15  17
ATOM     17  N   UNL     1       2.261   8.396  17.952  0.00  0.00    +0.000 NA
ATOM     18  C   UNL     1       2.697   7.301  18.502  0.00  0.00    +0.000 C 
BRANCH  18  19
ATOM     19  C   UNL     1       3.493   6.304  17.746  0.00  0.00    +0.000 A 
ATOM     20  C   UNL     1       3.153   4.936  17.783  0.00  0.00    +0.000 A 
ATOM     21  C   UNL     1       3.899   3.998  17.060  0.00  0.00    +0.000 A 
ATOM     22  C   UNL     1       4.979   4.456  16.337  0.00  0.00    +0.000 A 
ATOM     23  C   UNL     1       5.316   5.790  16.308  0.00  0.00    +0.000 A 
ATOM     24  C   UNL     1       4.590   6.744  16.995  0.00  0.00    +0.000 A 
ATOM     25  O   UNL     1       6.417   6.027  15.543  0.00  0.00    +0.000 OA
ATOM     26  C   UNL     1       6.792   4.679  15.185  0.00  0.00    +0.000 C 
ATOM     27  O   UNL     1       5.824   3.692  15.594  0.00  0.00    +0.000 OA
ENDBRANCH  18  19
ENDBRANCH  15  17
ENDBRANCH   1  14
BRANCH   5  28
ATOM     28  C   UNL     1      -1.448   9.979  19.236  0.00  0.00    +0.000 C 
BRANCH  28  29
ATOM     29  C   UNL     1      -2.298  10.289  18.024  0.00  0.00    +0.000 A 
ATOM     30  C   UNL     1      -3.427  11.113  18.142  0.00  0.00    +0.000 A 
ATOM     31  C   UNL     1      -4.148  11.497  17.008  0.00  0.00    +0.000 A 
ATOM     32  C   UNL     1      -3.755  11.063  15.744  0.00  0.00    +0.000 A 
ATOM     33  C   UNL     1      -2.650  10.225  15.613  0.00  0.00    +0.000 A 
ATOM     34  C   UNL     1      -1.930   9.833  16.747  0.00  0.00    +0.000 A 
ENDBRANCH  28  29
ENDBRANCH   5  28
TORSDOF 6
ENDMDL
MODEL 4
REMARK VINA RESULT:      -8.0      8.071      9.630
REMARK  Name = 
REMARK  6 active torsions:
REMARK  status: ('A' for Active; 'I' for Inactive)
REMARK    1  A    between atoms: C_2  and  C_15
REMARK    2  A    between atoms: N_3  and  N_4
REMARK    3  A    between atoms: C_5  and  C_6
REMARK    4  A    between atoms: C_17  and  C_18
REMARK    5  A    between atoms: N_26  and  C_27
REMARK    6  A    between atoms: C_27  and  C_28
REMARK                            x       y       z     vdW  Elec       q    Type
REMARK                         _______ _______ _______ _____ _____    ______ ____
ROOT
ATOM      1  C   UNL     1       6.680   5.918  16.956  0.00  0.00    +0.000 A 
ATOM      2  C   UNL     1       7.140   5.431  15.743  0.00  0.00    +0.000 A 
ATOM      3  C   UNL     1       6.051   4.784  15.114  0.00  0.00    +0.000 A 
ATOM      4  N   UNL     1       4.961   4.858  15.886  0.00  0.00    +0.000 NA
ATOM      5  N   UNL     1       5.340   5.578  16.973  0.00  0.00    +0.000 N 
ENDROOT
BRANCH   3   6
ATOM      6  C   UNL     1       6.060   4.091  13.827  0.00  0.00    +0.000 A 
ATOM      7  C   UNL     1       4.879   3.544  13.310  0.00  0.00    +0.000 A 
ATOM      8  C   UNL     1       4.900   2.794  12.131  0.00  0.00    +0.000 A 
ATOM      9  C   UNL     1       6.103   2.599  11.456  0.00  0.00    +0.000 A 
ATOM     10 CL   UNL     1       6.137   1.638  10.030  0.00  0.00    +0.000 Cl
ATOM     11  C   UNL     1       7.280   3.165  11.937  0.00  0.00    +0.000 A 
ATOM     12  C   UNL     1       7.259   3.913  13.116  0.00  0.00    +0.000 A 
ENDBRANCH   3   6
BRANCH   1  14
ATOM     13  O   UNL     1       7.598   6.252  19.099  0.00  0.00    +0.000 OA
ATOM     14  C   UNL     1       7.408   6.674  17.962  0.00  0.00    +0.000 C 
ATOM     15  N   UNL     1       7.855   7.921  17.516  0.00  0.00    +0.000 N 
ATOM     16  H   UNL     1       7.774   8.166  16.538  0.00  0.00    +0.000 HD
BRANCH  15  17
ATOM     17  N   UNL     1       8.476   8.797  18.366  0.00  0.00    +0.000 NA
ATOM     18  C   UNL     1       8.549  10.029  17.954  0.00  0.00    +0.000 C 
BRANCH  18  19
ATOM     19  C   UNL     1       9.197  11.091  18.761  0.00  0.00    +0.000 A 
ATOM     20  C   UNL     1       9.390  10.921  20.148  0.00  0.00    +0.000 A 
ATOM     21  C   UNL     1      10.012  11.920  20.907  0.00  0.00    +0.000 A 
ATOM     22  C   UNL     1      10.404  13.070  20.256  0.00  0.00    +0.000 A 
ATOM     23  C   UNL     1      10.208  13.239  18.905  0.00  0.00    +0.000 A 
ATOM     24  C   UNL     1       9.615  12.265  18.123  0.00  0.00    +0.000 A 
ATOM     25  O   UNL     1      10.660  14.445  18.465  0.00  0.00    +0.000 OA
ATOM     26  C   UNL     1      11.063  15.054  19.711  0.00  0.00    +0.000 C 
ATOM     27  O   UNL     1      11.004  14.147  20.831  0.00  0.00    +0.000 OA
ENDBRANCH  18  19
ENDBRANCH  15  17
ENDBRANCH   1  14
BRANCH   5  28
ATOM     28  C   UNL     1       4.287   6.020  17.886  0.00  0.00    +0.000 C 
BRANCH  28  29
ATOM     29  C   UNL     1       3.456   4.901  18.472  0.00  0.00    +0.000 A 
ATOM     30  C   UNL     1       4.045   3.946  19.314  0.00  0.00    +0.000 A 
ATOM     31  C   UNL     1       3.261   2.980  19.952  0.00  0.00    +0.000 A 
ATOM     32  C   UNL     1       1.882   2.952  19.754  0.00  0.00    +0.000 A 
ATOM     33  C   UNL     1       1.286   3.877  18.902  0.00  0.00    +0.000 A 
ATOM     34  C   UNL     1       2.068   4.841  18.257  0.00  0.00    +0.000 A 
ENDBRANCH  28  29
ENDBRANCH   5  28
TORSDOF 6
ENDMDL
MODEL 5
REMARK VINA RESULT:      -8.0      4.146      9.996
REMARK  Name = 
REMARK  6 active torsions:
REMARK  status: ('A' for Active; 'I' for Inactive)
REMARK    1  A    between atoms: C_2  and  C_15
REMARK    2  A    between atoms: N_3  and  N_4
REMARK    3  A    between atoms: C_5  and  C_6
REMARK    4  A    between atoms: C_17  and  C_18
REMARK    5  A    between atoms: N_26  and  C_27
REMARK    6  A    between atoms: C_27  and  C_28
REMARK                            x       y       z     vdW  Elec       q    Type
REMARK                         _______ _______ _______ _____ _____    ______ ____
ROOT
ATOM      1  C   UNL     1      -0.555  10.459  21.575  0.00  0.00    +0.000 A 
ATOM      2  C   UNL     1      -1.114  11.096  22.670  0.00  0.00    +0.000 A 
ATOM      3  C   UNL     1      -1.389  12.427  22.283  0.00  0.00    +0.000 A 
ATOM      4  N   UNL     1      -1.024  12.623  21.011  0.00  0.00    +0.000 NA
ATOM      5  N   UNL     1      -0.562  11.422  20.582  0.00  0.00    +0.000 N 
ENDROOT
BRANCH   3   6
ATOM      6  C   UNL     1      -1.956  13.489  23.113  0.00  0.00    +0.000 A 
ATOM      7  C   UNL     1      -3.339  13.712  23.130  0.00  0.00    +0.000 A 
ATOM      8  C   UNL     1      -3.877  14.787  23.841  0.00  0.00    +0.000 A 
ATOM      9  C   UNL     1      -3.033  15.638  24.552  0.00  0.00    +0.000 A 
ATOM     10 CL   UNL     1      -3.690  16.989  25.390  0.00  0.00    +0.000 Cl
ATOM     11  C   UNL     1      -1.660  15.411  24.575  0.00  0.00    +0.000 A 
ATOM     12  C   UNL     1      -1.122  14.337  23.862  0.00  0.00    +0.000 A 
ENDBRANCH   3   6
BRANCH   1  14
ATOM     13  O   UNL     1      -0.824   8.129  21.787  0.00  0.00    +0.000 OA
ATOM     14  C   UNL     1      -0.118   9.077  21.456  0.00  0.00    +0.000 C 
ATOM     15  N   UNL     1       1.175   8.937  20.946  0.00  0.00    +0.000 N 
ATOM     16  H   UNL     1       1.663   9.744  20.580  0.00  0.00    +0.000 HD
BRANCH  15  17
ATOM     17  N   UNL     1       1.774   7.708  20.857  0.00  0.00    +0.000 NA
ATOM     18  C   UNL     1       2.067   7.307  19.655  0.00  0.00    +0.000 C 
BRANCH  18  19
ATOM     19  C   UNL     1       2.713   5.997  19.399  0.00  0.00    +0.000 A 
ATOM     20  C   UNL     1       4.116   5.865  19.451  0.00  0.00    +0.000 A 
ATOM     21  C   UNL     1       4.723   4.625  19.220  0.00  0.00    +0.000 A 
ATOM     22  C   UNL     1       3.906   3.556  18.923  0.00  0.00    +0.000 A 
ATOM     23  C   UNL     1       2.537   3.686  18.864  0.00  0.00    +0.000 A 
ATOM     24  C   UNL     1       1.905   4.891  19.105  0.00  0.00    +0.000 A 
ATOM     25  O   UNL     1       1.921   2.515  18.548  0.00  0.00    +0.000 OA
ATOM     26  C   UNL     1       3.064   1.663  18.311  0.00  0.00    +0.000 C 
ATOM     27  O   UNL     1       4.318   2.288  18.653  0.00  0.00    +0.000 OA
ENDBRANCH  18  19
ENDBRANCH  15  17
ENDBRANCH   1  14
BRANCH   5  28
ATOM     28  C   UNL     1      -0.307  11.272  19.150  0.00  0.00    +0.000 C 
BRANCH  28  29
ATOM     29  C   UNL     1      -1.535  10.952  18.326  0.00  0.00    +0.000 A 
ATOM     30  C   UNL     1      -2.708  11.705  18.479  0.00  0.00    +0.000 A 
ATOM     31  C   UNL     1      -3.805  11.491  17.640  0.00  0.00    +0.000 A 
ATOM     32  C   UNL     1      -3.747  10.522  16.641  0.00  0.00    +0.000 A 
ATOM     33  C   UNL     1      -2.599   9.748  16.493  0.00  0.00    +0.000 A 
ATOM     34  C   UNL     1      -1.501   9.956  17.335  0.00  0.00    +0.000 A 
ENDBRANCH  28  29
ENDBRANCH   5  28
TORSDOF 6
ENDMDL
MODEL 6
REMARK VINA RESULT:      -8.0      4.667     10.016
REMARK  Name = 
REMARK  6 active torsions:
REMARK  status: ('A' for Active; 'I' for Inactive)
REMARK    1  A    between atoms: C_2  and  C_15
REMARK    2  A    between atoms: N_3  and  N_4
REMARK    3  A    between atoms: C_5  and  C_6
REMARK    4  A    between atoms: C_17  and  C_18
REMARK    5  A    between atoms: N_26  and  C_27
REMARK    6  A    between atoms: C_27  and  C_28
REMARK                            x       y       z     vdW  Elec       q    Type
REMARK                         _______ _______ _______ _____ _____    ______ ____
ROOT
ATOM      1  C   UNL     1      -0.209  10.540  19.268  0.00  0.00    +0.000 A 
ATOM      2  C   UNL     1      -1.472  10.442  18.709  0.00  0.00    +0.000 A 
ATOM      3  C   UNL     1      -2.204  11.575  19.133  0.00  0.00    +0.000 A 
ATOM      4  N   UNL     1      -1.446  12.348  19.917  0.00  0.00    +0.000 NA
ATOM      5  N   UNL     1      -0.235  11.738  19.959  0.00  0.00    +0.000 N 
ENDROOT
BRANCH   3   6
ATOM      6  C   UNL     1      -3.596  11.893  18.820  0.00  0.00    +0.000 A 
ATOM      7  C   UNL     1      -4.122  11.602  17.554  0.00  0.00    +0.000 A 
ATOM      8  C   UNL     1      -5.420  11.994  17.217  0.00  0.00    +0.000 A 
ATOM      9  C   UNL     1      -6.204  12.669  18.150  0.00  0.00    +0.000 A 
ATOM     10 CL   UNL     1      -7.784  13.194  17.719  0.00  0.00    +0.000 Cl
ATOM     11  C   UNL     1      -5.710  12.935  19.424  0.00  0.00    +0.000 A 
ATOM     12  C   UNL     1      -4.412  12.545  19.761  0.00  0.00    +0.000 A 
ENDBRANCH   3   6
BRANCH   1  14
ATOM     13  O   UNL     1       1.406   9.023  20.066  0.00  0.00    +0.000 OA
ATOM     14  C   UNL     1       0.920   9.636  19.120  0.00  0.00    +0.000 C 
ATOM     15  N   UNL     1       1.400   9.543  17.810  0.00  0.00    +0.000 N 
ATOM     16  H   UNL     1       0.887   9.977  17.054  0.00  0.00    +0.000 HD
BRANCH  15  17
ATOM     17  N   UNL     1       2.516   8.807  17.514  0.00  0.00    +0.000 NA
ATOM     18  C   UNL     1       2.551   7.606  18.012  0.00  0.00    +0.000 C 
BRANCH  18  19
ATOM     19  C   UNL     1       3.696   6.693  17.783  0.00  0.00    +0.000 A 
ATOM     20  C   UNL     1       4.067   5.748  18.761  0.00  0.00    +0.000 A 
ATOM     21  C   UNL     1       5.142   4.879  18.539  0.00  0.00    +0.000 A 
ATOM     22  C   UNL     1       5.827   4.997  17.349  0.00  0.00    +0.000 A 
ATOM     23  C   UNL     1       5.470   5.924  16.398  0.00  0.00    +0.000 A 
ATOM     24  C   UNL     1       4.403   6.784  16.577  0.00  0.00    +0.000 A 
ATOM     25  O   UNL     1       6.279   5.879  15.304  0.00  0.00    +0.000 OA
ATOM     26  C   UNL     1       7.247   4.892  15.724  0.00  0.00    +0.000 C 
ATOM     27  O   UNL     1       6.902   4.254  16.970  0.00  0.00    +0.000 OA
ENDBRANCH  18  19
ENDBRANCH  15  17
ENDBRANCH   1  14
BRANCH   5  28
ATOM     28  C   UNL     1       0.872  12.482  20.559  0.00  0.00    +0.000 C 
BRANCH  28  29
ATOM     29  C   UNL     1       1.499  13.513  19.648  0.00  0.00    +0.000 A 
ATOM     30  C   UNL     1       1.109  14.858  19.724  0.00  0.00    +0.000 A 
ATOM     31  C   UNL     1       1.767  15.833  18.969  0.00  0.00    +0.000 A 
ATOM     32  C   UNL     1       2.817  15.479  18.126  0.00  0.00    +0.000 A 
ATOM     33  C   UNL     1       3.200  14.144  18.020  0.00  0.00    +0.000 A 
ATOM     34  C   UNL     1       2.540  13.165  18.769  0.00  0.00    +0.000 A 
ENDBRANCH  28  29
ENDBRANCH   5  28
TORSDOF 6
ENDMDL
MODEL 7
REMARK VINA RESULT:      -8.0      4.206      9.961
REMARK  Name = 
REMARK  6 active torsions:
REMARK  status: ('A' for Active; 'I' for Inactive)
REMARK    1  A    between atoms: C_2  and  C_15
REMARK    2  A    between atoms: N_3  and  N_4
REMARK    3  A    between atoms: C_5  and  C_6
REMARK    4  A    between atoms: C_17  and  C_18
REMARK    5  A    between atoms: N_26  and  C_27
REMARK    6  A    between atoms: C_27  and  C_28
REMARK                            x       y       z     vdW  Elec       q    Type
REMARK                         _______ _______ _______ _____ _____    ______ ____
ROOT
ATOM      1  C   UNL     1      -0.318  10.572  21.644  0.00  0.00    +0.000 A 
ATOM      2  C   UNL     1      -0.728  11.340  22.721  0.00  0.00    +0.000 A 
ATOM      3  C   UNL     1      -0.839  12.673  22.265  0.00  0.00    +0.000 A 
ATOM      4  N   UNL     1      -0.517  12.746  20.968  0.00  0.00    +0.000 NA
ATOM      5  N   UNL     1      -0.245  11.470  20.595  0.00  0.00    +0.000 N 
ENDROOT
BRANCH   3   6
ATOM      6  C   UNL     1      -1.213  13.847  23.051  0.00  0.00    +0.000 A 
ATOM      7  C   UNL     1      -0.404  14.992  23.044  0.00  0.00    +0.000 A 
ATOM      8  C   UNL     1      -0.703  16.078  23.870  0.00  0.00    +0.000 A 
ATOM      9  C   UNL     1      -1.821  16.030  24.699  0.00  0.00    +0.000 A 
ATOM     10 CL   UNL     1      -2.163  17.348  25.751  0.00  0.00    +0.000 Cl
ATOM     11  C   UNL     1      -2.655  14.916  24.693  0.00  0.00    +0.000 A 
ATOM     12  C   UNL     1      -2.356  13.829  23.868  0.00  0.00    +0.000 A 
ENDBRANCH   3   6
BRANCH   1  14
ATOM     13  O   UNL     1      -0.950   8.313  21.849  0.00  0.00    +0.000 OA
ATOM     14  C   UNL     1      -0.079   9.139  21.592  0.00  0.00    +0.000 C 
ATOM     15  N   UNL     1       1.229   8.798  21.236  0.00  0.00    +0.000 N 
ATOM     16  H   UNL     1       1.869   9.515  20.921  0.00  0.00    +0.000 HD
BRANCH  15  17
ATOM     17  N   UNL     1       1.645   7.493  21.231  0.00  0.00    +0.000 NA
ATOM     18  C   UNL     1       1.699   6.921  20.065  0.00  0.00    +0.000 C 
BRANCH  18  19
ATOM     19  C   UNL     1       2.126   5.510  19.900  0.00  0.00    +0.000 A 
ATOM     20  C   UNL     1       2.187   4.644  21.011  0.00  0.00    +0.000 A 
ATOM     21  C   UNL     1       2.580   3.310  20.852  0.00  0.00    +0.000 A 
ATOM     22  C   UNL     1       2.920   2.888  19.585  0.00  0.00    +0.000 A 
ATOM     23  C   UNL     1       2.868   3.735  18.502  0.00  0.00    +0.000 A 
ATOM     24  C   UNL     1       2.467   5.052  18.621  0.00  0.00    +0.000 A 
ATOM     25  O   UNL     1       3.250   3.122  17.349  0.00  0.00    +0.000 OA
ATOM     26  C   UNL     1       3.649   1.827  17.850  0.00  0.00    +0.000 C 
ATOM     27  O   UNL     1       3.339   1.639  19.245  0.00  0.00    +0.000 OA
ENDBRANCH  18  19
ENDBRANCH  15  17
ENDBRANCH   1  14
BRANCH   5  28
ATOM     28  C   UNL     1      -0.087  11.208  19.164  0.00  0.00    +0.000 C 
BRANCH  28  29
ATOM     29  C   UNL     1      -1.380  10.918  18.435  0.00  0.00    +0.000 A 
ATOM     30  C   UNL     1      -2.533  11.667  18.710  0.00  0.00    +0.000 A 
ATOM     31  C   UNL     1      -3.696  11.483  17.958  0.00  0.00    +0.000 A 
ATOM     32  C   UNL     1      -3.725  10.547  16.926  0.00  0.00    +0.000 A 
ATOM     33  C   UNL     1      -2.596   9.778  16.657  0.00  0.00    +0.000 A 
ATOM     34  C   UNL     1      -1.432   9.955  17.412  0.00  0.00    +0.000 A 
ENDBRANCH  28  29
ENDBRANCH   5  28
TORSDOF 6
ENDMDL
MODEL 8
REMARK VINA RESULT:      -7.9      1.518      2.286
REMARK  Name = 
REMARK  6 active torsions:
REMARK  status: ('A' for Active; 'I' for Inactive)
REMARK    1  A    between atoms: C_2  and  C_15
REMARK    2  A    between atoms: N_3  and  N_4
REMARK    3  A    between atoms: C_5  and  C_6
REMARK    4  A    between atoms: C_17  and  C_18
REMARK    5  A    between atoms: N_26  and  C_27
REMARK    6  A    between atoms: C_27  and  C_28
REMARK                            x       y       z     vdW  Elec       q    Type
REMARK                         _______ _______ _______ _____ _____    ______ ____
ROOT
ATOM      1  C   UNL     1       0.862   9.704  20.754  0.00  0.00    +0.000 A 
ATOM      2  C   UNL     1       1.472   8.545  21.207  0.00  0.00    +0.000 A 
ATOM      3  C   UNL     1       1.716   7.733  20.076  0.00  0.00    +0.000 A 
ATOM      4  N   UNL     1       1.286   8.345  18.967  0.00  0.00    +0.000 NA
ATOM      5  N   UNL     1       0.812   9.546  19.381  0.00  0.00    +0.000 N 
ENDROOT
BRANCH   3   6
ATOM      6  C   UNL     1       2.317   6.400  20.059  0.00  0.00    +0.000 A 
ATOM      7  C   UNL     1       3.457   6.147  19.284  0.00  0.00    +0.000 A 
ATOM      8  C   UNL     1       3.976   4.854  19.185  0.00  0.00    +0.000 A 
ATOM      9  C   UNL     1       3.363   3.808  19.872  0.00  0.00    +0.000 A 
ATOM     10 CL   UNL     1       3.973   2.208  19.713  0.00  0.00    +0.000 Cl
ATOM     11  C   UNL     1       2.252   4.048  20.674  0.00  0.00    +0.000 A 
ATOM     12  C   UNL     1       1.732   5.340  20.772  0.00  0.00    +0.000 A 
ENDBRANCH   3   6
BRANCH   1  14
ATOM     13  O   UNL     1       1.106  11.878  21.624  0.00  0.00    +0.000 OA
ATOM     14  C   UNL     1       0.430  10.859  21.523  0.00  0.00    +0.000 C 
ATOM     15  N   UNL     1      -0.813  10.693  22.140  0.00  0.00    +0.000 N 
ATOM     16  H   UNL     1      -1.378   9.881  21.926  0.00  0.00    +0.000 HD
BRANCH  15  17
ATOM     17  N   UNL     1      -1.324  11.649  22.977  0.00  0.00    +0.000 NA
ATOM     18  C   UNL     1      -1.966  12.621  22.400  0.00  0.00    +0.000 C 
BRANCH  18  19
ATOM     19  C   UNL     1      -2.570  13.733  23.173  0.00  0.00    +0.000 A 
ATOM     20  C   UNL     1      -1.877  14.315  24.254  0.00  0.00    +0.000 A 
ATOM     21  C   UNL     1      -2.444  15.372  24.976  0.00  0.00    +0.000 A 
ATOM     22  C   UNL     1      -3.701  15.801  24.606  0.00  0.00    +0.000 A 
ATOM     23  C   UNL     1      -4.380  15.228  23.556  0.00  0.00    +0.000 A 
ATOM     24  C   UNL     1      -3.842  14.196  22.811  0.00  0.00    +0.000 A 
ATOM     25  O   UNL     1      -5.603  15.793  23.363  0.00  0.00    +0.000 OA
ATOM     26  C   UNL     1      -5.655  16.712  24.477  0.00  0.00    +0.000 C 
ATOM     27  O   UNL     1      -4.411  16.798  25.200  0.00  0.00    +0.000 OA
ENDBRANCH  18  19
ENDBRANCH  15  17
ENDBRANCH   1  14
BRANCH   5  28
ATOM     28  C   UNL     1       0.486  10.532  18.351  0.00  0.00    +0.000 C 
BRANCH  28  29
ATOM     29  C   UNL     1      -0.994  10.697  18.088  0.00  0.00    +0.000 A 
ATOM     30  C   UNL     1      -1.663   9.820  17.222  0.00  0.00    +0.000 A 
ATOM     31  C   UNL     1      -3.050   9.894  17.067  0.00  0.00    +0.000 A 
ATOM     32  C   UNL     1      -3.786  10.845  17.770  0.00  0.00    +0.000 A 
ATOM     33  C   UNL     1      -3.133  11.740  18.615  0.00  0.00    +0.000 A 
ATOM     34  C   UNL     1      -1.744  11.673  18.767  0.00  0.00    +0.000 A 
ENDBRANCH  28  29
ENDBRANCH   5  28
TORSDOF 6
ENDMDL
MODEL 9
REMARK VINA RESULT:      -7.9      4.764     10.188
REMARK  Name = 
REMARK  6 active torsions:
REMARK  status: ('A' for Active; 'I' for Inactive)
REMARK    1  A    between atoms: C_2  and  C_15
REMARK    2  A    between atoms: N_3  and  N_4
REMARK    3  A    between atoms: C_5  and  C_6
REMARK    4  A    between atoms: C_17  and  C_18
REMARK    5  A    between atoms: N_26  and  C_27
REMARK    6  A    between atoms: C_27  and  C_28
REMARK                            x       y       z     vdW  Elec       q    Type
REMARK                         _______ _______ _______ _____ _____    ______ ____
ROOT
ATOM      1  C   UNL     1       0.564  11.377  19.186  0.00  0.00    +0.000 A 
ATOM      2  C   UNL     1      -0.810  11.258  19.059  0.00  0.00    +0.000 A 
ATOM      3  C   UNL     1      -1.394  12.156  19.981  0.00  0.00    +0.000 A 
ATOM      4  N   UNL     1      -0.441  12.811  20.655  0.00  0.00    +0.000 NA
ATOM      5  N   UNL     1       0.733  12.364  20.140  0.00  0.00    +0.000 N 
ENDROOT
BRANCH   3   6
ATOM      6  C   UNL     1      -2.819  12.363  20.231  0.00  0.00    +0.000 A 
ATOM      7  C   UNL     1      -3.755  12.147  19.211  0.00  0.00    +0.000 A 
ATOM      8  C   UNL     1      -5.106  12.439  19.413  0.00  0.00    +0.000 A 
ATOM      9  C   UNL     1      -5.530  12.936  20.644  0.00  0.00    +0.000 A 
ATOM     10 CL   UNL     1      -7.186  13.339  20.879  0.00  0.00    +0.000 Cl
ATOM     11  C   UNL     1      -4.620  13.122  21.680  0.00  0.00    +0.000 A 
ATOM     12  C   UNL     1      -3.269  12.833  21.477  0.00  0.00    +0.000 A 
ENDBRANCH   3   6
BRANCH   1  14
ATOM     13  O   UNL     1       2.401  11.266  17.716  0.00  0.00    +0.000 OA
ATOM     14  C   UNL     1       1.605  10.683  18.447  0.00  0.00    +0.000 C 
ATOM     15  N   UNL     1       1.605   9.298  18.638  0.00  0.00    +0.000 N 
ATOM     16  H   UNL     1       1.005   8.887  19.341  0.00  0.00    +0.000 HD
BRANCH  15  17
ATOM     17  N   UNL     1       2.461   8.486  17.944  0.00  0.00    +0.000 NA
ATOM     18  C   UNL     1       2.510   7.247  18.337  0.00  0.00    +0.000 C 
BRANCH  18  19
ATOM     19  C   UNL     1       3.394   6.250  17.687  0.00  0.00    +0.000 A 
ATOM     20  C   UNL     1       3.084   4.875  17.738  0.00  0.00    +0.000 A 
ATOM     21  C   UNL     1       3.914   3.936  17.114  0.00  0.00    +0.000 A 
ATOM     22  C   UNL     1       5.042   4.401  16.474  0.00  0.00    +0.000 A 
ATOM     23  C   UNL     1       5.348   5.741  16.431  0.00  0.00    +0.000 A 
ATOM     24  C   UNL     1       4.542   6.696  17.020  0.00  0.00    +0.000 A 
ATOM     25  O   UNL     1       6.506   5.984  15.757  0.00  0.00    +0.000 OA
ATOM     26  C   UNL     1       6.944   4.637  15.477  0.00  0.00    +0.000 C 
ATOM     27  O   UNL     1       5.967   3.637  15.832  0.00  0.00    +0.000 OA
ENDBRANCH  18  19
ENDBRANCH  15  17
ENDBRANCH   1  14
BRANCH   5  28
ATOM     28  C   UNL     1       1.950  13.078  20.525  0.00  0.00    +0.000 C 
BRANCH  28  29
ATOM     29  C   UNL     1       2.323  14.220  19.606  0.00  0.00    +0.000 A 
ATOM     30  C   UNL     1       3.500  14.164  18.846  0.00  0.00    +0.000 A 
ATOM     31  C   UNL     1       3.790  15.159  17.909  0.00  0.00    +0.000 A 
ATOM     32  C   UNL     1       2.912  16.225  17.722  0.00  0.00    +0.000 A 
ATOM     33  C   UNL     1       1.751  16.308  18.487  0.00  0.00    +0.000 A 
ATOM     34  C   UNL     1       1.462  15.317  19.430  0.00  0.00    +0.000 A 
ENDBRANCH  28  29
ENDBRANCH   5  28
TORSDOF 6
ENDMDL
