MODEL 1
REMARK VINA RESULT:      -8.8      0.000      0.000
REMARK  Name = 
REMARK  8 active torsions:
REMARK  status: ('A' for Active; 'I' for Inactive)
REMARK    1  A    between atoms: C_1  and  C_2
REMARK    2  A    between atoms: C_2  and  C_3
REMARK    3  A    between atoms: C_2  and  N_4
REMARK    4  A    between atoms: C_6  and  C_7
REMARK    5  A    between atoms: C_9  and  C_10
REMARK    6  A    between atoms: C_14  and  C_15
REMARK    7  A    between atoms: C_15  and  N_16
REMARK    8  A    between atoms: C_25  and  N_26
REMARK                            x       y       z     vdW  Elec       q    Type
REMARK                         _______ _______ _______ _____ _____    ______ ____
ROOT
ATOM      1  C   UNL     1       4.960   5.521  17.461  0.00  0.00    +0.000 A 
ATOM      2  C   UNL     1       4.053   6.603  17.486  0.00  0.00    +0.000 A 
ATOM      3  C   UNL     1       3.220   6.824  18.596  0.00  0.00    +0.000 A 
ATOM      4  C   UNL     1       3.338   5.892  19.627  0.00  0.00    +0.000 A 
ATOM      5  N   UNL     1       4.216   4.863  19.665  0.00  0.00    +0.000 NA
ATOM      6  C   UNL     1       5.028   4.708  18.602  0.00  0.00    +0.000 A 
ENDROOT
BRANCH   3   7
ATOM      7  C   UNL     1       2.271   7.955  18.715  0.00  0.00    +0.000 A 
ATOM      8  C   UNL     1       1.949   8.785  17.632  0.00  0.00    +0.000 A 
ATOM      9  C   UNL     1       1.002   9.808  17.764  0.00  0.00    +0.000 A 
ATOM     10  C   UNL     1       0.355  10.025  18.983  0.00  0.00    +0.000 A 
ATOM     11  C   UNL     1       0.650   9.226  20.094  0.00  0.00    +0.000 A 
ATOM     12  C   UNL     1       1.605   8.205  19.940  0.00  0.00    +0.000 A 
BRANCH  11  13
ATOM     13  C   UNL     1      -0.109   9.392  21.395  0.00  0.00    +0.000 C 
BRANCH  13  14
ATOM     14  N   UNL     1       0.068  10.609  22.186  0.00  0.00    +0.000 NA
ATOM     15  C   UNL     1      -0.988  10.924  23.154  0.00  0.00    +0.000 C 
ATOM     16  C   UNL     1      -2.111  11.812  22.599  0.00  0.00    +0.000 C 
ATOM     17  O   UNL     1      -1.588  13.009  22.009  0.00  0.00    +0.000 OA
ATOM     18  C   UNL     1      -0.664  12.697  20.959  0.00  0.00    +0.000 C 
ATOM     19  C   UNL     1       0.488  11.813  21.464  0.00  0.00    +0.000 C 
ENDBRANCH  13  14
ENDBRANCH  11  13
ENDBRANCH   3   7
BRANCH   1  22
ATOM     20  N   UNL     1       6.572   4.589  14.394  0.00  0.00    +0.000 N 
ATOM     21  C   UNL     1       5.461   4.543  15.182  0.00  0.00    +0.000 A 
ATOM     22  C   UNL     1       5.796   5.286  16.295  0.00  0.00    +0.000 A 
ATOM     23  N   UNL     1       7.063   5.783  16.124  0.00  0.00    +0.000 NA
ATOM     24  N   UNL     1       7.534   5.338  14.963  0.00  0.00    +0.000 NA
BRANCH  20  26
ATOM     25  C   UNL     1       5.425   3.464  12.518  0.00  0.00    +0.000 C 
ATOM     26  C   UNL     1       6.749   3.969  13.088  0.00  0.00    +0.000 C 
ATOM     27  C   UNL     1       7.465   4.888  12.099  0.00  0.00    +0.000 C 
ENDBRANCH  20  26
ENDBRANCH   1  22
BRANCH   6  28
ATOM     28  N   UNL     1       5.944   3.666  18.759  0.00  0.00    +0.000 N 
ATOM     29  H   UNL     1       5.757   3.008  18.007  0.00  0.00    +0.000 HD
ATOM     30  H   UNL     1       5.834   3.234  19.671  0.00  0.00    +0.000 HD
ENDBRANCH   6  28
TORSDOF 6
ENDMDL
MODEL 2
REMARK VINA RESULT:      -8.5      3.555      9.096
REMARK  Name = 
REMARK  8 active torsions:
REMARK  status: ('A' for Active; 'I' for Inactive)
REMARK    1  A    between atoms: C_1  and  C_2
REMARK    2  A    between atoms: C_2  and  C_3
REMARK    3  A    between atoms: C_2  and  N_4
REMARK    4  A    between atoms: C_6  and  C_7
REMARK    5  A    between atoms: C_9  and  C_10
REMARK    6  A    between atoms: C_14  and  C_15
REMARK    7  A    between atoms: C_15  and  N_16
REMARK    8  A    between atoms: C_25  and  N_26
REMARK                            x       y       z     vdW  Elec       q    Type
REMARK                         _______ _______ _______ _____ _____    ______ ____
ROOT
ATOM      1  C   UNL     1       0.157   9.968  19.971  0.00  0.00    +0.000 A 
ATOM      2  C   UNL     1       0.701   8.720  19.597  0.00  0.00    +0.000 A 
ATOM      3  C   UNL     1       1.477   7.968  20.496  0.00  0.00    +0.000 A 
ATOM      4  C   UNL     1       1.685   8.558  21.743  0.00  0.00    +0.000 A 
ATOM      5  N   UNL     1       1.155   9.731  22.160  0.00  0.00    +0.000 NA
ATOM      6  C   UNL     1       0.382  10.402  21.286  0.00  0.00    +0.000 A 
ENDROOT
BRANCH   3   7
ATOM      7  C   UNL     1       2.051   6.637  20.194  0.00  0.00    +0.000 A 
ATOM      8  C   UNL     1       1.849   5.524  21.023  0.00  0.00    +0.000 A 
ATOM      9  C   UNL     1       2.356   4.266  20.677  0.00  0.00    +0.000 A 
ATOM     10  C   UNL     1       3.077   4.090  19.494  0.00  0.00    +0.000 A 
ATOM     11  C   UNL     1       3.310   5.174  18.639  0.00  0.00    +0.000 A 
ATOM     12  C   UNL     1       2.793   6.430  19.005  0.00  0.00    +0.000 A 
BRANCH  11  13
ATOM     13  C   UNL     1       4.012   4.979  17.310  0.00  0.00    +0.000 C 
BRANCH  13  14
ATOM     14  N   UNL     1       5.392   4.501  17.283  0.00  0.00    +0.000 NA
ATOM     15  C   UNL     1       6.392   5.338  17.955  0.00  0.00    +0.000 C 
ATOM     16  C   UNL     1       7.057   6.381  17.045  0.00  0.00    +0.000 C 
ATOM     17  O   UNL     1       7.608   5.775  15.869  0.00  0.00    +0.000 OA
ATOM     18  C   UNL     1       6.595   5.078  15.134  0.00  0.00    +0.000 C 
ATOM     19  C   UNL     1       5.901   4.013  15.998  0.00  0.00    +0.000 C 
ENDBRANCH  13  14
ENDBRANCH  11  13
ENDBRANCH   3   7
BRANCH   1  22
ATOM     20  N   UNL     1      -2.003  11.366  17.471  0.00  0.00    +0.000 N 
ATOM     21  C   UNL     1      -1.606  10.274  18.183  0.00  0.00    +0.000 A 
ATOM     22  C   UNL     1      -0.619  10.749  19.022  0.00  0.00    +0.000 A 
ATOM     23  N   UNL     1      -0.487  12.099  18.822  0.00  0.00    +0.000 NA
ATOM     24  N   UNL     1      -1.330  12.464  17.860  0.00  0.00    +0.000 NA
BRANCH  20  26
ATOM     25  C   UNL     1      -2.831  10.337  15.384  0.00  0.00    +0.000 C 
ATOM     26  C   UNL     1      -3.035  11.418  16.445  0.00  0.00    +0.000 C 
ATOM     27  C   UNL     1      -4.445  11.360  17.032  0.00  0.00    +0.000 C 
ENDBRANCH  20  26
ENDBRANCH   1  22
BRANCH   6  28
ATOM     28  N   UNL     1      -0.175  11.563  21.825  0.00  0.00    +0.000 N 
ATOM     29  H   UNL     1      -0.540  12.094  21.039  0.00  0.00    +0.000 HD
ATOM     30  H   UNL     1       0.528  12.088  22.337  0.00  0.00    +0.000 HD
ENDBRANCH   6  28
TORSDOF 6
ENDMDL
MODEL 3
REMARK VINA RESULT:      -8.4      3.098      9.827
REMARK  Name = 
REMARK  8 active torsions:
REMARK  status: ('A' for Active; 'I' for Inactive)
REMARK    1  A    between atoms: C_1  and  C_2
REMARK    2  A    between atoms: C_2  and  C_3
REMARK    3  A    between atoms: C_2  and  N_4
REMARK    4  A    between atoms: C_6  and  C_7
REMARK    5  A    between atoms: C_9  and  C_10
REMARK    6  A    between atoms: C_14  and  C_15
REMARK    7  A    between atoms: C_15  and  N_16
REMARK    8  A    between atoms: C_25  and  N_26
REMARK                            x       y       z     vdW  Elec       q    Type
REMARK                         _______ _______ _______ _____ _____    ______ ____
ROOT
ATOM      1  C   UNL     1       0.965  10.597  19.668  0.00  0.00    +0.000 A 
ATOM      2  C   UNL     1       1.227   9.234  19.922  0.00  0.00    +0.000 A 
ATOM      3  C   UNL     1       1.923   8.444  18.991  0.00  0.00    +0.000 A 
ATOM      4  C   UNL     1       2.294   9.095  17.814  0.00  0.00    +0.000 A 
ATOM      5  N   UNL     1       2.099  10.406  17.541  0.00  0.00    +0.000 NA
ATOM      6  C   UNL     1       1.467  11.141  18.475  0.00  0.00    +0.000 A 
ENDROOT
BRANCH   3   7
ATOM      7  C   UNL     1       2.270   7.019  19.197  0.00  0.00    +0.000 A 
ATOM      8  C   UNL     1       1.912   6.318  20.358  0.00  0.00    +0.000 A 
ATOM      9  C   UNL     1       2.203   4.955  20.496  0.00  0.00    +0.000 A 
ATOM     10  C   UNL     1       2.859   4.261  19.476  0.00  0.00    +0.000 A 
ATOM     11  C   UNL     1       3.241   4.921  18.303  0.00  0.00    +0.000 A 
ATOM     12  C   UNL     1       2.941   6.290  18.185  0.00  0.00    +0.000 A 
BRANCH  11  13
ATOM     13  C   UNL     1       3.871   4.161  17.153  0.00  0.00    +0.000 C 
BRANCH  13  14
ATOM     14  N   UNL     1       5.320   3.969  17.120  0.00  0.00    +0.000 NA
ATOM     15  C   UNL     1       6.124   4.883  17.939  0.00  0.00    +0.000 C 
ATOM     16  C   UNL     1       6.582   6.152  17.205  0.00  0.00    +0.000 C 
ATOM     17  O   UNL     1       7.258   5.835  15.983  0.00  0.00    +0.000 OA
ATOM     18  C   UNL     1       6.414   5.064  15.119  0.00  0.00    +0.000 C 
ATOM     19  C   UNL     1       5.933   3.774  15.803  0.00  0.00    +0.000 C 
ENDBRANCH  13  14
ENDBRANCH  11  13
ENDBRANCH   3   7
BRANCH   1  22
ATOM     20  N   UNL     1      -1.365  12.376  21.736  0.00  0.00    +0.000 N 
ATOM     21  C   UNL     1      -1.154  11.489  20.723  0.00  0.00    +0.000 A 
ATOM     22  C   UNL     1       0.219  11.396  20.626  0.00  0.00    +0.000 A 
ATOM     23  N   UNL     1       0.781  12.184  21.598  0.00  0.00    +0.000 NA
ATOM     24  N   UNL     1      -0.198  12.792  22.263  0.00  0.00    +0.000 NA
BRANCH  20  26
ATOM     25  C   UNL     1      -3.743  12.764  21.191  0.00  0.00    +0.000 C 
ATOM     26  C   UNL     1      -2.649  12.828  22.255  0.00  0.00    +0.000 C 
ATOM     27  C   UNL     1      -3.062  12.078  23.522  0.00  0.00    +0.000 C 
ENDBRANCH  20  26
ENDBRANCH   1  22
BRANCH   6  28
ATOM     28  N   UNL     1       1.371  12.492  18.139  0.00  0.00    +0.000 N 
ATOM     29  H   UNL     1       0.613  12.871  18.699  0.00  0.00    +0.000 HD
ATOM     30  H   UNL     1       1.191  12.597  17.145  0.00  0.00    +0.000 HD
ENDBRANCH   6  28
TORSDOF 6
ENDMDL
MODEL 4
REMARK VINA RESULT:      -8.3      3.065      9.511
REMARK  Name = 
REMARK  8 active torsions:
REMARK  status: ('A' for Active; 'I' for Inactive)
REMARK    1  A    between atoms: C_1  and  C_2
REMARK    2  A    between atoms: C_2  and  C_3
REMARK    3  A    between atoms: C_2  and  N_4
REMARK    4  A    between atoms: C_6  and  C_7
REMARK    5  A    between atoms: C_9  and  C_10
REMARK    6  A    between atoms: C_14  and  C_15
REMARK    7  A    between atoms: C_15  and  N_16
REMARK    8  A    between atoms: C_25  and  N_26
REMARK                            x       y       z     vdW  Elec       q    Type
REMARK                         _______ _______ _______ _____ _____    ______ ____
ROOT
ATOM      1  C   UNL     1       1.176   9.480  19.862  0.00  0.00    +0.000 A 
ATOM      2  C   UNL     1       1.610   8.138  19.816  0.00  0.00    +0.000 A 
ATOM      3  C   UNL     1       2.188   7.602  18.652  0.00  0.00    +0.000 A 
ATOM      4  C   UNL     1       2.265   8.475  17.567  0.00  0.00    +0.000 A 
ATOM      5  N   UNL     1       1.898   9.778  17.574  0.00  0.00    +0.000 NA
ATOM      6  C   UNL     1       1.388  10.267  18.720  0.00  0.00    +0.000 A 
ENDROOT
BRANCH   3   7
ATOM      7  C   UNL     1       2.701   6.218  18.535  0.00  0.00    +0.000 A 
ATOM      8  C   UNL     1       1.965   5.191  17.926  0.00  0.00    +0.000 A 
ATOM      9  C   UNL     1       2.503   3.907  17.778  0.00  0.00    +0.000 A 
ATOM     10  C   UNL     1       3.791   3.620  18.237  0.00  0.00    +0.000 A 
ATOM     11  C   UNL     1       4.560   4.611  18.857  0.00  0.00    +0.000 A 
ATOM     12  C   UNL     1       4.000   5.894  18.997  0.00  0.00    +0.000 A 
BRANCH  11  13
ATOM     13  C   UNL     1       5.991   4.337  19.277  0.00  0.00    +0.000 C 
BRANCH  13  14
ATOM     14  N   UNL     1       7.086   4.652  18.362  0.00  0.00    +0.000 NA
ATOM     15  C   UNL     1       7.737   5.954  18.539  0.00  0.00    +0.000 C 
ATOM     16  C   UNL     1       7.121   7.087  17.706  0.00  0.00    +0.000 C 
ATOM     17  O   UNL     1       7.050   6.738  16.318  0.00  0.00    +0.000 OA
ATOM     18  C   UNL     1       6.285   5.540  16.133  0.00  0.00    +0.000 C 
ATOM     19  C   UNL     1       6.866   4.368  16.941  0.00  0.00    +0.000 C 
ENDBRANCH  13  14
ENDBRANCH  11  13
ENDBRANCH   3   7
BRANCH   1  22
ATOM     20  N   UNL     1      -0.527  11.257  22.472  0.00  0.00    +0.000 N 
ATOM     21  C   UNL     1      -0.204  11.163  21.151  0.00  0.00    +0.000 A 
ATOM     22  C   UNL     1       0.554  10.014  21.062  0.00  0.00    +0.000 A 
ATOM     23  N   UNL     1       0.625   9.439  22.306  0.00  0.00    +0.000 NA
ATOM     24  N   UNL     1      -0.029  10.216  23.165  0.00  0.00    +0.000 NA
BRANCH  20  26
ATOM     25  C   UNL     1      -0.836  13.692  22.747  0.00  0.00    +0.000 C 
ATOM     26  C   UNL     1      -1.330  12.293  23.109  0.00  0.00    +0.000 C 
ATOM     27  C   UNL     1      -2.821  12.137  22.814  0.00  0.00    +0.000 C 
ENDBRANCH  20  26
ENDBRANCH   1  22
BRANCH   6  28
ATOM     28  N   UNL     1       1.103  11.632  18.655  0.00  0.00    +0.000 N 
ATOM     29  H   UNL     1       0.363  11.800  19.332  0.00  0.00    +0.000 HD
ATOM     30  H   UNL     1       0.815  11.888  17.715  0.00  0.00    +0.000 HD
ENDBRANCH   6  28
TORSDOF 6
ENDMDL
MODEL 5
REMARK VINA RESULT:      -8.3      4.412     10.127
REMARK  Name = 
REMARK  8 active torsions:
REMARK  status: ('A' for Active; 'I' for Inactive)
REMARK    1  A    between atoms: C_1  and  C_2
REMARK    2  A    between atoms: C_2  and  C_3
REMARK    3  A    between atoms: C_2  and  N_4
REMARK    4  A    between atoms: C_6  and  C_7
REMARK    5  A    between atoms: C_9  and  C_10
REMARK    6  A    between atoms: C_14  and  C_15
REMARK    7  A    between atoms: C_15  and  N_16
REMARK    8  A    between atoms: C_25  and  N_26
REMARK                            x       y       z     vdW  Elec       q    Type
REMARK                         _______ _______ _______ _____ _____    ______ ____
ROOT
ATOM      1  C   UNL     1      -1.101  11.377  18.198  0.00  0.00    +0.000 A 
ATOM      2  C   UNL     1      -0.495  10.126  18.444  0.00  0.00    +0.000 A 
ATOM      3  C   UNL     1       0.869  10.034  18.769  0.00  0.00    +0.000 A 
ATOM      4  C   UNL     1       1.560  11.245  18.797  0.00  0.00    +0.000 A 
ATOM      5  N   UNL     1       1.016  12.469  18.606  0.00  0.00    +0.000 NA
ATOM      6  C   UNL     1      -0.302  12.522  18.339  0.00  0.00    +0.000 A 
ENDROOT
BRANCH   3   7
ATOM      7  C   UNL     1       1.571   8.766  19.076  0.00  0.00    +0.000 A 
ATOM      8  C   UNL     1       1.334   8.041  20.253  0.00  0.00    +0.000 A 
ATOM      9  C   UNL     1       1.970   6.815  20.484  0.00  0.00    +0.000 A 
ATOM     10  C   UNL     1       2.858   6.285  19.544  0.00  0.00    +0.000 A 
ATOM     11  C   UNL     1       3.131   6.978  18.359  0.00  0.00    +0.000 A 
ATOM     12  C   UNL     1       2.482   8.208  18.146  0.00  0.00    +0.000 A 
BRANCH  11  13
ATOM     13  C   UNL     1       4.021   6.373  17.292  0.00  0.00    +0.000 C 
BRANCH  13  14
ATOM     14  N   UNL     1       4.866   5.227  17.619  0.00  0.00    +0.000 NA
ATOM     15  C   UNL     1       6.116   5.512  18.331  0.00  0.00    +0.000 C 
ATOM     16  C   UNL     1       7.325   5.756  17.415  0.00  0.00    +0.000 C 
ATOM     17  O   UNL     1       7.503   4.679  16.486  0.00  0.00    +0.000 OA
ATOM     18  C   UNL     1       6.328   4.497  15.687  0.00  0.00    +0.000 C 
ATOM     19  C   UNL     1       5.086   4.241  16.556  0.00  0.00    +0.000 C 
ENDBRANCH  13  14
ENDBRANCH  11  13
ENDBRANCH   3   7
BRANCH   1  22
ATOM     20  N   UNL     1      -4.663  11.677  17.887  0.00  0.00    +0.000 N 
ATOM     21  C   UNL     1      -3.555  11.763  18.676  0.00  0.00    +0.000 A 
ATOM     22  C   UNL     1      -2.507  11.457  17.834  0.00  0.00    +0.000 A 
ATOM     23  N   UNL     1      -3.005  11.242  16.574  0.00  0.00    +0.000 NA
ATOM     24  N   UNL     1      -4.329  11.365  16.621  0.00  0.00    +0.000 NA
BRANCH  20  26
ATOM     25  C   UNL     1      -6.797  12.738  17.240  0.00  0.00    +0.000 C 
ATOM     26  C   UNL     1      -6.045  11.913  18.283  0.00  0.00    +0.000 C 
ATOM     27  C   UNL     1      -6.788  10.618  18.607  0.00  0.00    +0.000 C 
ENDBRANCH  20  26
ENDBRANCH   1  22
BRANCH   6  28
ATOM     28  N   UNL     1      -0.788  13.825  18.226  0.00  0.00    +0.000 N 
ATOM     29  H   UNL     1      -1.787  13.742  18.059  0.00  0.00    +0.000 HD
ATOM     30  H   UNL     1      -0.321  14.312  17.466  0.00  0.00    +0.000 HD
ENDBRANCH   6  28
TORSDOF 6
ENDMDL
MODEL 6
REMARK VINA RESULT:      -8.3      1.946      2.588
REMARK  Name = 
REMARK  8 active torsions:
REMARK  status: ('A' for Active; 'I' for Inactive)
REMARK    1  A    between atoms: C_1  and  C_2
REMARK    2  A    between atoms: C_2  and  C_3
REMARK    3  A    between atoms: C_2  and  N_4
REMARK    4  A    between atoms: C_6  and  C_7
REMARK    5  A    between atoms: C_9  and  C_10
REMARK    6  A    between atoms: C_14  and  C_15
REMARK    7  A    between atoms: C_15  and  N_16
REMARK    8  A    between atoms: C_25  and  N_26
REMARK                            x       y       z     vdW  Elec       q    Type
REMARK                         _______ _______ _______ _____ _____    ______ ____
ROOT
ATOM      1  C   UNL     1       5.948   4.937  16.727  0.00  0.00    +0.000 A 
ATOM      2  C   UNL     1       4.745   5.538  17.159  0.00  0.00    +0.000 A 
ATOM      3  C   UNL     1       4.523   5.819  18.518  0.00  0.00    +0.000 A 
ATOM      4  C   UNL     1       5.549   5.437  19.383  0.00  0.00    +0.000 A 
ATOM      5  N   UNL     1       6.732   4.893  19.014  0.00  0.00    +0.000 NA
ATOM      6  C   UNL     1       6.926   4.678  17.699  0.00  0.00    +0.000 A 
ENDROOT
BRANCH   3   7
ATOM      7  C   UNL     1       3.307   6.480  19.047  0.00  0.00    +0.000 A 
ATOM      8  C   UNL     1       2.584   5.966  20.132  0.00  0.00    +0.000 A 
ATOM      9  C   UNL     1       1.473   6.647  20.645  0.00  0.00    +0.000 A 
ATOM     10  C   UNL     1       1.059   7.858  20.084  0.00  0.00    +0.000 A 
ATOM     11  C   UNL     1       1.747   8.405  18.995  0.00  0.00    +0.000 A 
ATOM     12  C   UNL     1       2.859   7.704  18.494  0.00  0.00    +0.000 A 
BRANCH  11  13
ATOM     13  C   UNL     1       1.364   9.760  18.434  0.00  0.00    +0.000 C 
BRANCH  13  14
ATOM     14  N   UNL     1       0.661  10.721  19.281  0.00  0.00    +0.000 NA
ATOM     15  C   UNL     1      -0.784  10.851  19.070  0.00  0.00    +0.000 C 
ATOM     16  C   UNL     1      -1.179  11.926  18.046  0.00  0.00    +0.000 C 
ATOM     17  O   UNL     1      -0.595  13.194  18.367  0.00  0.00    +0.000 OA
ATOM     18  C   UNL     1       0.832  13.097  18.428  0.00  0.00    +0.000 C 
ATOM     19  C   UNL     1       1.284  12.038  19.447  0.00  0.00    +0.000 C 
ENDBRANCH  13  14
ENDBRANCH  11  13
ENDBRANCH   3   7
BRANCH   1  22
ATOM     20  N   UNL     1       6.085   3.701  13.362  0.00  0.00    +0.000 N 
ATOM     21  C   UNL     1       5.548   3.611  14.611  0.00  0.00    +0.000 A 
ATOM     22  C   UNL     1       6.153   4.625  15.322  0.00  0.00    +0.000 A 
ATOM     23  N   UNL     1       6.991   5.311  14.480  0.00  0.00    +0.000 NA
ATOM     24  N   UNL     1       6.953   4.727  13.285  0.00  0.00    +0.000 NA
BRANCH  20  26
ATOM     25  C   UNL     1       4.562   3.373  11.446  0.00  0.00    +0.000 C 
ATOM     26  C   UNL     1       5.781   2.862  12.211  0.00  0.00    +0.000 C 
ATOM     27  C   UNL     1       6.984   2.686  11.285  0.00  0.00    +0.000 C 
ENDBRANCH  20  26
ENDBRANCH   1  22
BRANCH   6  28
ATOM     28  N   UNL     1       8.198   4.181  17.406  0.00  0.00    +0.000 N 
ATOM     29  H   UNL     1       8.313   4.273  16.400  0.00  0.00    +0.000 HD
ATOM     30  H   UNL     1       8.276   3.214  17.706  0.00  0.00    +0.000 HD
ENDBRANCH   6  28
TORSDOF 6
ENDMDL
MODEL 7
REMARK VINA RESULT:      -8.3      2.957      9.603
REMARK  Name = 
REMARK  8 active torsions:
REMARK  status: ('A' for Active; 'I' for Inactive)
REMARK    1  A    between atoms: C_1  and  C_2
REMARK    2  A    between atoms: C_2  and  C_3
REMARK    3  A    between atoms: C_2  and  N_4
REMARK    4  A    between atoms: C_6  and  C_7
REMARK    5  A    between atoms: C_9  and  C_10
REMARK    6  A    between atoms: C_14  and  C_15
REMARK    7  A    between atoms: C_15  and  N_16
REMARK    8  A    between atoms: C_25  and  N_26
REMARK                            x       y       z     vdW  Elec       q    Type
REMARK                         _______ _______ _______ _____ _____    ______ ____
ROOT
ATOM      1  C   UNL     1       1.151   9.483  19.981  0.00  0.00    +0.000 A 
ATOM      2  C   UNL     1       1.738   8.203  20.085  0.00  0.00    +0.000 A 
ATOM      3  C   UNL     1       2.332   7.587  18.970  0.00  0.00    +0.000 A 
ATOM      4  C   UNL     1       2.267   8.312  17.780  0.00  0.00    +0.000 A 
ATOM      5  N   UNL     1       1.749   9.555  17.640  0.00  0.00    +0.000 NA
ATOM      6  C   UNL     1       1.227  10.131  18.739  0.00  0.00    +0.000 A 
ENDROOT
BRANCH   3   7
ATOM      7  C   UNL     1       3.000   6.265  19.003  0.00  0.00    +0.000 A 
ATOM      8  C   UNL     1       2.706   5.298  19.975  0.00  0.00    +0.000 A 
ATOM      9  C   UNL     1       3.312   4.036  19.942  0.00  0.00    +0.000 A 
ATOM     10  C   UNL     1       4.227   3.712  18.938  0.00  0.00    +0.000 A 
ATOM     11  C   UNL     1       4.558   4.649  17.952  0.00  0.00    +0.000 A 
ATOM     12  C   UNL     1       3.939   5.911  18.003  0.00  0.00    +0.000 A 
BRANCH  11  13
ATOM     13  C   UNL     1       5.479   4.281  16.807  0.00  0.00    +0.000 C 
BRANCH  13  14
ATOM     14  N   UNL     1       6.858   4.766  16.803  0.00  0.00    +0.000 NA
ATOM     15  C   UNL     1       7.636   4.550  18.027  0.00  0.00    +0.000 C 
ATOM     16  C   UNL     1       7.555   5.702  19.040  0.00  0.00    +0.000 C 
ATOM     17  O   UNL     1       7.897   6.955  18.434  0.00  0.00    +0.000 OA
ATOM     18  C   UNL     1       7.036   7.235  17.324  0.00  0.00    +0.000 C 
ATOM     19  C   UNL     1       7.085   6.114  16.273  0.00  0.00    +0.000 C 
ENDBRANCH  13  14
ENDBRANCH  11  13
ENDBRANCH   3   7
BRANCH   1  22
ATOM     20  N   UNL     1      -0.596  11.427  22.439  0.00  0.00    +0.000 N 
ATOM     21  C   UNL     1      -0.265  11.236  21.131  0.00  0.00    +0.000 A 
ATOM     22  C   UNL     1       0.513  10.097  21.135  0.00  0.00    +0.000 A 
ATOM     23  N   UNL     1       0.589   9.622  22.419  0.00  0.00    +0.000 NA
ATOM     24  N   UNL     1      -0.083  10.452  23.213  0.00  0.00    +0.000 NA
BRANCH  20  26
ATOM     25  C   UNL     1      -1.483  13.699  22.055  0.00  0.00    +0.000 C 
ATOM     26  C   UNL     1      -1.420  12.494  22.991  0.00  0.00    +0.000 C 
ATOM     27  C   UNL     1      -2.820  12.012  23.371  0.00  0.00    +0.000 C 
ENDBRANCH  20  26
ENDBRANCH   1  22
BRANCH   6  28
ATOM     28  N   UNL     1       0.781  11.435  18.516  0.00  0.00    +0.000 N 
ATOM     29  H   UNL     1       1.344  11.801  17.753  0.00  0.00    +0.000 HD
ATOM     30  H   UNL     1       0.884  11.992  19.359  0.00  0.00    +0.000 HD
ENDBRANCH   6  28
TORSDOF 6
ENDMDL
MODEL 8
REMARK VINA RESULT:      -8.2      3.315     10.121
REMARK  Name = 
REMARK  8 active torsions:
REMARK  status: ('A' for Active; 'I' for Inactive)
REMARK    1  A    between atoms: C_1  and  C_2
REMARK    2  A    between atoms: C_2  and  C_3
REMARK    3  A    between atoms: C_2  and  N_4
REMARK    4  A    between atoms: C_6  and  C_7
REMARK    5  A    between atoms: C_9  and  C_10
REMARK    6  A    between atoms: C_14  and  C_15
REMARK    7  A    between atoms: C_15  and  N_16
REMARK    8  A    between atoms: C_25  and  N_26
REMARK                            x       y       z     vdW  Elec       q    Type
REMARK                         _______ _______ _______ _____ _____    ______ ____
ROOT
ATOM      1  C   UNL     1       0.917  10.899  20.058  0.00  0.00    +0.000 A 
ATOM      2  C   UNL     1       1.220   9.558  20.377  0.00  0.00    +0.000 A 
ATOM      3  C   UNL     1       1.704   8.672  19.399  0.00  0.00    +0.000 A 
ATOM      4  C   UNL     1       1.826   9.206  18.117  0.00  0.00    +0.000 A 
ATOM      5  N   UNL     1       1.584  10.492  17.770  0.00  0.00    +0.000 NA
ATOM      6  C   UNL     1       1.163  11.322  18.743  0.00  0.00    +0.000 A 
ENDROOT
BRANCH   3   7
ATOM      7  C   UNL     1       2.079   7.263  19.661  0.00  0.00    +0.000 A 
ATOM      8  C   UNL     1       1.513   6.515  20.703  0.00  0.00    +0.000 A 
ATOM      9  C   UNL     1       1.846   5.167  20.886  0.00  0.00    +0.000 A 
ATOM     10  C   UNL     1       2.752   4.536  20.030  0.00  0.00    +0.000 A 
ATOM     11  C   UNL     1       3.348   5.245  18.981  0.00  0.00    +0.000 A 
ATOM     12  C   UNL     1       3.001   6.598  18.816  0.00  0.00    +0.000 A 
BRANCH  11  13
ATOM     13  C   UNL     1       4.263   4.550  17.993  0.00  0.00    +0.000 C 
BRANCH  13  14
ATOM     14  N   UNL     1       5.218   5.336  17.214  0.00  0.00    +0.000 NA
ATOM     15  C   UNL     1       5.430   4.925  15.823  0.00  0.00    +0.000 C 
ATOM     16  C   UNL     1       6.569   3.913  15.629  0.00  0.00    +0.000 C 
ATOM     17  O   UNL     1       7.791   4.382  16.213  0.00  0.00    +0.000 OA
ATOM     18  C   UNL     1       7.619   4.645  17.611  0.00  0.00    +0.000 C 
ATOM     19  C   UNL     1       6.492   5.661  17.862  0.00  0.00    +0.000 C 
ENDBRANCH  13  14
ENDBRANCH  11  13
ENDBRANCH   3   7
BRANCH   1  22
ATOM     20  N   UNL     1      -0.856  12.741  22.575  0.00  0.00    +0.000 N 
ATOM     21  C   UNL     1      -0.779  11.633  21.786  0.00  0.00    +0.000 A 
ATOM     22  C   UNL     1       0.390  11.798  21.072  0.00  0.00    +0.000 A 
ATOM     23  N   UNL     1       0.992  12.961  21.481  0.00  0.00    +0.000 NA
ATOM     24  N   UNL     1       0.213  13.538  22.391  0.00  0.00    +0.000 NA
BRANCH  20  26
ATOM     25  C   UNL     1      -2.323  14.529  23.441  0.00  0.00    +0.000 C 
ATOM     26  C   UNL     1      -1.902  13.064  23.537  0.00  0.00    +0.000 C 
ATOM     27  C   UNL     1      -3.107  12.131  23.422  0.00  0.00    +0.000 C 
ENDBRANCH  20  26
ENDBRANCH   1  22
BRANCH   6  28
ATOM     28  N   UNL     1       1.007  12.640  18.310  0.00  0.00    +0.000 N 
ATOM     29  H   UNL     1       0.347  12.609  17.538  0.00  0.00    +0.000 HD
ATOM     30  H   UNL     1       1.901  13.026  18.024  0.00  0.00    +0.000 HD
ENDBRANCH   6  28
TORSDOF 6
ENDMDL
MODEL 9
REMARK VINA RESULT:      -8.2      1.637      2.456
REMARK  Name = 
REMARK  8 active torsions:
REMARK  status: ('A' for Active; 'I' for Inactive)
REMARK    1  A    between atoms: C_1  and  C_2
REMARK    2  A    between atoms: C_2  and  C_3
REMARK    3  A    between atoms: C_2  and  N_4
REMARK    4  A    between atoms: C_6  and  C_7
REMARK    5  A    between atoms: C_9  and  C_10
REMARK    6  A    between atoms: C_14  and  C_15
REMARK    7  A    between atoms: C_15  and  N_16
REMARK    8  A    between atoms: C_25  and  N_26
REMARK                            x       y       z     vdW  Elec       q    Type
REMARK                         _______ _______ _______ _____ _____    ______ ____
ROOT
ATOM      1  C   UNL     1       6.058   5.098  16.672  0.00  0.00    +0.000 A 
ATOM      2  C   UNL     1       4.863   5.743  17.058  0.00  0.00    +0.000 A 
ATOM      3  C   UNL     1       4.533   5.906  18.415  0.00  0.00    +0.000 A 
ATOM      4  C   UNL     1       5.445   5.365  19.321  0.00  0.00    +0.000 A 
ATOM      5  N   UNL     1       6.620   4.773  19.001  0.00  0.00    +0.000 NA
ATOM      6  C   UNL     1       6.922   4.673  17.693  0.00  0.00    +0.000 A 
ENDROOT
BRANCH   3   7
ATOM      7  C   UNL     1       3.319   6.601  18.902  0.00  0.00    +0.000 A 
ATOM      8  C   UNL     1       2.541   6.106  19.958  0.00  0.00    +0.000 A 
ATOM      9  C   UNL     1       1.433   6.818  20.433  0.00  0.00    +0.000 A 
ATOM     10  C   UNL     1       1.077   8.043  19.863  0.00  0.00    +0.000 A 
ATOM     11  C   UNL     1       1.820   8.572  18.801  0.00  0.00    +0.000 A 
ATOM     12  C   UNL     1       2.928   7.840  18.338  0.00  0.00    +0.000 A 
BRANCH  11  13
ATOM     13  C   UNL     1       1.499   9.940  18.233  0.00  0.00    +0.000 C 
BRANCH  13  14
ATOM     14  N   UNL     1       1.562  11.116  19.098  0.00  0.00    +0.000 NA
ATOM     15  C   UNL     1       0.741  11.084  20.313  0.00  0.00    +0.000 C 
ATOM     16  C   UNL     1      -0.670  11.665  20.139  0.00  0.00    +0.000 C 
ATOM     17  O   UNL     1      -0.627  12.987  19.588  0.00  0.00    +0.000 OA
ATOM     18  C   UNL     1       0.049  12.990  18.325  0.00  0.00    +0.000 C 
ATOM     19  C   UNL     1       1.473  12.425  18.444  0.00  0.00    +0.000 C 
ENDBRANCH  13  14
ENDBRANCH  11  13
ENDBRANCH   3   7
BRANCH   1  22
ATOM     20  N   UNL     1       6.389   4.229  13.207  0.00  0.00    +0.000 N 
ATOM     21  C   UNL     1       5.703   4.096  14.377  0.00  0.00    +0.000 A 
ATOM     22  C   UNL     1       6.374   4.910  15.266  0.00  0.00    +0.000 A 
ATOM     23  N   UNL     1       7.400   5.532  14.601  0.00  0.00    +0.000 NA
ATOM     24  N   UNL     1       7.410   5.096  13.344  0.00  0.00    +0.000 NA
BRANCH  20  26
ATOM     25  C   UNL     1       6.921   2.314  11.741  0.00  0.00    +0.000 C 
ATOM     26  C   UNL     1       6.093   3.583  11.936  0.00  0.00    +0.000 C 
ATOM     27  C   UNL     1       4.601   3.305  11.758  0.00  0.00    +0.000 C 
ENDBRANCH  20  26
ENDBRANCH   1  22
BRANCH   6  28
ATOM     28  N   UNL     1       8.180   4.113  17.461  0.00  0.00    +0.000 N 
ATOM     29  H   UNL     1       8.012   3.182  17.090  0.00  0.00    +0.000 HD
ATOM     30  H   UNL     1       8.716   4.082  18.323  0.00  0.00    +0.000 HD
ENDBRANCH   6  28
TORSDOF 6
ENDMDL
