MODEL 1
REMARK VINA RESULT:      -8.4      0.000      0.000
REMARK  Name = 
REMARK  4 active torsions:
REMARK  status: ('A' for Active; 'I' for Inactive)
REMARK    1  A    between atoms: C_1  and  C_2
REMARK    2  A    between atoms: C_5  and  C_6
REMARK    3  A    between atoms: N_8  and  C_9
REMARK    4  A    between atoms: C_13  and  C_14
REMARK                            x       y       z     vdW  Elec       q    Type
REMARK                         _______ _______ _______ _____ _____    ______ ____
ROOT
ATOM      1  C   UNL     1       1.811   8.524  18.552  0.00  0.00    +0.000 A 
ATOM      2  C   UNL     1       1.050   9.559  18.006  0.00  0.00    +0.000 A 
ATOM      3  C   UNL     1       0.249  10.380  18.803  0.00  0.00    +0.000 A 
ATOM      4  C   UNL     1       0.170  10.186  20.181  0.00  0.00    +0.000 A 
ATOM      5  C   UNL     1      -0.679  11.012  21.068  0.00  0.00    +0.000 A 
ATOM      6  C   UNL     1      -1.605  12.069  20.537  0.00  0.00    +0.000 C 
ATOM      7  C   UNL     1      -0.633  10.784  22.393  0.00  0.00    +0.000 A 
ATOM      8  C   UNL     1       0.221   9.736  22.990  0.00  0.00    +0.000 A 
ATOM      9  O   UNL     1       0.262   9.578  24.206  0.00  0.00    +0.000 OA
ATOM     10  N   UNL     1       0.936   8.958  22.125  0.00  0.00    +0.000 N 
ATOM     11  C   UNL     1       0.942   9.147  20.735  0.00  0.00    +0.000 A 
ATOM     12  C   UNL     1       1.739   8.310  19.933  0.00  0.00    +0.000 A 
ATOM     13  H   UNL     1       1.507   8.242  22.552  0.00  0.00    +0.000 HD
ENDROOT
BRANCH   1  16
ATOM     14  C   UNL     1       3.329   6.585  18.239  0.00  0.00    +0.000 C 
ATOM     15  O   UNL     1       3.266   6.131  19.377  0.00  0.00    +0.000 OA
ATOM     16  N   UNL     1       2.646   7.696  17.763  0.00  0.00    +0.000 N 
ATOM     17  H   UNL     1       2.633   7.848  16.762  0.00  0.00    +0.000 HD
BRANCH  14  22
ATOM     18  C   UNL     1       6.394   3.866  14.152  0.00  0.00    +0.000 C 
ATOM     19  C   UNL     1       5.628   4.552  15.245  0.00  0.00    +0.000 A 
ATOM     20  C   UNL     1       5.565   5.947  15.291  0.00  0.00    +0.000 A 
ATOM     21  C   UNL     1       4.833   6.580  16.293  0.00  0.00    +0.000 A 
ATOM     22  C   UNL     1       4.163   5.834  17.270  0.00  0.00    +0.000 A 
ATOM     23  C   UNL     1       4.220   4.436  17.235  0.00  0.00    +0.000 A 
ATOM     24  C   UNL     1       4.953   3.802  16.221  0.00  0.00    +0.000 A 
ENDBRANCH  14  22
ENDBRANCH   1  16
TORSDOF 2
ENDMDL
MODEL 2
REMARK VINA RESULT:      -8.4      1.659      2.249
REMARK  Name = 
REMARK  4 active torsions:
REMARK  status: ('A' for Active; 'I' for Inactive)
REMARK    1  A    between atoms: C_1  and  C_2
REMARK    2  A    between atoms: C_5  and  C_6
REMARK    3  A    between atoms: N_8  and  C_9
REMARK    4  A    between atoms: C_13  and  C_14
REMARK                            x       y       z     vdW  Elec       q    Type
REMARK                         _______ _______ _______ _____ _____    ______ ____
ROOT
ATOM      1  C   UNL     1       2.035   8.095  19.003  0.00  0.00    +0.000 A 
ATOM      2  C   UNL     1       1.821   7.670  20.316  0.00  0.00    +0.000 A 
ATOM      3  C   UNL     1       1.025   8.399  21.202  0.00  0.00    +0.000 A 
ATOM      4  C   UNL     1       0.421   9.592  20.809  0.00  0.00    +0.000 A 
ATOM      5  C   UNL     1      -0.414  10.415  21.713  0.00  0.00    +0.000 A 
ATOM      6  C   UNL     1      -0.596  10.077  23.166  0.00  0.00    +0.000 C 
ATOM      7  C   UNL     1      -1.005  11.515  21.215  0.00  0.00    +0.000 A 
ATOM      8  C   UNL     1      -0.842  11.939  19.809  0.00  0.00    +0.000 A 
ATOM      9  O   UNL     1      -1.422  12.930  19.380  0.00  0.00    +0.000 OA
ATOM     10  N   UNL     1      -0.010  11.183  19.031  0.00  0.00    +0.000 N 
ATOM     11  C   UNL     1       0.629  10.019  19.483  0.00  0.00    +0.000 A 
ATOM     12  C   UNL     1       1.442   9.294  18.592  0.00  0.00    +0.000 A 
ATOM     13  H   UNL     1       0.094  11.493  18.075  0.00  0.00    +0.000 HD
ENDROOT
BRANCH   1  16
ATOM     14  C   UNL     1       3.627   6.281  18.425  0.00  0.00    +0.000 C 
ATOM     15  O   UNL     1       3.735   5.784  19.541  0.00  0.00    +0.000 OA
ATOM     16  N   UNL     1       2.820   7.357  18.084  0.00  0.00    +0.000 N 
ATOM     17  H   UNL     1       2.673   7.543  17.099  0.00  0.00    +0.000 HD
BRANCH  14  22
ATOM     18  C   UNL     1       6.340   3.935  13.883  0.00  0.00    +0.000 C 
ATOM     19  C   UNL     1       5.670   4.525  15.089  0.00  0.00    +0.000 A 
ATOM     20  C   UNL     1       5.524   5.909  15.205  0.00  0.00    +0.000 A 
ATOM     21  C   UNL     1       4.881   6.453  16.315  0.00  0.00    +0.000 A 
ATOM     22  C   UNL     1       4.384   5.626  17.330  0.00  0.00    +0.000 A 
ATOM     23  C   UNL     1       4.526   4.239  17.225  0.00  0.00    +0.000 A 
ATOM     24  C   UNL     1       5.170   3.694  16.104  0.00  0.00    +0.000 A 
ENDBRANCH  14  22
ENDBRANCH   1  16
TORSDOF 2
ENDMDL
MODEL 3
REMARK VINA RESULT:      -8.2      2.011      8.310
REMARK  Name = 
REMARK  4 active torsions:
REMARK  status: ('A' for Active; 'I' for Inactive)
REMARK    1  A    between atoms: C_1  and  C_2
REMARK    2  A    between atoms: C_5  and  C_6
REMARK    3  A    between atoms: N_8  and  C_9
REMARK    4  A    between atoms: C_13  and  C_14
REMARK                            x       y       z     vdW  Elec       q    Type
REMARK                         _______ _______ _______ _____ _____    ______ ____
ROOT
ATOM      1  C   UNL     1       2.205   7.613  19.307  0.00  0.00    +0.000 A 
ATOM      2  C   UNL     1       2.886   8.053  18.171  0.00  0.00    +0.000 A 
ATOM      3  C   UNL     1       3.631   7.177  17.377  0.00  0.00    +0.000 A 
ATOM      4  C   UNL     1       3.732   5.826  17.700  0.00  0.00    +0.000 A 
ATOM      5  C   UNL     1       4.525   4.860  16.907  0.00  0.00    +0.000 A 
ATOM      6  C   UNL     1       5.370   5.283  15.739  0.00  0.00    +0.000 C 
ATOM      7  C   UNL     1       4.503   3.564  17.267  0.00  0.00    +0.000 A 
ATOM      8  C   UNL     1       3.731   3.074  18.428  0.00  0.00    +0.000 A 
ATOM      9  O   UNL     1       3.708   1.880  18.708  0.00  0.00    +0.000 OA
ATOM     10  N   UNL     1       3.068   4.013  19.167  0.00  0.00    +0.000 N 
ATOM     11  C   UNL     1       3.040   5.377  18.842  0.00  0.00    +0.000 A 
ATOM     12  C   UNL     1       2.300   6.260  19.651  0.00  0.00    +0.000 A 
ATOM     13  H   UNL     1       2.552   3.660  19.961  0.00  0.00    +0.000 HD
ENDROOT
BRANCH   1  16
ATOM     14  C   UNL     1       0.657   9.527  19.621  0.00  0.00    +0.000 C 
ATOM     15  O   UNL     1       0.495   9.814  18.440  0.00  0.00    +0.000 OA
ATOM     16  N   UNL     1       1.426   8.481  20.111  0.00  0.00    +0.000 N 
ATOM     17  H   UNL     1       1.320   8.234  21.087  0.00  0.00    +0.000 HD
BRANCH  14  22
ATOM     18  C   UNL     1      -2.463  12.339  23.602  0.00  0.00    +0.000 C 
ATOM     19  C   UNL     1      -1.629  11.649  22.564  0.00  0.00    +0.000 A 
ATOM     20  C   UNL     1      -0.871  10.525  22.903  0.00  0.00    +0.000 A 
ATOM     21  C   UNL     1      -0.115   9.873  21.931  0.00  0.00    +0.000 A 
ATOM     22  C   UNL     1      -0.095  10.338  20.610  0.00  0.00    +0.000 A 
ATOM     23  C   UNL     1      -0.848  11.463  20.259  0.00  0.00    +0.000 A 
ATOM     24  C   UNL     1      -1.612  12.114  21.239  0.00  0.00    +0.000 A 
ENDBRANCH  14  22
ENDBRANCH   1  16
TORSDOF 2
ENDMDL
MODEL 4
REMARK VINA RESULT:      -8.1      2.022      8.469
REMARK  Name = 
REMARK  4 active torsions:
REMARK  status: ('A' for Active; 'I' for Inactive)
REMARK    1  A    between atoms: C_1  and  C_2
REMARK    2  A    between atoms: C_5  and  C_6
REMARK    3  A    between atoms: N_8  and  C_9
REMARK    4  A    between atoms: C_13  and  C_14
REMARK                            x       y       z     vdW  Elec       q    Type
REMARK                         _______ _______ _______ _____ _____    ______ ____
ROOT
ATOM      1  C   UNL     1       2.167   7.102  19.714  0.00  0.00    +0.000 A 
ATOM      2  C   UNL     1       1.959   5.769  20.071  0.00  0.00    +0.000 A 
ATOM      3  C   UNL     1       2.553   4.720  19.366  0.00  0.00    +0.000 A 
ATOM      4  C   UNL     1       3.371   4.967  18.265  0.00  0.00    +0.000 A 
ATOM      5  C   UNL     1       4.007   3.893  17.470  0.00  0.00    +0.000 A 
ATOM      6  C   UNL     1       3.740   2.437  17.729  0.00  0.00    +0.000 C 
ATOM      7  C   UNL     1       4.832   4.241  16.467  0.00  0.00    +0.000 A 
ATOM      8  C   UNL     1       5.114   5.651  16.122  0.00  0.00    +0.000 A 
ATOM      9  O   UNL     1       5.897   5.932  15.221  0.00  0.00    +0.000 OA
ATOM     10  N   UNL     1       4.453   6.605  16.843  0.00  0.00    +0.000 N 
ATOM     11  C   UNL     1       3.589   6.312  17.908  0.00  0.00    +0.000 A 
ATOM     12  C   UNL     1       2.980   7.370  18.608  0.00  0.00    +0.000 A 
ATOM     13  H   UNL     1       4.653   7.562  16.587  0.00  0.00    +0.000 HD
ENDROOT
BRANCH   1  16
ATOM     14  C   UNL     1       0.976   9.276  19.843  0.00  0.00    +0.000 C 
ATOM     15  O   UNL     1       0.792   9.444  18.642  0.00  0.00    +0.000 OA
ATOM     16  N   UNL     1       1.592   8.180  20.431  0.00  0.00    +0.000 N 
ATOM     17  H   UNL     1       1.505   8.073  21.434  0.00  0.00    +0.000 HD
BRANCH  14  22
ATOM     18  C   UNL     1      -1.511  13.112  23.391  0.00  0.00    +0.000 C 
ATOM     19  C   UNL     1      -0.825  12.140  22.478  0.00  0.00    +0.000 A 
ATOM     20  C   UNL     1      -0.806  10.777  22.788  0.00  0.00    +0.000 A 
ATOM     21  C   UNL     1      -0.187   9.874  21.926  0.00  0.00    +0.000 A 
ATOM     22  C   UNL     1       0.430  10.316  20.750  0.00  0.00    +0.000 A 
ATOM     23  C   UNL     1       0.419  11.677  20.430  0.00  0.00    +0.000 A 
ATOM     24  C   UNL     1      -0.209  12.583  21.297  0.00  0.00    +0.000 A 
ENDBRANCH  14  22
ENDBRANCH   1  16
TORSDOF 2
ENDMDL
MODEL 5
REMARK VINA RESULT:      -8.1      2.014      8.277
REMARK  Name = 
REMARK  4 active torsions:
REMARK  status: ('A' for Active; 'I' for Inactive)
REMARK    1  A    between atoms: C_1  and  C_2
REMARK    2  A    between atoms: C_5  and  C_6
REMARK    3  A    between atoms: N_8  and  C_9
REMARK    4  A    between atoms: C_13  and  C_14
REMARK                            x       y       z     vdW  Elec       q    Type
REMARK                         _______ _______ _______ _____ _____    ______ ____
ROOT
ATOM      1  C   UNL     1       2.267   7.528  19.232  0.00  0.00    +0.000 A 
ATOM      2  C   UNL     1       2.983   8.016  18.137  0.00  0.00    +0.000 A 
ATOM      3  C   UNL     1       3.734   7.171  17.316  0.00  0.00    +0.000 A 
ATOM      4  C   UNL     1       3.808   5.803  17.570  0.00  0.00    +0.000 A 
ATOM      5  C   UNL     1       4.605   4.867  16.747  0.00  0.00    +0.000 A 
ATOM      6  C   UNL     1       5.485   5.337  15.623  0.00  0.00    +0.000 C 
ATOM      7  C   UNL     1       4.556   3.555  17.038  0.00  0.00    +0.000 A 
ATOM      8  C   UNL     1       3.748   3.018  18.153  0.00  0.00    +0.000 A 
ATOM      9  O   UNL     1       3.700   1.811  18.369  0.00  0.00    +0.000 OA
ATOM     10  N   UNL     1       3.081   3.927  18.924  0.00  0.00    +0.000 N 
ATOM     11  C   UNL     1       3.081   5.307  18.670  0.00  0.00    +0.000 A 
ATOM     12  C   UNL     1       2.334   6.157  19.506  0.00  0.00    +0.000 A 
ATOM     13  H   UNL     1       2.541   3.541  19.685  0.00  0.00    +0.000 HD
ENDROOT
BRANCH   1  16
ATOM     14  C   UNL     1       0.686   9.405  19.600  0.00  0.00    +0.000 C 
ATOM     15  O   UNL     1       0.504   9.711  18.426  0.00  0.00    +0.000 OA
ATOM     16  N   UNL     1       1.482   8.365  20.061  0.00  0.00    +0.000 N 
ATOM     17  H   UNL     1       1.392   8.098  21.033  0.00  0.00    +0.000 HD
BRANCH  14  22
ATOM     18  C   UNL     1      -2.050  12.776  23.427  0.00  0.00    +0.000 C 
ATOM     19  C   UNL     1      -1.371  11.867  22.445  0.00  0.00    +0.000 A 
ATOM     20  C   UNL     1      -1.324  12.205  21.090  0.00  0.00    +0.000 A 
ATOM     21  C   UNL     1      -0.673  11.370  20.184  0.00  0.00    +0.000 A 
ATOM     22  C   UNL     1      -0.069  10.182  20.613  0.00  0.00    +0.000 A 
ATOM     23  C   UNL     1      -0.110   9.833  21.967  0.00  0.00    +0.000 A 
ATOM     24  C   UNL     1      -0.762  10.678  22.877  0.00  0.00    +0.000 A 
ENDBRANCH  14  22
ENDBRANCH   1  16
TORSDOF 2
ENDMDL
MODEL 6
REMARK VINA RESULT:      -8.1      1.969      8.327
REMARK  Name = 
REMARK  4 active torsions:
REMARK  status: ('A' for Active; 'I' for Inactive)
REMARK    1  A    between atoms: C_1  and  C_2
REMARK    2  A    between atoms: C_5  and  C_6
REMARK    3  A    between atoms: N_8  and  C_9
REMARK    4  A    between atoms: C_13  and  C_14
REMARK                            x       y       z     vdW  Elec       q    Type
REMARK                         _______ _______ _______ _____ _____    ______ ____
ROOT
ATOM      1  C   UNL     1       1.817   8.187  19.462  0.00  0.00    +0.000 A 
ATOM      2  C   UNL     1       2.220   8.559  18.178  0.00  0.00    +0.000 A 
ATOM      3  C   UNL     1       3.107   7.778  17.433  0.00  0.00    +0.000 A 
ATOM      4  C   UNL     1       3.636   6.599  17.954  0.00  0.00    +0.000 A 
ATOM      5  C   UNL     1       4.596   5.746  17.217  0.00  0.00    +0.000 A 
ATOM      6  C   UNL     1       5.156   6.140  15.879  0.00  0.00    +0.000 C 
ATOM      7  C   UNL     1       4.995   4.593  17.783  0.00  0.00    +0.000 A 
ATOM      8  C   UNL     1       4.522   4.155  19.113  0.00  0.00    +0.000 A 
ATOM      9  O   UNL     1       4.882   3.082  19.585  0.00  0.00    +0.000 OA
ATOM     10  N   UNL     1       3.688   5.007  19.781  0.00  0.00    +0.000 N 
ATOM     11  C   UNL     1       3.225   6.218  19.245  0.00  0.00    +0.000 A 
ATOM     12  C   UNL     1       2.342   7.009  20.003  0.00  0.00    +0.000 A 
ATOM     13  H   UNL     1       3.383   4.693  20.692  0.00  0.00    +0.000 HD
ENDROOT
BRANCH   1  16
ATOM     14  C   UNL     1       0.751  10.330  20.121  0.00  0.00    +0.000 C 
ATOM     15  O   UNL     1       1.339  11.065  19.333  0.00  0.00    +0.000 OA
ATOM     16  N   UNL     1       0.900   8.954  20.223  0.00  0.00    +0.000 N 
ATOM     17  H   UNL     1       0.219   8.445  20.773  0.00  0.00    +0.000 HD
BRANCH  14  22
ATOM     18  C   UNL     1      -3.320  12.446  23.648  0.00  0.00    +0.000 C 
ATOM     19  C   UNL     1      -2.246  11.941  22.730  0.00  0.00    +0.000 A 
ATOM     20  C   UNL     1      -1.342  10.971  23.172  0.00  0.00    +0.000 A 
ATOM     21  C   UNL     1      -0.360  10.488  22.310  0.00  0.00    +0.000 A 
ATOM     22  C   UNL     1      -0.258  10.970  21.000  0.00  0.00    +0.000 A 
ATOM     23  C   UNL     1      -1.157  11.942  20.546  0.00  0.00    +0.000 A 
ATOM     24  C   UNL     1      -2.147  12.423  21.416  0.00  0.00    +0.000 A 
ENDBRANCH  14  22
ENDBRANCH   1  16
TORSDOF 2
ENDMDL
MODEL 7
REMARK VINA RESULT:      -8.1      1.606      2.442
REMARK  Name = 
REMARK  4 active torsions:
REMARK  status: ('A' for Active; 'I' for Inactive)
REMARK    1  A    between atoms: C_1  and  C_2
REMARK    2  A    between atoms: C_5  and  C_6
REMARK    3  A    between atoms: N_8  and  C_9
REMARK    4  A    between atoms: C_13  and  C_14
REMARK                            x       y       z     vdW  Elec       q    Type
REMARK                         _______ _______ _______ _____ _____    ______ ____
ROOT
ATOM      1  C   UNL     1       1.890   8.241  19.026  0.00  0.00    +0.000 A 
ATOM      2  C   UNL     1       1.714   7.763  20.326  0.00  0.00    +0.000 A 
ATOM      3  C   UNL     1       0.960   8.465  21.269  0.00  0.00    +0.000 A 
ATOM      4  C   UNL     1       0.362   9.682  20.948  0.00  0.00    +0.000 A 
ATOM      5  C   UNL     1      -0.429  10.476  21.915  0.00  0.00    +0.000 A 
ATOM      6  C   UNL     1      -0.567  10.079  23.357  0.00  0.00    +0.000 C 
ATOM      7  C   UNL     1      -1.019  11.606  21.485  0.00  0.00    +0.000 A 
ATOM      8  C   UNL     1      -0.896  12.087  20.093  0.00  0.00    +0.000 A 
ATOM      9  O   UNL     1      -1.475  13.104  19.727  0.00  0.00    +0.000 OA
ATOM     10  N   UNL     1      -0.104  11.354  19.256  0.00  0.00    +0.000 N 
ATOM     11  C   UNL     1       0.532  10.162  19.636  0.00  0.00    +0.000 A 
ATOM     12  C   UNL     1       1.303   9.465  18.687  0.00  0.00    +0.000 A 
ATOM     13  H   UNL     1      -0.026  11.703  18.311  0.00  0.00    +0.000 HD
ENDROOT
BRANCH   1  16
ATOM     14  C   UNL     1       3.475   6.464  18.324  0.00  0.00    +0.000 C 
ATOM     15  O   UNL     1       3.654   5.949  19.423  0.00  0.00    +0.000 OA
ATOM     16  N   UNL     1       2.632   7.533  18.049  0.00  0.00    +0.000 N 
ATOM     17  H   UNL     1       2.427   7.733  17.078  0.00  0.00    +0.000 HD
BRANCH  14  22
ATOM     18  C   UNL     1       6.415   3.790  14.118  0.00  0.00    +0.000 C 
ATOM     19  C   UNL     1       5.626   4.504  15.175  0.00  0.00    +0.000 A 
ATOM     20  C   UNL     1       4.912   3.776  16.131  0.00  0.00    +0.000 A 
ATOM     21  C   UNL     1       4.198   4.442  17.126  0.00  0.00    +0.000 A 
ATOM     22  C   UNL     1       4.177   5.841  17.175  0.00  0.00    +0.000 A 
ATOM     23  C   UNL     1       4.886   6.580  16.223  0.00  0.00    +0.000 A 
ATOM     24  C   UNL     1       5.608   5.906  15.226  0.00  0.00    +0.000 A 
ENDBRANCH  14  22
ENDBRANCH   1  16
TORSDOF 2
ENDMDL
MODEL 8
REMARK VINA RESULT:      -8.0      1.845      8.253
REMARK  Name = 
REMARK  4 active torsions:
REMARK  status: ('A' for Active; 'I' for Inactive)
REMARK    1  A    between atoms: C_1  and  C_2
REMARK    2  A    between atoms: C_5  and  C_6
REMARK    3  A    between atoms: N_8  and  C_9
REMARK    4  A    between atoms: C_13  and  C_14
REMARK                            x       y       z     vdW  Elec       q    Type
REMARK                         _______ _______ _______ _____ _____    ______ ____
ROOT
ATOM      1  C   UNL     1       2.470   7.544  18.752  0.00  0.00    +0.000 A 
ATOM      2  C   UNL     1       3.341   7.865  17.709  0.00  0.00    +0.000 A 
ATOM      3  C   UNL     1       4.061   6.881  17.027  0.00  0.00    +0.000 A 
ATOM      4  C   UNL     1       3.946   5.536  17.374  0.00  0.00    +0.000 A 
ATOM      5  C   UNL     1       4.702   4.457  16.700  0.00  0.00    +0.000 A 
ATOM      6  C   UNL     1       5.736   4.739  15.646  0.00  0.00    +0.000 C 
ATOM      7  C   UNL     1       4.468   3.185  17.067  0.00  0.00    +0.000 A 
ATOM      8  C   UNL     1       3.498   2.828  18.123  0.00  0.00    +0.000 A 
ATOM      9  O   UNL     1       3.286   1.654  18.410  0.00  0.00    +0.000 OA
ATOM     10  N   UNL     1       2.873   3.862  18.761  0.00  0.00    +0.000 N 
ATOM     11  C   UNL     1       3.063   5.210  18.421  0.00  0.00    +0.000 A 
ATOM     12  C   UNL     1       2.346   6.200  19.119  0.00  0.00    +0.000 A 
ATOM     13  H   UNL     1       2.220   3.598  19.485  0.00  0.00    +0.000 HD
ENDROOT
BRANCH   1  16
ATOM     14  C   UNL     1       1.235   8.383  20.735  0.00  0.00    +0.000 C 
ATOM     15  O   UNL     1       1.440   7.432  21.482  0.00  0.00    +0.000 OA
ATOM     16  N   UNL     1       1.714   8.525  19.440  0.00  0.00    +0.000 N 
ATOM     17  H   UNL     1       1.638   9.436  19.006  0.00  0.00    +0.000 HD
BRANCH  14  22
ATOM     18  C   UNL     1      -2.103  12.520  23.023  0.00  0.00    +0.000 C 
ATOM     19  C   UNL     1      -1.202  11.479  22.428  0.00  0.00    +0.000 A 
ATOM     20  C   UNL     1      -0.909  10.312  23.139  0.00  0.00    +0.000 A 
ATOM     21  C   UNL     1      -0.090   9.336  22.574  0.00  0.00    +0.000 A 
ATOM     22  C   UNL     1       0.457   9.514  21.298  0.00  0.00    +0.000 A 
ATOM     23  C   UNL     1       0.173  10.678  20.577  0.00  0.00    +0.000 A 
ATOM     24  C   UNL     1      -0.656  11.656  21.147  0.00  0.00    +0.000 A 
ENDBRANCH  14  22
ENDBRANCH   1  16
TORSDOF 2
ENDMDL
MODEL 9
REMARK VINA RESULT:      -8.0      1.797      8.162
REMARK  Name = 
REMARK  4 active torsions:
REMARK  status: ('A' for Active; 'I' for Inactive)
REMARK    1  A    between atoms: C_1  and  C_2
REMARK    2  A    between atoms: C_5  and  C_6
REMARK    3  A    between atoms: N_8  and  C_9
REMARK    4  A    between atoms: C_13  and  C_14
REMARK                            x       y       z     vdW  Elec       q    Type
REMARK                         _______ _______ _______ _____ _____    ______ ____
ROOT
ATOM      1  C   UNL     1       2.053   8.047  19.050  0.00  0.00    +0.000 A 
ATOM      2  C   UNL     1       2.602   8.295  17.790  0.00  0.00    +0.000 A 
ATOM      3  C   UNL     1       3.498   7.405  17.193  0.00  0.00    +0.000 A 
ATOM      4  C   UNL     1       3.890   6.236  17.843  0.00  0.00    +0.000 A 
ATOM      5  C   UNL     1       4.852   5.271  17.265  0.00  0.00    +0.000 A 
ATOM      6  C   UNL     1       5.563   5.527  15.967  0.00  0.00    +0.000 C 
ATOM      7  C   UNL     1       5.112   4.141  17.946  0.00  0.00    +0.000 A 
ATOM      8  C   UNL     1       4.485   3.835  19.249  0.00  0.00    +0.000 A 
ATOM      9  O   UNL     1       4.721   2.779  19.826  0.00  0.00    +0.000 OA
ATOM     10  N   UNL     1       3.654   4.786  19.771  0.00  0.00    +0.000 N 
ATOM     11  C   UNL     1       3.332   5.980  19.110  0.00  0.00    +0.000 A 
ATOM     12  C   UNL     1       2.440   6.881  19.720  0.00  0.00    +0.000 A 
ATOM     13  H   UNL     1       3.242   4.561  20.665  0.00  0.00    +0.000 HD
ENDROOT
BRANCH   1  16
ATOM     14  C   UNL     1       0.881   8.985  21.027  0.00  0.00    +0.000 C 
ATOM     15  O   UNL     1       1.461   8.340  21.894  0.00  0.00    +0.000 OA
ATOM     16  N   UNL     1       1.126   8.925  19.662  0.00  0.00    +0.000 N 
ATOM     17  H   UNL     1       0.719   9.646  19.078  0.00  0.00    +0.000 HD
BRANCH  14  22
ATOM     18  C   UNL     1      -2.831  13.111  22.666  0.00  0.00    +0.000 C 
ATOM     19  C   UNL     1      -1.900  12.009  22.255  0.00  0.00    +0.000 A 
ATOM     20  C   UNL     1      -1.505  11.882  20.921  0.00  0.00    +0.000 A 
ATOM     21  C   UNL     1      -0.622  10.872  20.546  0.00  0.00    +0.000 A 
ATOM     22  C   UNL     1      -0.129   9.966  21.493  0.00  0.00    +0.000 A 
ATOM     23  C   UNL     1      -0.519  10.081  22.832  0.00  0.00    +0.000 A 
ATOM     24  C   UNL     1      -1.404  11.103  23.206  0.00  0.00    +0.000 A 
ENDBRANCH  14  22
ENDBRANCH   1  16
TORSDOF 2
ENDMDL
