MODEL 1
REMARK VINA RESULT:      -7.4      0.000      0.000
REMARK  Name = 
REMARK  11 active torsions:
REMARK  status: ('A' for Active; 'I' for Inactive)
REMARK    1  A    between atoms: C_2  and  C_4
REMARK    2  A    between atoms: C_7  and  C_8
REMARK    3  A    between atoms: C_8  and  N_9
REMARK    4  A    between atoms: C_10  and  C_12
REMARK    5  A    between atoms: C_17  and  C_19
REMARK    6  A    between atoms: C_19  and  C_20
REMARK    7  A    between atoms: C_19  and  N_22
REMARK    8  A    between atoms: C_20  and  O_21
REMARK    9  A    between atoms: N_22  and  S_23
REMARK   10  A    between atoms: S_23  and  C_26
REMARK   11  A    between atoms: C_26  and  C_27
REMARK                            x       y       z     vdW  Elec       q    Type
REMARK                         _______ _______ _______ _____ _____    ______ ____
ROOT
ATOM      1  C   UNL     1       1.569   9.489  19.530  0.00  0.00    +0.000 C 
ATOM      2  C   UNL     1       1.369   9.851  18.058  0.00  0.00    +0.000 C 
ATOM      3  C   UNL     1      -0.111   9.546  17.825  0.00  0.00    +0.000 C 
ATOM      4  C   UNL     1      -0.777   9.808  19.172  0.00  0.00    +0.000 C 
ATOM      5  N   UNL     1       0.316   9.977  20.119  0.00  0.00    +0.000 N 
ATOM      6  C   UNL     1       0.288  10.662  21.316  0.00  0.00    +0.000 C 
ATOM      7  O   UNL     1       1.247  10.584  22.093  0.00  0.00    +0.000 OA
ENDROOT
BRANCH   1   9
ATOM      8  N   UNL     1       2.457   7.366  18.636  0.00  0.00    +0.000 N 
ATOM      9  C   UNL     1       1.799   7.964  19.683  0.00  0.00    +0.000 C 
ATOM     10  O   UNL     1       1.407   7.324  20.651  0.00  0.00    +0.000 OA
ATOM     11  H   UNL     1       2.658   7.911  17.804  0.00  0.00    +0.000 HD
BRANCH   8  12
ATOM     12  C   UNL     1       2.687   5.936  18.627  0.00  0.00    +0.000 C 
BRANCH  12  16
ATOM     13  C   UNL     1       5.597   4.963  15.611  0.00  0.00    +0.000 A 
ATOM     14  C   UNL     1       5.412   6.289  16.008  0.00  0.00    +0.000 A 
ATOM     15  C   UNL     1       4.474   6.594  16.992  0.00  0.00    +0.000 A 
ATOM     16  C   UNL     1       3.712   5.578  17.589  0.00  0.00    +0.000 A 
ATOM     17  C   UNL     1       3.929   4.246  17.214  0.00  0.00    +0.000 A 
ATOM     18  C   UNL     1       4.867   3.939  16.225  0.00  0.00    +0.000 A 
BRANCH  13  20
ATOM     19  N   UNL     1       7.594   5.420  14.353  0.00  0.00    +0.000 NA
ATOM     20  C   UNL     1       6.568   4.655  14.526  0.00  0.00    +0.000 C 
ATOM     21  N   UNL     1       6.356   3.587  13.702  0.00  0.00    +0.000 N 
ATOM     22  H   UNL     1       8.176   5.051  13.599  0.00  0.00    +0.000 HD
ATOM     23  H   UNL     1       6.822   3.633  12.804  0.00  0.00    +0.000 HD
ATOM     24  H   UNL     1       5.384   3.308  13.597  0.00  0.00    +0.000 HD
ENDBRANCH  13  20
ENDBRANCH  12  16
ENDBRANCH   8  12
ENDBRANCH   1   9
BRANCH   6  25
ATOM     25  C   UNL     1      -0.910  11.593  21.642  0.00  0.00    +0.000 C 
BRANCH  25  26
ATOM     26  N   UNL     1      -0.574  13.038  21.259  0.00  0.00    +0.000 NA
ATOM     27  H   UNL     1       0.411  13.045  20.981  0.00  0.00    +0.000 HD
BRANCH  26  28
ATOM     28  S   UNL     1      -1.505  13.654  19.969  0.00  0.00    +0.000 S 
ATOM     29  O   UNL     1      -2.626  12.750  19.849  0.00  0.00    +0.000 OA
ATOM     30  O   UNL     1      -1.672  15.066  20.251  0.00  0.00    +0.000 OA
BRANCH  28  31
ATOM     31  C   UNL     1      -0.445  13.469  18.520  0.00  0.00    +0.000 C 
BRANCH  31  32
ATOM     32  C   UNL     1       0.884  14.120  18.842  0.00  0.00    +0.000 A 
ATOM     33  C   UNL     1       1.981  13.339  19.241  0.00  0.00    +0.000 A 
ATOM     34  C   UNL     1       3.193  13.938  19.595  0.00  0.00    +0.000 A 
ATOM     35  C   UNL     1       3.328  15.324  19.550  0.00  0.00    +0.000 A 
ATOM     36  C   UNL     1       2.248  16.111  19.159  0.00  0.00    +0.000 A 
ATOM     37  C   UNL     1       1.033  15.515  18.806  0.00  0.00    +0.000 A 
ENDBRANCH  31  32
ENDBRANCH  28  31
ENDBRANCH  26  28
ENDBRANCH  25  26
BRANCH  25  38
ATOM     38  C   UNL     1      -1.354  11.342  23.103  0.00  0.00    +0.000 C 
BRANCH  38  39
ATOM     39  O   UNL     1      -0.921  10.096  23.639  0.00  0.00    +0.000 OA
ATOM     40  H   UNL     1       0.003  10.223  23.944  0.00  0.00    +0.000 HD
ENDBRANCH  38  39
ENDBRANCH  25  38
ENDBRANCH   6  25
TORSDOF 11
ENDMDL
MODEL 2
REMARK VINA RESULT:      -7.1      0.775      1.386
REMARK  Name = 
REMARK  11 active torsions:
REMARK  status: ('A' for Active; 'I' for Inactive)
REMARK    1  A    between atoms: C_2  and  C_4
REMARK    2  A    between atoms: C_7  and  C_8
REMARK    3  A    between atoms: C_8  and  N_9
REMARK    4  A    between atoms: C_10  and  C_12
REMARK    5  A    between atoms: C_17  and  C_19
REMARK    6  A    between atoms: C_19  and  C_20
REMARK    7  A    between atoms: C_19  and  N_22
REMARK    8  A    between atoms: C_20  and  O_21
REMARK    9  A    between atoms: N_22  and  S_23
REMARK   10  A    between atoms: S_23  and  C_26
REMARK   11  A    between atoms: C_26  and  C_27
REMARK                            x       y       z     vdW  Elec       q    Type
REMARK                         _______ _______ _______ _____ _____    ______ ____
ROOT
ATOM      1  C   UNL     1       1.591   9.569  19.551  0.00  0.00    +0.000 C 
ATOM      2  C   UNL     1       1.379   9.940  18.083  0.00  0.00    +0.000 C 
ATOM      3  C   UNL     1      -0.103   9.640  17.862  0.00  0.00    +0.000 C 
ATOM      4  C   UNL     1      -0.757   9.895  19.215  0.00  0.00    +0.000 C 
ATOM      5  N   UNL     1       0.344  10.057  20.154  0.00  0.00    +0.000 N 
ATOM      6  C   UNL     1       0.328  10.734  21.355  0.00  0.00    +0.000 C 
ATOM      7  O   UNL     1       1.294  10.649  22.124  0.00  0.00    +0.000 OA
ENDROOT
BRANCH   1   9
ATOM      8  N   UNL     1       2.530   7.462  18.671  0.00  0.00    +0.000 N 
ATOM      9  C   UNL     1       1.819   8.043  19.693  0.00  0.00    +0.000 C 
ATOM     10  O   UNL     1       1.383   7.387  20.631  0.00  0.00    +0.000 OA
ATOM     11  H   UNL     1       2.769   8.019  17.858  0.00  0.00    +0.000 HD
BRANCH   8  12
ATOM     12  C   UNL     1       2.766   6.033  18.653  0.00  0.00    +0.000 C 
BRANCH  12  16
ATOM     13  C   UNL     1       5.547   4.961  15.550  0.00  0.00    +0.000 A 
ATOM     14  C   UNL     1       4.889   3.968  16.278  0.00  0.00    +0.000 A 
ATOM     15  C   UNL     1       3.983   4.324  17.275  0.00  0.00    +0.000 A 
ATOM     16  C   UNL     1       3.726   5.675  17.554  0.00  0.00    +0.000 A 
ATOM     17  C   UNL     1       4.360   6.666  16.794  0.00  0.00    +0.000 A 
ATOM     18  C   UNL     1       5.271   6.311  15.797  0.00  0.00    +0.000 A 
BRANCH  13  20
ATOM     19  N   UNL     1       6.375   3.480  13.847  0.00  0.00    +0.000 NA
ATOM     20  C   UNL     1       6.547   4.569  14.520  0.00  0.00    +0.000 C 
ATOM     21  N   UNL     1       7.654   5.342  14.313  0.00  0.00    +0.000 N 
ATOM     22  H   UNL     1       7.125   3.377  13.161  0.00  0.00    +0.000 HD
ATOM     23  H   UNL     1       8.440   4.868  13.885  0.00  0.00    +0.000 HD
ATOM     24  H   UNL     1       7.949   5.896  15.112  0.00  0.00    +0.000 HD
ENDBRANCH  13  20
ENDBRANCH  12  16
ENDBRANCH   8  12
ENDBRANCH   1   9
BRANCH   6  25
ATOM     25  C   UNL     1      -0.865  11.666  21.697  0.00  0.00    +0.000 C 
BRANCH  25  26
ATOM     26  N   UNL     1      -0.438  13.133  21.581  0.00  0.00    +0.000 NA
ATOM     27  H   UNL     1       0.250  13.178  20.824  0.00  0.00    +0.000 HD
BRANCH  26  28
ATOM     28  S   UNL     1      -1.715  14.205  21.216  0.00  0.00    +0.000 S 
ATOM     29  O   UNL     1      -2.701  13.398  20.535  0.00  0.00    +0.000 OA
ATOM     30  O   UNL     1      -2.001  14.902  22.454  0.00  0.00    +0.000 OA
BRANCH  28  31
ATOM     31  C   UNL     1      -1.000  15.373  20.040  0.00  0.00    +0.000 C 
BRANCH  31  32
ATOM     32  C   UNL     1       0.353  14.832  19.626  0.00  0.00    +0.000 A 
ATOM     33  C   UNL     1       0.449  13.821  18.656  0.00  0.00    +0.000 A 
ATOM     34  C   UNL     1       1.689  13.277  18.311  0.00  0.00    +0.000 A 
ATOM     35  C   UNL     1       2.851  13.739  18.927  0.00  0.00    +0.000 A 
ATOM     36  C   UNL     1       2.771  14.738  19.892  0.00  0.00    +0.000 A 
ATOM     37  C   UNL     1       1.531  15.284  20.241  0.00  0.00    +0.000 A 
ENDBRANCH  31  32
ENDBRANCH  28  31
ENDBRANCH  26  28
ENDBRANCH  25  26
BRANCH  25  38
ATOM     38  C   UNL     1      -1.475  11.220  23.047  0.00  0.00    +0.000 C 
BRANCH  38  39
ATOM     39  O   UNL     1      -1.087   9.913  23.460  0.00  0.00    +0.000 OA
ATOM     40  H   UNL     1      -1.435   9.787  24.369  0.00  0.00    +0.000 HD
ENDBRANCH  38  39
ENDBRANCH  25  38
ENDBRANCH   6  25
TORSDOF 11
ENDMDL
MODEL 3
REMARK VINA RESULT:      -7.1      3.605     10.451
REMARK  Name = 
REMARK  11 active torsions:
REMARK  status: ('A' for Active; 'I' for Inactive)
REMARK    1  A    between atoms: C_2  and  C_4
REMARK    2  A    between atoms: C_7  and  C_8
REMARK    3  A    between atoms: C_8  and  N_9
REMARK    4  A    between atoms: C_10  and  C_12
REMARK    5  A    between atoms: C_17  and  C_19
REMARK    6  A    between atoms: C_19  and  C_20
REMARK    7  A    between atoms: C_19  and  N_22
REMARK    8  A    between atoms: C_20  and  O_21
REMARK    9  A    between atoms: N_22  and  S_23
REMARK   10  A    between atoms: S_23  and  C_26
REMARK   11  A    between atoms: C_26  and  C_27
REMARK                            x       y       z     vdW  Elec       q    Type
REMARK                         _______ _______ _______ _____ _____    ______ ____
ROOT
ATOM      1  C   UNL     1       0.963  10.566  19.222  0.00  0.00    +0.000 C 
ATOM      2  C   UNL     1       1.231  11.120  20.621  0.00  0.00    +0.000 C 
ATOM      3  C   UNL     1       0.735  10.001  21.536  0.00  0.00    +0.000 C 
ATOM      4  C   UNL     1       0.973   8.719  20.745  0.00  0.00    +0.000 C 
ATOM      5  N   UNL     1       1.319   9.152  19.399  0.00  0.00    +0.000 N 
ATOM      6  C   UNL     1       2.049   8.457  18.457  0.00  0.00    +0.000 C 
ATOM      7  O   UNL     1       2.125   8.884  17.299  0.00  0.00    +0.000 OA
ENDROOT
BRANCH   1   9
ATOM      8  N   UNL     1      -1.048  11.997  19.258  0.00  0.00    +0.000 N 
ATOM      9  C   UNL     1      -0.513  10.810  18.818  0.00  0.00    +0.000 C 
ATOM     10  O   UNL     1      -1.172  10.003  18.174  0.00  0.00    +0.000 OA
ATOM     11  H   UNL     1      -0.506  12.580  19.886  0.00  0.00    +0.000 HD
BRANCH   8  12
ATOM     12  C   UNL     1      -2.435  12.324  18.997  0.00  0.00    +0.000 C 
BRANCH  12  16
ATOM     13  C   UNL     1      -4.510  12.881  22.725  0.00  0.00    +0.000 A 
ATOM     14  C   UNL     1      -3.116  12.794  22.702  0.00  0.00    +0.000 A 
ATOM     15  C   UNL     1      -2.452  12.622  21.490  0.00  0.00    +0.000 A 
ATOM     16  C   UNL     1      -3.173  12.537  20.288  0.00  0.00    +0.000 A 
ATOM     17  C   UNL     1      -4.567  12.664  20.314  0.00  0.00    +0.000 A 
ATOM     18  C   UNL     1      -5.235  12.833  21.529  0.00  0.00    +0.000 A 
BRANCH  13  20
ATOM     19  N   UNL     1      -5.203  12.030  24.864  0.00  0.00    +0.000 NA
ATOM     20  C   UNL     1      -5.211  13.017  24.030  0.00  0.00    +0.000 C 
ATOM     21  N   UNL     1      -5.883  14.168  24.329  0.00  0.00    +0.000 N 
ATOM     22  H   UNL     1      -5.693  12.297  25.719  0.00  0.00    +0.000 HD
ATOM     23  H   UNL     1      -6.606  14.078  25.032  0.00  0.00    +0.000 HD
ATOM     24  H   UNL     1      -6.214  14.695  23.526  0.00  0.00    +0.000 HD
ENDBRANCH  13  20
ENDBRANCH  12  16
ENDBRANCH   8  12
ENDBRANCH   1   9
BRANCH   6  25
ATOM     25  C   UNL     1       2.838   7.189  18.878  0.00  0.00    +0.000 C 
BRANCH  25  26
ATOM     26  N   UNL     1       3.492   6.544  17.653  0.00  0.00    +0.000 NA
ATOM     27  H   UNL     1       3.599   7.286  16.954  0.00  0.00    +0.000 HD
BRANCH  26  28
ATOM     28  S   UNL     1       5.027   5.864  17.956  0.00  0.00    +0.000 S 
ATOM     29  O   UNL     1       5.947   6.643  17.160  0.00  0.00    +0.000 OA
ATOM     30  O   UNL     1       5.132   5.773  19.399  0.00  0.00    +0.000 OA
BRANCH  28  31
ATOM     31  C   UNL     1       4.925   4.197  17.271  0.00  0.00    +0.000 C 
BRANCH  31  32
ATOM     32  C   UNL     1       3.813   3.472  18.001  0.00  0.00    +0.000 A 
ATOM     33  C   UNL     1       2.502   3.491  17.498  0.00  0.00    +0.000 A 
ATOM     34  C   UNL     1       1.461   2.874  18.196  0.00  0.00    +0.000 A 
ATOM     35  C   UNL     1       1.715   2.225  19.403  0.00  0.00    +0.000 A 
ATOM     36  C   UNL     1       3.010   2.200  19.915  0.00  0.00    +0.000 A 
ATOM     37  C   UNL     1       4.054   2.819  19.219  0.00  0.00    +0.000 A 
ENDBRANCH  31  32
ENDBRANCH  28  31
ENDBRANCH  26  28
ENDBRANCH  25  26
BRANCH  25  38
ATOM     38  C   UNL     1       1.915   6.288  19.733  0.00  0.00    +0.000 C 
BRANCH  38  39
ATOM     39  O   UNL     1       2.574   5.632  20.811  0.00  0.00    +0.000 OA
ATOM     40  H   UNL     1       3.413   6.116  20.969  0.00  0.00    +0.000 HD
ENDBRANCH  38  39
ENDBRANCH  25  38
ENDBRANCH   6  25
TORSDOF 11
ENDMDL
MODEL 4
REMARK VINA RESULT:      -7.1      3.376      5.088
REMARK  Name = 
REMARK  11 active torsions:
REMARK  status: ('A' for Active; 'I' for Inactive)
REMARK    1  A    between atoms: C_2  and  C_4
REMARK    2  A    between atoms: C_7  and  C_8
REMARK    3  A    between atoms: C_8  and  N_9
REMARK    4  A    between atoms: C_10  and  C_12
REMARK    5  A    between atoms: C_17  and  C_19
REMARK    6  A    between atoms: C_19  and  C_20
REMARK    7  A    between atoms: C_19  and  N_22
REMARK    8  A    between atoms: C_20  and  O_21
REMARK    9  A    between atoms: N_22  and  S_23
REMARK   10  A    between atoms: S_23  and  C_26
REMARK   11  A    between atoms: C_26  and  C_27
REMARK                            x       y       z     vdW  Elec       q    Type
REMARK                         _______ _______ _______ _____ _____    ______ ____
ROOT
ATOM      1  C   UNL     1      -0.088  10.066  19.486  0.00  0.00    +0.000 C 
ATOM      2  C   UNL     1      -0.080   9.234  20.768  0.00  0.00    +0.000 C 
ATOM      3  C   UNL     1       0.709  10.109  21.742  0.00  0.00    +0.000 C 
ATOM      4  C   UNL     1       0.413  11.539  21.305  0.00  0.00    +0.000 C 
ATOM      5  N   UNL     1      -0.267  11.421  20.023  0.00  0.00    +0.000 N 
ATOM      6  C   UNL     1      -1.127  12.331  19.444  0.00  0.00    +0.000 C 
ATOM      7  O   UNL     1      -1.501  12.168  18.277  0.00  0.00    +0.000 OA
ENDROOT
BRANCH   1   9
ATOM      8  N   UNL     1       1.644   8.551  18.592  0.00  0.00    +0.000 N 
ATOM      9  C   UNL     1       1.229   9.857  18.698  0.00  0.00    +0.000 C 
ATOM     10  O   UNL     1       1.876  10.781  18.220  0.00  0.00    +0.000 OA
ATOM     11  H   UNL     1       1.143   7.832  19.103  0.00  0.00    +0.000 HD
BRANCH   8  12
ATOM     12  C   UNL     1       2.889   8.222  17.929  0.00  0.00    +0.000 C 
BRANCH  12  16
ATOM     13  C   UNL     1       3.853   4.079  18.575  0.00  0.00    +0.000 A 
ATOM     14  C   UNL     1       3.011   4.752  19.462  0.00  0.00    +0.000 A 
ATOM     15  C   UNL     1       2.698   6.091  19.241  0.00  0.00    +0.000 A 
ATOM     16  C   UNL     1       3.220   6.771  18.130  0.00  0.00    +0.000 A 
ATOM     17  C   UNL     1       4.033   6.080  17.222  0.00  0.00    +0.000 A 
ATOM     18  C   UNL     1       4.351   4.738  17.445  0.00  0.00    +0.000 A 
BRANCH  13  20
ATOM     19  N   UNL     1       3.880   1.744  18.005  0.00  0.00    +0.000 NA
ATOM     20  C   UNL     1       4.219   2.663  18.847  0.00  0.00    +0.000 C 
ATOM     21  N   UNL     1       4.882   2.336  19.996  0.00  0.00    +0.000 N 
ATOM     22  H   UNL     1       4.236   0.839  18.319  0.00  0.00    +0.000 HD
ATOM     23  H   UNL     1       4.790   1.372  20.291  0.00  0.00    +0.000 HD
ATOM     24  H   UNL     1       4.738   2.974  20.773  0.00  0.00    +0.000 HD
ENDBRANCH  13  20
ENDBRANCH  12  16
ENDBRANCH   8  12
ENDBRANCH   1   9
BRANCH   6  25
ATOM     25  C   UNL     1      -1.683  13.508  20.289  0.00  0.00    +0.000 C 
BRANCH  25  26
ATOM     26  N   UNL     1      -3.206  13.588  20.142  0.00  0.00    +0.000 NA
ATOM     27  H   UNL     1      -3.472  12.870  19.462  0.00  0.00    +0.000 HD
BRANCH  26  28
ATOM     28  S   UNL     1      -4.064  13.305  21.590  0.00  0.00    +0.000 S 
ATOM     29  O   UNL     1      -3.218  12.424  22.361  0.00  0.00    +0.000 OA
ATOM     30  O   UNL     1      -4.461  14.614  22.067  0.00  0.00    +0.000 OA
BRANCH  28  31
ATOM     31  C   UNL     1      -5.536  12.399  21.072  0.00  0.00    +0.000 C 
BRANCH  31  32
ATOM     32  C   UNL     1      -5.834  12.794  19.640  0.00  0.00    +0.000 A 
ATOM     33  C   UNL     1      -6.549  13.970  19.361  0.00  0.00    +0.000 A 
ATOM     34  C   UNL     1      -6.877  14.311  18.046  0.00  0.00    +0.000 A 
ATOM     35  C   UNL     1      -6.491  13.485  16.992  0.00  0.00    +0.000 A 
ATOM     36  C   UNL     1      -5.785  12.314  17.254  0.00  0.00    +0.000 A 
ATOM     37  C   UNL     1      -5.457  11.969  18.570  0.00  0.00    +0.000 A 
ENDBRANCH  31  32
ENDBRANCH  28  31
ENDBRANCH  26  28
ENDBRANCH  25  26
BRANCH  25  38
ATOM     38  C   UNL     1      -0.881  14.787  19.951  0.00  0.00    +0.000 C 
BRANCH  38  39
ATOM     39  O   UNL     1      -0.550  14.922  18.572  0.00  0.00    +0.000 OA
ATOM     40  H   UNL     1      -0.939  15.770  18.268  0.00  0.00    +0.000 HD
ENDBRANCH  38  39
ENDBRANCH  25  38
ENDBRANCH   6  25
TORSDOF 11
ENDMDL
MODEL 5
REMARK VINA RESULT:      -7.1      3.444      5.302
REMARK  Name = 
REMARK  11 active torsions:
REMARK  status: ('A' for Active; 'I' for Inactive)
REMARK    1  A    between atoms: C_2  and  C_4
REMARK    2  A    between atoms: C_7  and  C_8
REMARK    3  A    between atoms: C_8  and  N_9
REMARK    4  A    between atoms: C_10  and  C_12
REMARK    5  A    between atoms: C_17  and  C_19
REMARK    6  A    between atoms: C_19  and  C_20
REMARK    7  A    between atoms: C_19  and  N_22
REMARK    8  A    between atoms: C_20  and  O_21
REMARK    9  A    between atoms: N_22  and  S_23
REMARK   10  A    between atoms: S_23  and  C_26
REMARK   11  A    between atoms: C_26  and  C_27
REMARK                            x       y       z     vdW  Elec       q    Type
REMARK                         _______ _______ _______ _____ _____    ______ ____
ROOT
ATOM      1  C   UNL     1       0.019   9.773  19.466  0.00  0.00    +0.000 C 
ATOM      2  C   UNL     1       0.031   9.019  20.796  0.00  0.00    +0.000 C 
ATOM      3  C   UNL     1       0.833   9.945  21.711  0.00  0.00    +0.000 C 
ATOM      4  C   UNL     1       0.543  11.349  21.191  0.00  0.00    +0.000 C 
ATOM      5  N   UNL     1      -0.147  11.159  19.923  0.00  0.00    +0.000 N 
ATOM      6  C   UNL     1      -1.005  12.039  19.297  0.00  0.00    +0.000 C 
ATOM      7  O   UNL     1      -1.390  11.809  18.144  0.00  0.00    +0.000 OA
ENDROOT
BRANCH   1   9
ATOM      8  N   UNL     1       1.720   8.192  18.630  0.00  0.00    +0.000 N 
ATOM      9  C   UNL     1       1.329   9.508  18.683  0.00  0.00    +0.000 C 
ATOM     10  O   UNL     1       1.989  10.401  18.165  0.00  0.00    +0.000 OA
ATOM     11  H   UNL     1       1.209   7.504  19.172  0.00  0.00    +0.000 HD
BRANCH   8  12
ATOM     12  C   UNL     1       2.957   7.814  17.977  0.00  0.00    +0.000 C 
BRANCH  12  16
ATOM     13  C   UNL     1       3.913   3.705  18.821  0.00  0.00    +0.000 A 
ATOM     14  C   UNL     1       4.266   4.272  17.595  0.00  0.00    +0.000 A 
ATOM     15  C   UNL     1       3.960   5.605  17.333  0.00  0.00    +0.000 A 
ATOM     16  C   UNL     1       3.300   6.387  18.294  0.00  0.00    +0.000 A 
ATOM     17  C   UNL     1       2.983   5.823  19.537  0.00  0.00    +0.000 A 
ATOM     18  C   UNL     1       3.286   4.485  19.799  0.00  0.00    +0.000 A 
BRANCH  13  20
ATOM     19  N   UNL     1       4.938   1.931  20.078  0.00  0.00    +0.000 NA
ATOM     20  C   UNL     1       4.202   2.267  19.070  0.00  0.00    +0.000 C 
ATOM     21  N   UNL     1       3.717   1.314  18.221  0.00  0.00    +0.000 N 
ATOM     22  H   UNL     1       5.009   0.913  20.129  0.00  0.00    +0.000 HD
ATOM     23  H   UNL     1       4.217   0.434  18.226  0.00  0.00    +0.000 HD
ATOM     24  H   UNL     1       3.541   1.631  17.272  0.00  0.00    +0.000 HD
ENDBRANCH  13  20
ENDBRANCH  12  16
ENDBRANCH   8  12
ENDBRANCH   1   9
BRANCH   6  25
ATOM     25  C   UNL     1      -1.548  13.268  20.074  0.00  0.00    +0.000 C 
BRANCH  25  26
ATOM     26  N   UNL     1      -3.058  13.403  19.857  0.00  0.00    +0.000 NA
ATOM     27  H   UNL     1      -3.369  12.536  19.409  0.00  0.00    +0.000 HD
BRANCH  26  28
ATOM     28  S   UNL     1      -3.954  13.618  21.294  0.00  0.00    +0.000 S 
ATOM     29  O   UNL     1      -3.850  12.359  21.994  0.00  0.00    +0.000 OA
ATOM     30  O   UNL     1      -3.481  14.865  21.862  0.00  0.00    +0.000 OA
BRANCH  28  31
ATOM     31  C   UNL     1      -5.656  13.840  20.735  0.00  0.00    +0.000 C 
BRANCH  31  32
ATOM     32  C   UNL     1      -6.159  12.491  20.262  0.00  0.00    +0.000 A 
ATOM     33  C   UNL     1      -5.801  12.003  18.995  0.00  0.00    +0.000 A 
ATOM     34  C   UNL     1      -6.307  10.787  18.529  0.00  0.00    +0.000 A 
ATOM     35  C   UNL     1      -7.175  10.040  19.324  0.00  0.00    +0.000 A 
ATOM     36  C   UNL     1      -7.542  10.513  20.581  0.00  0.00    +0.000 A 
ATOM     37  C   UNL     1      -7.037  11.731  21.049  0.00  0.00    +0.000 A 
ENDBRANCH  31  32
ENDBRANCH  28  31
ENDBRANCH  26  28
ENDBRANCH  25  26
BRANCH  25  38
ATOM     38  C   UNL     1      -0.679  14.500  19.726  0.00  0.00    +0.000 C 
BRANCH  38  39
ATOM     39  O   UNL     1      -0.533  15.432  20.793  0.00  0.00    +0.000 OA
ATOM     40  H   UNL     1      -0.217  16.272  20.396  0.00  0.00    +0.000 HD
ENDBRANCH  38  39
ENDBRANCH  25  38
ENDBRANCH   6  25
TORSDOF 11
ENDMDL
MODEL 6
REMARK VINA RESULT:      -7.0      4.635     10.052
REMARK  Name = 
REMARK  11 active torsions:
REMARK  status: ('A' for Active; 'I' for Inactive)
REMARK    1  A    between atoms: C_2  and  C_4
REMARK    2  A    between atoms: C_7  and  C_8
REMARK    3  A    between atoms: C_8  and  N_9
REMARK    4  A    between atoms: C_10  and  C_12
REMARK    5  A    between atoms: C_17  and  C_19
REMARK    6  A    between atoms: C_19  and  C_20
REMARK    7  A    between atoms: C_19  and  N_22
REMARK    8  A    between atoms: C_20  and  O_21
REMARK    9  A    between atoms: N_22  and  S_23
REMARK   10  A    between atoms: S_23  and  C_26
REMARK   11  A    between atoms: C_26  and  C_27
REMARK                            x       y       z     vdW  Elec       q    Type
REMARK                         _______ _______ _______ _____ _____    ______ ____
ROOT
ATOM      1  C   UNL     1       4.364   3.925  19.189  0.00  0.00    +0.000 C 
ATOM      2  C   UNL     1       3.795   2.991  18.120  0.00  0.00    +0.000 C 
ATOM      3  C   UNL     1       3.210   3.960  17.092  0.00  0.00    +0.000 C 
ATOM      4  C   UNL     1       4.093   5.200  17.181  0.00  0.00    +0.000 C 
ATOM      5  N   UNL     1       4.920   5.004  18.363  0.00  0.00    +0.000 N 
ATOM      6  C   UNL     1       6.151   5.568  18.626  0.00  0.00    +0.000 C 
ATOM      7  O   UNL     1       6.661   5.436  19.745  0.00  0.00    +0.000 OA
ENDROOT
BRANCH   1   9
ATOM      8  N   UNL     1       2.932   5.710  20.114  0.00  0.00    +0.000 N 
ATOM      9  C   UNL     1       3.245   4.373  20.163  0.00  0.00    +0.000 C 
ATOM     10  O   UNL     1       2.690   3.607  20.940  0.00  0.00    +0.000 OA
ATOM     11  H   UNL     1       3.497   6.329  19.542  0.00  0.00    +0.000 HD
BRANCH   8  12
ATOM     12  C   UNL     1       1.943   6.271  21.012  0.00  0.00    +0.000 C 
BRANCH  12  16
ATOM     13  C   UNL     1       0.580  10.106  19.617  0.00  0.00    +0.000 A 
ATOM     14  C   UNL     1       0.223   9.653  20.888  0.00  0.00    +0.000 A 
ATOM     15  C   UNL     1       0.676   8.414  21.336  0.00  0.00    +0.000 A 
ATOM     16  C   UNL     1       1.491   7.615  20.518  0.00  0.00    +0.000 A 
ATOM     17  C   UNL     1       1.877   8.092  19.259  0.00  0.00    +0.000 A 
ATOM     18  C   UNL     1       1.420   9.333  18.808  0.00  0.00    +0.000 A 
BRANCH  13  20
ATOM     19  N   UNL     1      -0.570  11.464  18.001  0.00  0.00    +0.000 NA
ATOM     20  C   UNL     1       0.052  11.410  19.132  0.00  0.00    +0.000 C 
ATOM     21  N   UNL     1       0.252  12.544  19.866  0.00  0.00    +0.000 N 
ATOM     22  H   UNL     1      -0.898  12.417  17.834  0.00  0.00    +0.000 HD
ATOM     23  H   UNL     1       0.197  13.412  19.347  0.00  0.00    +0.000 HD
ATOM     24  H   UNL     1       1.069  12.529  20.470  0.00  0.00    +0.000 HD
ENDBRANCH  13  20
ENDBRANCH  12  16
ENDBRANCH   8  12
ENDBRANCH   1   9
BRANCH   6  25
ATOM     25  C   UNL     1       6.924   6.291  17.492  0.00  0.00    +0.000 C 
BRANCH  25  26
ATOM     26  N   UNL     1       7.584   5.265  16.566  0.00  0.00    +0.000 NA
ATOM     27  H   UNL     1       7.447   4.348  17.001  0.00  0.00    +0.000 HD
BRANCH  26  28
ATOM     28  S   UNL     1       6.926   5.220  14.992  0.00  0.00    +0.000 S 
ATOM     29  O   UNL     1       5.881   6.217  14.992  0.00  0.00    +0.000 OA
ATOM     30  O   UNL     1       8.063   5.286  14.095  0.00  0.00    +0.000 OA
BRANCH  28  31
ATOM     31  C   UNL     1       6.175   3.583  14.864  0.00  0.00    +0.000 C 
BRANCH  31  32
ATOM     32  C   UNL     1       5.779   3.376  13.417  0.00  0.00    +0.000 A 
ATOM     33  C   UNL     1       4.532   3.820  12.949  0.00  0.00    +0.000 A 
ATOM     34  C   UNL     1       4.137   3.581  11.631  0.00  0.00    +0.000 A 
ATOM     35  C   UNL     1       4.984   2.899  10.759  0.00  0.00    +0.000 A 
ATOM     36  C   UNL     1       6.222   2.450  11.209  0.00  0.00    +0.000 A 
ATOM     37  C   UNL     1       6.620   2.686  12.530  0.00  0.00    +0.000 A 
ENDBRANCH  31  32
ENDBRANCH  28  31
ENDBRANCH  26  28
ENDBRANCH  25  26
BRANCH  25  38
ATOM     38  C   UNL     1       7.849   7.360  18.123  0.00  0.00    +0.000 C 
BRANCH  38  39
ATOM     39  O   UNL     1       7.716   8.658  17.552  0.00  0.00    +0.000 OA
ATOM     40  H   UNL     1       8.620   8.959  17.318  0.00  0.00    +0.000 HD
ENDBRANCH  38  39
ENDBRANCH  25  38
ENDBRANCH   6  25
TORSDOF 11
ENDMDL
MODEL 7
REMARK VINA RESULT:      -7.0      1.156      1.731
REMARK  Name = 
REMARK  11 active torsions:
REMARK  status: ('A' for Active; 'I' for Inactive)
REMARK    1  A    between atoms: C_2  and  C_4
REMARK    2  A    between atoms: C_7  and  C_8
REMARK    3  A    between atoms: C_8  and  N_9
REMARK    4  A    between atoms: C_10  and  C_12
REMARK    5  A    between atoms: C_17  and  C_19
REMARK    6  A    between atoms: C_19  and  C_20
REMARK    7  A    between atoms: C_19  and  N_22
REMARK    8  A    between atoms: C_20  and  O_21
REMARK    9  A    between atoms: N_22  and  S_23
REMARK   10  A    between atoms: S_23  and  C_26
REMARK   11  A    between atoms: C_26  and  C_27
REMARK                            x       y       z     vdW  Elec       q    Type
REMARK                         _______ _______ _______ _____ _____    ______ ____
ROOT
ATOM      1  C   UNL     1       1.296  10.097  19.177  0.00  0.00    +0.000 C 
ATOM      2  C   UNL     1       0.736  10.131  17.755  0.00  0.00    +0.000 C 
ATOM      3  C   UNL     1      -0.734   9.759  17.955  0.00  0.00    +0.000 C 
ATOM      4  C   UNL     1      -1.084  10.294  19.340  0.00  0.00    +0.000 C 
ATOM      5  N   UNL     1       0.185  10.681  19.939  0.00  0.00    +0.000 N 
ATOM      6  C   UNL     1       0.391  11.607  20.940  0.00  0.00    +0.000 C 
ATOM      7  O   UNL     1       1.508  11.713  21.461  0.00  0.00    +0.000 OA
ENDROOT
BRANCH   1   9
ATOM      8  N   UNL     1       2.262   7.901  18.596  0.00  0.00    +0.000 N 
ATOM      9  C   UNL     1       1.658   8.645  19.580  0.00  0.00    +0.000 C 
ATOM     10  O   UNL     1       1.407   8.176  20.683  0.00  0.00    +0.000 OA
ATOM     11  H   UNL     1       2.343   8.290  17.662  0.00  0.00    +0.000 HD
BRANCH   8  12
ATOM     12  C   UNL     1       2.601   6.511  18.823  0.00  0.00    +0.000 C 
BRANCH  12  16
ATOM     13  C   UNL     1       5.496   5.122  15.959  0.00  0.00    +0.000 A 
ATOM     14  C   UNL     1       4.588   4.229  16.531  0.00  0.00    +0.000 A 
ATOM     15  C   UNL     1       3.649   4.688  17.451  0.00  0.00    +0.000 A 
ATOM     16  C   UNL     1       3.606   6.045  17.808  0.00  0.00    +0.000 A 
ATOM     17  C   UNL     1       4.493   6.943  17.201  0.00  0.00    +0.000 A 
ATOM     18  C   UNL     1       5.439   6.483  16.281  0.00  0.00    +0.000 A 
BRANCH  13  20
ATOM     19  N   UNL     1       7.715   5.115  15.033  0.00  0.00    +0.000 NA
ATOM     20  C   UNL     1       6.525   4.612  15.013  0.00  0.00    +0.000 C 
ATOM     21  N   UNL     1       6.203   3.639  14.111  0.00  0.00    +0.000 N 
ATOM     22  H   UNL     1       8.305   4.633  14.353  0.00  0.00    +0.000 HD
ATOM     23  H   UNL     1       6.800   3.588  13.295  0.00  0.00    +0.000 HD
ATOM     24  H   UNL     1       5.221   3.599  13.851  0.00  0.00    +0.000 HD
ENDBRANCH  13  20
ENDBRANCH  12  16
ENDBRANCH   8  12
ENDBRANCH   1   9
BRANCH   6  25
ATOM     25  C   UNL     1      -0.758  12.567  21.348  0.00  0.00    +0.000 C 
BRANCH  25  26
ATOM     26  N   UNL     1      -0.223  13.995  21.499  0.00  0.00    +0.000 NA
ATOM     27  H   UNL     1       0.798  13.926  21.495  0.00  0.00    +0.000 HD
BRANCH  26  28
ATOM     28  S   UNL     1      -0.698  15.055  20.249  0.00  0.00    +0.000 S 
ATOM     29  O   UNL     1      -0.439  14.333  19.025  0.00  0.00    +0.000 OA
ATOM     30  O   UNL     1      -2.023  15.515  20.614  0.00  0.00    +0.000 OA
BRANCH  28  31
ATOM     31  C   UNL     1       0.455  16.438  20.369  0.00  0.00    +0.000 C 
BRANCH  31  32
ATOM     32  C   UNL     1       1.613  16.148  19.437  0.00  0.00    +0.000 A 
ATOM     33  C   UNL     1       1.755  16.859  18.235  0.00  0.00    +0.000 A 
ATOM     34  C   UNL     1       2.788  16.557  17.344  0.00  0.00    +0.000 A 
ATOM     35  C   UNL     1       3.696  15.544  17.644  0.00  0.00    +0.000 A 
ATOM     36  C   UNL     1       3.567  14.828  18.830  0.00  0.00    +0.000 A 
ATOM     37  C   UNL     1       2.532  15.127  19.724  0.00  0.00    +0.000 A 
ENDBRANCH  31  32
ENDBRANCH  28  31
ENDBRANCH  26  28
ENDBRANCH  25  26
BRANCH  25  38
ATOM     38  C   UNL     1      -1.501  11.967  22.565  0.00  0.00    +0.000 C 
BRANCH  38  39
ATOM     39  O   UNL     1      -0.737  11.024  23.309  0.00  0.00    +0.000 OA
ATOM     40  H   UNL     1      -0.769  10.177  22.813  0.00  0.00    +0.000 HD
ENDBRANCH  38  39
ENDBRANCH  25  38
ENDBRANCH   6  25
TORSDOF 11
ENDMDL
MODEL 8
REMARK VINA RESULT:      -6.9      3.041      4.592
REMARK  Name = 
REMARK  11 active torsions:
REMARK  status: ('A' for Active; 'I' for Inactive)
REMARK    1  A    between atoms: C_2  and  C_4
REMARK    2  A    between atoms: C_7  and  C_8
REMARK    3  A    between atoms: C_8  and  N_9
REMARK    4  A    between atoms: C_10  and  C_12
REMARK    5  A    between atoms: C_17  and  C_19
REMARK    6  A    between atoms: C_19  and  C_20
REMARK    7  A    between atoms: C_19  and  N_22
REMARK    8  A    between atoms: C_20  and  O_21
REMARK    9  A    between atoms: N_22  and  S_23
REMARK   10  A    between atoms: S_23  and  C_26
REMARK   11  A    between atoms: C_26  and  C_27
REMARK                            x       y       z     vdW  Elec       q    Type
REMARK                         _______ _______ _______ _____ _____    ______ ____
ROOT
ATOM      1  C   UNL     1      -0.201  10.002  19.606  0.00  0.00    +0.000 C 
ATOM      2  C   UNL     1      -0.140   9.238  20.928  0.00  0.00    +0.000 C 
ATOM      3  C   UNL     1       0.687  10.162  21.822  0.00  0.00    +0.000 C 
ATOM      4  C   UNL     1       0.373  11.568  21.323  0.00  0.00    +0.000 C 
ATOM      5  N   UNL     1      -0.359  11.383  20.078  0.00  0.00    +0.000 N 
ATOM      6  C   UNL     1      -1.242  12.262  19.487  0.00  0.00    +0.000 C 
ATOM      7  O   UNL     1      -1.664  12.038  18.346  0.00  0.00    +0.000 OA
ENDROOT
BRANCH   1   9
ATOM      8  N   UNL     1       1.538   8.452  18.787  0.00  0.00    +0.000 N 
ATOM      9  C   UNL     1       1.084   9.749  18.777  0.00  0.00    +0.000 C 
ATOM     10  O   UNL     1       1.673  10.636  18.172  0.00  0.00    +0.000 OA
ATOM     11  H   UNL     1       1.088   7.777  19.395  0.00  0.00    +0.000 HD
BRANCH   8  12
ATOM     12  C   UNL     1       2.760   8.092  18.099  0.00  0.00    +0.000 C 
BRANCH  12  16
ATOM     13  C   UNL     1       3.592   3.910  18.674  0.00  0.00    +0.000 A 
ATOM     14  C   UNL     1       2.702   4.573  19.521  0.00  0.00    +0.000 A 
ATOM     15  C   UNL     1       2.432   5.925  19.323  0.00  0.00    +0.000 A 
ATOM     16  C   UNL     1       3.047   6.628  18.275  0.00  0.00    +0.000 A 
ATOM     17  C   UNL     1       3.908   5.948  17.404  0.00  0.00    +0.000 A 
ATOM     18  C   UNL     1       4.183   4.593  17.605  0.00  0.00    +0.000 A 
BRANCH  13  20
ATOM     19  N   UNL     1       4.869   2.169  19.732  0.00  0.00    +0.000 NA
ATOM     20  C   UNL     1       3.908   2.478  18.924  0.00  0.00    +0.000 C 
ATOM     21  N   UNL     1       3.207   1.499  18.280  0.00  0.00    +0.000 N 
ATOM     22  H   UNL     1       4.931   1.154  19.821  0.00  0.00    +0.000 HD
ATOM     23  H   UNL     1       3.675   0.605  18.209  0.00  0.00    +0.000 HD
ATOM     24  H   UNL     1       2.802   1.774  17.389  0.00  0.00    +0.000 HD
ENDBRANCH  13  20
ENDBRANCH  12  16
ENDBRANCH   8  12
ENDBRANCH   1   9
BRANCH   6  25
ATOM     25  C   UNL     1      -1.765  13.484  20.290  0.00  0.00    +0.000 C 
BRANCH  25  26
ATOM     26  N   UNL     1      -3.295  13.452  20.360  0.00  0.00    +0.000 NA
ATOM     27  H   UNL     1      -3.603  12.728  19.705  0.00  0.00    +0.000 HD
BRANCH  26  28
ATOM     28  S   UNL     1      -3.916  13.082  21.906  0.00  0.00    +0.000 S 
ATOM     29  O   UNL     1      -5.117  12.319  21.655  0.00  0.00    +0.000 OA
ATOM     30  O   UNL     1      -2.797  12.545  22.654  0.00  0.00    +0.000 OA
BRANCH  28  31
ATOM     31  C   UNL     1      -4.373  14.683  22.604  0.00  0.00    +0.000 C 
BRANCH  31  32
ATOM     32  C   UNL     1      -3.259  15.106  23.540  0.00  0.00    +0.000 A 
ATOM     33  C   UNL     1      -2.140  15.797  23.048  0.00  0.00    +0.000 A 
ATOM     34  C   UNL     1      -1.084  16.139  23.895  0.00  0.00    +0.000 A 
ATOM     35  C   UNL     1      -1.132  15.801  25.247  0.00  0.00    +0.000 A 
ATOM     36  C   UNL     1      -2.234  15.113  25.748  0.00  0.00    +0.000 A 
ATOM     37  C   UNL     1      -3.293  14.767  24.901  0.00  0.00    +0.000 A 
ENDBRANCH  31  32
ENDBRANCH  28  31
ENDBRANCH  26  28
ENDBRANCH  25  26
BRANCH  25  38
ATOM     38  C   UNL     1      -1.118  14.769  19.720  0.00  0.00    +0.000 C 
BRANCH  38  39
ATOM     39  O   UNL     1      -0.482  14.592  18.458  0.00  0.00    +0.000 OA
ATOM     40  H   UNL     1       0.479  14.499  18.635  0.00  0.00    +0.000 HD
ENDBRANCH  38  39
ENDBRANCH  25  38
ENDBRANCH   6  25
TORSDOF 11
ENDMDL
MODEL 9
REMARK VINA RESULT:      -6.9      3.643      5.393
REMARK  Name = 
REMARK  11 active torsions:
REMARK  status: ('A' for Active; 'I' for Inactive)
REMARK    1  A    between atoms: C_2  and  C_4
REMARK    2  A    between atoms: C_7  and  C_8
REMARK    3  A    between atoms: C_8  and  N_9
REMARK    4  A    between atoms: C_10  and  C_12
REMARK    5  A    between atoms: C_17  and  C_19
REMARK    6  A    between atoms: C_19  and  C_20
REMARK    7  A    between atoms: C_19  and  N_22
REMARK    8  A    between atoms: C_20  and  O_21
REMARK    9  A    between atoms: N_22  and  S_23
REMARK   10  A    between atoms: S_23  and  C_26
REMARK   11  A    between atoms: C_26  and  C_27
REMARK                            x       y       z     vdW  Elec       q    Type
REMARK                         _______ _______ _______ _____ _____    ______ ____
ROOT
ATOM      1  C   UNL     1      -0.683  10.147  19.926  0.00  0.00    +0.000 C 
ATOM      2  C   UNL     1      -0.378   9.230  21.111  0.00  0.00    +0.000 C 
ATOM      3  C   UNL     1       0.356  10.154  22.083  0.00  0.00    +0.000 C 
ATOM      4  C   UNL     1      -0.234  11.536  21.824  0.00  0.00    +0.000 C 
ATOM      5  N   UNL     1      -1.030  11.398  20.612  0.00  0.00    +0.000 N 
ATOM      6  C   UNL     1      -2.097  12.178  20.218  0.00  0.00    +0.000 C 
ATOM      7  O   UNL     1      -2.573  12.042  19.084  0.00  0.00    +0.000 OA
ENDROOT
BRANCH   1   9
ATOM      8  N   UNL     1       1.156   9.051  18.697  0.00  0.00    +0.000 N 
ATOM      9  C   UNL     1       0.549  10.248  18.992  0.00  0.00    +0.000 C 
ATOM     10  O   UNL     1       0.973  11.312  18.559  0.00  0.00    +0.000 OA
ATOM     11  H   UNL     1       0.844   8.210  19.170  0.00  0.00    +0.000 HD
BRANCH   8  12
ATOM     12  C   UNL     1       2.351   9.010  17.879  0.00  0.00    +0.000 C 
BRANCH  12  16
ATOM     13  C   UNL     1       4.245   5.154  18.118  0.00  0.00    +0.000 A 
ATOM     14  C   UNL     1       4.727   6.121  17.233  0.00  0.00    +0.000 A 
ATOM     15  C   UNL     1       4.113   7.369  17.168  0.00  0.00    +0.000 A 
ATOM     16  C   UNL     1       3.012   7.666  17.988  0.00  0.00    +0.000 A 
ATOM     17  C   UNL     1       2.559   6.706  18.901  0.00  0.00    +0.000 A 
ATOM     18  C   UNL     1       3.172   5.452  18.965  0.00  0.00    +0.000 A 
BRANCH  13  20
ATOM     19  N   UNL     1       5.220   3.287  19.277  0.00  0.00    +0.000 NA
ATOM     20  C   UNL     1       4.879   3.809  18.145  0.00  0.00    +0.000 C 
ATOM     21  N   UNL     1       5.127   3.146  16.977  0.00  0.00    +0.000 N 
ATOM     22  H   UNL     1       5.604   2.353  19.124  0.00  0.00    +0.000 HD
ATOM     23  H   UNL     1       5.849   2.437  17.024  0.00  0.00    +0.000 HD
ATOM     24  H   UNL     1       5.246   3.739  16.161  0.00  0.00    +0.000 HD
ENDBRANCH  13  20
ENDBRANCH  12  16
ENDBRANCH   8  12
ENDBRANCH   1   9
BRANCH   6  25
ATOM     25  C   UNL     1      -2.746  13.161  21.229  0.00  0.00    +0.000 C 
BRANCH  25  26
ATOM     26  N   UNL     1      -4.270  13.142  21.076  0.00  0.00    +0.000 NA
ATOM     27  H   UNL     1      -4.505  12.275  20.584  0.00  0.00    +0.000 HD
BRANCH  26  28
ATOM     28  S   UNL     1      -5.121  13.170  22.555  0.00  0.00    +0.000 S 
ATOM     29  O   UNL     1      -4.428  12.230  23.405  0.00  0.00    +0.000 OA
ATOM     30  O   UNL     1      -5.257  14.572  22.897  0.00  0.00    +0.000 OA
BRANCH  28  31
ATOM     31  C   UNL     1      -6.750  12.506  22.151  0.00  0.00    +0.000 C 
BRANCH  31  32
ATOM     32  C   UNL     1      -6.867  12.472  20.642  0.00  0.00    +0.000 A 
ATOM     33  C   UNL     1      -7.300  13.605  19.935  0.00  0.00    +0.000 A 
ATOM     34  C   UNL     1      -7.465  13.563  18.549  0.00  0.00    +0.000 A 
ATOM     35  C   UNL     1      -7.194  12.389  17.847  0.00  0.00    +0.000 A 
ATOM     36  C   UNL     1      -6.766  11.257  18.534  0.00  0.00    +0.000 A 
ATOM     37  C   UNL     1      -6.602  11.296  19.923  0.00  0.00    +0.000 A 
ENDBRANCH  31  32
ENDBRANCH  28  31
ENDBRANCH  26  28
ENDBRANCH  25  26
BRANCH  25  38
ATOM     38  C   UNL     1      -2.048  14.536  21.105  0.00  0.00    +0.000 C 
BRANCH  38  39
ATOM     39  O   UNL     1      -1.960  15.028  19.772  0.00  0.00    +0.000 OA
ATOM     40  H   UNL     1      -1.824  15.998  19.835  0.00  0.00    +0.000 HD
ENDBRANCH  38  39
ENDBRANCH  25  38
ENDBRANCH   6  25
TORSDOF 11
ENDMDL
