MODEL 1
REMARK VINA RESULT:      -8.1      0.000      0.000
REMARK  Name = 
REMARK  5 active torsions:
REMARK  status: ('A' for Active; 'I' for Inactive)
REMARK    1  A    between atoms: C_1  and  C_2
REMARK    2  A    between atoms: C_2  and  C_3
REMARK    3  A    between atoms: C_3  and  C_4
REMARK    4  A    between atoms: C_4  and  C_5
REMARK    5  A    between atoms: N_18  and  C_19
REMARK                            x       y       z     vdW  Elec       q    Type
REMARK                         _______ _______ _______ _____ _____    ______ ____
ROOT
ATOM      1  C   UNL     1       6.104   4.174  14.629  0.00  0.00    +0.000 A 
ATOM      2  C   UNL     1       7.279   4.666  15.189  0.00  0.00    +0.000 A 
ATOM      3  C   UNL     1       7.316   5.021  16.534  0.00  0.00    +0.000 A 
ATOM      4  C   UNL     1       6.181   4.897  17.367  0.00  0.00    +0.000 A 
ATOM      5  C   UNL     1       4.965   4.405  16.817  0.00  0.00    +0.000 A 
ATOM      6  C   UNL     1       4.974   4.046  15.448  0.00  0.00    +0.000 A 
ATOM      7  C   UNL     1       3.808   4.282  17.651  0.00  0.00    +0.000 A 
ATOM      8  C   UNL     1       2.546   3.799  17.216  0.00  0.00    +0.000 A 
ATOM      9  C   UNL     1       1.452   3.702  18.079  0.00  0.00    +0.000 A 
ATOM     10  C   UNL     1       1.578   4.088  19.403  0.00  0.00    +0.000 A 
ATOM     11  C   UNL     1       2.802   4.565  19.862  0.00  0.00    +0.000 A 
ATOM     12  C   UNL     1       3.909   4.661  18.999  0.00  0.00    +0.000 A 
ATOM     13  C   UNL     1       5.125   5.127  19.474  0.00  0.00    +0.000 A 
ATOM     14  N   UNL     1       6.220   5.248  18.691  0.00  0.00    +0.000 N 
ATOM     15  C   UNL     1       7.455   5.754  19.306  0.00  0.00    +0.000 C 
ENDROOT
BRANCH   1  16
ATOM     16  C   UNL     1       6.061   3.720  13.187  0.00  0.00    +0.000 C 
BRANCH  16  17
ATOM     17  C   UNL     1       4.633   3.642  12.639  0.00  0.00    +0.000 C 
BRANCH  17  19
ATOM     18  C   UNL     1       3.392   3.382  10.462  0.00  0.00    +0.000 C 
ATOM     19  C   UNL     1       4.601   2.946  11.274  0.00  0.00    +0.000 C 
ENDBRANCH  17  19
ENDBRANCH  16  17
ENDBRANCH   1  16
TORSDOF 3
ENDMDL
MODEL 2
REMARK VINA RESULT:      -8.0      1.779      2.379
REMARK  Name = 
REMARK  5 active torsions:
REMARK  status: ('A' for Active; 'I' for Inactive)
REMARK    1  A    between atoms: C_1  and  C_2
REMARK    2  A    between atoms: C_2  and  C_3
REMARK    3  A    between atoms: C_3  and  C_4
REMARK    4  A    between atoms: C_4  and  C_5
REMARK    5  A    between atoms: N_18  and  C_19
REMARK                            x       y       z     vdW  Elec       q    Type
REMARK                         _______ _______ _______ _____ _____    ______ ____
ROOT
ATOM      1  C   UNL     1       5.435   4.497  15.635  0.00  0.00    +0.000 A 
ATOM      2  C   UNL     1       5.447   5.886  15.553  0.00  0.00    +0.000 A 
ATOM      3  C   UNL     1       4.639   6.643  16.395  0.00  0.00    +0.000 A 
ATOM      4  C   UNL     1       3.789   6.038  17.350  0.00  0.00    +0.000 A 
ATOM      5  C   UNL     1       3.752   4.620  17.449  0.00  0.00    +0.000 A 
ATOM      6  C   UNL     1       4.597   3.889  16.580  0.00  0.00    +0.000 A 
ATOM      7  C   UNL     1       2.890   3.999  18.408  0.00  0.00    +0.000 A 
ATOM      8  C   UNL     1       2.774   2.597  18.601  0.00  0.00    +0.000 A 
ATOM      9  C   UNL     1       1.913   2.048  19.555  0.00  0.00    +0.000 A 
ATOM     10  C   UNL     1       1.137   2.879  20.346  0.00  0.00    +0.000 A 
ATOM     11  C   UNL     1       1.228   4.258  20.183  0.00  0.00    +0.000 A 
ATOM     12  C   UNL     1       2.096   4.817  19.226  0.00  0.00    +0.000 A 
ATOM     13  C   UNL     1       2.184   6.193  19.084  0.00  0.00    +0.000 A 
ATOM     14  N   UNL     1       2.993   6.785  18.179  0.00  0.00    +0.000 N 
ATOM     15  C   UNL     1       3.004   8.254  18.120  0.00  0.00    +0.000 C 
ENDROOT
BRANCH   1  16
ATOM     16  C   UNL     1       6.355   3.660  14.775  0.00  0.00    +0.000 C 
BRANCH  16  17
ATOM     17  C   UNL     1       6.353   4.104  13.309  0.00  0.00    +0.000 C 
BRANCH  17  19
ATOM     18  C   UNL     1       4.543   3.488  11.669  0.00  0.00    +0.000 C 
ATOM     19  C   UNL     1       5.787   3.009  12.399  0.00  0.00    +0.000 C 
ENDBRANCH  17  19
ENDBRANCH  16  17
ENDBRANCH   1  16
TORSDOF 3
ENDMDL
MODEL 3
REMARK VINA RESULT:      -8.0      0.918      1.113
REMARK  Name = 
REMARK  5 active torsions:
REMARK  status: ('A' for Active; 'I' for Inactive)
REMARK    1  A    between atoms: C_1  and  C_2
REMARK    2  A    between atoms: C_2  and  C_3
REMARK    3  A    between atoms: C_3  and  C_4
REMARK    4  A    between atoms: C_4  and  C_5
REMARK    5  A    between atoms: N_18  and  C_19
REMARK                            x       y       z     vdW  Elec       q    Type
REMARK                         _______ _______ _______ _____ _____    ______ ____
ROOT
ATOM      1  C   UNL     1       5.812   4.173  14.409  0.00  0.00    +0.000 A 
ATOM      2  C   UNL     1       7.035   4.677  14.840  0.00  0.00    +0.000 A 
ATOM      3  C   UNL     1       7.206   5.054  16.168  0.00  0.00    +0.000 A 
ATOM      4  C   UNL     1       6.160   4.941  17.113  0.00  0.00    +0.000 A 
ATOM      5  C   UNL     1       4.898   4.437  16.696  0.00  0.00    +0.000 A 
ATOM      6  C   UNL     1       4.770   4.056  15.339  0.00  0.00    +0.000 A 
ATOM      7  C   UNL     1       3.831   4.325  17.644  0.00  0.00    +0.000 A 
ATOM      8  C   UNL     1       2.534   3.833  17.346  0.00  0.00    +0.000 A 
ATOM      9  C   UNL     1       1.532   3.747  18.316  0.00  0.00    +0.000 A 
ATOM     10  C   UNL     1       1.789   4.155  19.615  0.00  0.00    +0.000 A 
ATOM     11  C   UNL     1       3.051   4.642  19.940  0.00  0.00    +0.000 A 
ATOM     12  C   UNL     1       4.066   4.726  18.969  0.00  0.00    +0.000 A 
ATOM     13  C   UNL     1       5.322   5.203  19.312  0.00  0.00    +0.000 A 
ATOM     14  N   UNL     1       6.331   5.314  18.421  0.00  0.00    +0.000 N 
ATOM     15  C   UNL     1       7.620   5.832  18.900  0.00  0.00    +0.000 C 
ENDROOT
BRANCH   1  16
ATOM     16  C   UNL     1       5.626   3.696  12.986  0.00  0.00    +0.000 C 
BRANCH  16  17
ATOM     17  C   UNL     1       6.928   3.734  12.179  0.00  0.00    +0.000 C 
BRANCH  17  19
ATOM     18  C   UNL     1       5.850   1.604  11.376  0.00  0.00    +0.000 C 
ATOM     19  C   UNL     1       7.111   2.453  11.361  0.00  0.00    +0.000 C 
ENDBRANCH  17  19
ENDBRANCH  16  17
ENDBRANCH   1  16
TORSDOF 3
ENDMDL
MODEL 4
REMARK VINA RESULT:      -7.9      1.954      2.988
REMARK  Name = 
REMARK  5 active torsions:
REMARK  status: ('A' for Active; 'I' for Inactive)
REMARK    1  A    between atoms: C_1  and  C_2
REMARK    2  A    between atoms: C_2  and  C_3
REMARK    3  A    between atoms: C_3  and  C_4
REMARK    4  A    between atoms: C_4  and  C_5
REMARK    5  A    between atoms: N_18  and  C_19
REMARK                            x       y       z     vdW  Elec       q    Type
REMARK                         _______ _______ _______ _____ _____    ______ ____
ROOT
ATOM      1  C   UNL     1       5.823   5.128  16.426  0.00  0.00    +0.000 A 
ATOM      2  C   UNL     1       5.377   6.410  16.120  0.00  0.00    +0.000 A 
ATOM      3  C   UNL     1       4.361   6.992  16.870  0.00  0.00    +0.000 A 
ATOM      4  C   UNL     1       3.754   6.314  17.953  0.00  0.00    +0.000 A 
ATOM      5  C   UNL     1       4.186   5.000  18.280  0.00  0.00    +0.000 A 
ATOM      6  C   UNL     1       5.229   4.449  17.498  0.00  0.00    +0.000 A 
ATOM      7  C   UNL     1       3.573   4.303  19.370  0.00  0.00    +0.000 A 
ATOM      8  C   UNL     1       3.925   2.994  19.791  0.00  0.00    +0.000 A 
ATOM      9  C   UNL     1       3.289   2.364  20.865  0.00  0.00    +0.000 A 
ATOM     10  C   UNL     1       2.278   3.018  21.550  0.00  0.00    +0.000 A 
ATOM     11  C   UNL     1       1.910   4.303  21.163  0.00  0.00    +0.000 A 
ATOM     12  C   UNL     1       2.550   4.944  20.085  0.00  0.00    +0.000 A 
ATOM     13  C   UNL     1       2.180   6.229  19.720  0.00  0.00    +0.000 A 
ATOM     14  N   UNL     1       2.752   6.890  18.690  0.00  0.00    +0.000 N 
ATOM     15  C   UNL     1       2.278   8.250  18.395  0.00  0.00    +0.000 C 
ENDROOT
BRANCH   1  16
ATOM     16  C   UNL     1       6.972   4.503  15.665  0.00  0.00    +0.000 C 
BRANCH  16  17
ATOM     17  C   UNL     1       6.852   4.704  14.151  0.00  0.00    +0.000 C 
BRANCH  17  19
ATOM     18  C   UNL     1       6.164   3.321  12.161  0.00  0.00    +0.000 C 
ATOM     19  C   UNL     1       5.777   3.790  13.554  0.00  0.00    +0.000 C 
ENDBRANCH  17  19
ENDBRANCH  16  17
ENDBRANCH   1  16
TORSDOF 3
ENDMDL
MODEL 5
REMARK VINA RESULT:      -7.6      3.247      7.371
REMARK  Name = 
REMARK  5 active torsions:
REMARK  status: ('A' for Active; 'I' for Inactive)
REMARK    1  A    between atoms: C_1  and  C_2
REMARK    2  A    between atoms: C_2  and  C_3
REMARK    3  A    between atoms: C_3  and  C_4
REMARK    4  A    between atoms: C_4  and  C_5
REMARK    5  A    between atoms: N_18  and  C_19
REMARK                            x       y       z     vdW  Elec       q    Type
REMARK                         _______ _______ _______ _____ _____    ______ ____
ROOT
ATOM      1  C   UNL     1       1.801   7.245  20.170  0.00  0.00    +0.000 A 
ATOM      2  C   UNL     1       1.338   6.106  20.823  0.00  0.00    +0.000 A 
ATOM      3  C   UNL     1       1.720   4.844  20.380  0.00  0.00    +0.000 A 
ATOM      4  C   UNL     1       2.579   4.674  19.270  0.00  0.00    +0.000 A 
ATOM      5  C   UNL     1       3.059   5.821  18.581  0.00  0.00    +0.000 A 
ATOM      6  C   UNL     1       2.654   7.086  19.070  0.00  0.00    +0.000 A 
ATOM      7  C   UNL     1       3.924   5.660  17.452  0.00  0.00    +0.000 A 
ATOM      8  C   UNL     1       4.469   6.728  16.692  0.00  0.00    +0.000 A 
ATOM      9  C   UNL     1       5.310   6.507  15.598  0.00  0.00    +0.000 A 
ATOM     10  C   UNL     1       5.630   5.213  15.222  0.00  0.00    +0.000 A 
ATOM     11  C   UNL     1       5.113   4.143  15.947  0.00  0.00    +0.000 A 
ATOM     12  C   UNL     1       4.270   4.359  17.052  0.00  0.00    +0.000 A 
ATOM     13  C   UNL     1       3.773   3.283  17.771  0.00  0.00    +0.000 A 
ATOM     14  N   UNL     1       2.954   3.430  18.836  0.00  0.00    +0.000 N 
ATOM     15  C   UNL     1       2.490   2.215  19.521  0.00  0.00    +0.000 C 
ENDROOT
BRANCH   1  16
ATOM     16  C   UNL     1       1.451   8.627  20.676  0.00  0.00    +0.000 C 
BRANCH  16  17
ATOM     17  C   UNL     1       0.139   8.647  21.467  0.00  0.00    +0.000 C 
BRANCH  17  19
ATOM     18  C   UNL     1      -0.869  10.291  23.088  0.00  0.00    +0.000 C 
ATOM     19  C   UNL     1       0.309   9.373  22.805  0.00  0.00    +0.000 C 
ENDBRANCH  17  19
ENDBRANCH  16  17
ENDBRANCH   1  16
TORSDOF 3
ENDMDL
MODEL 6
REMARK VINA RESULT:      -7.4      2.614      3.535
REMARK  Name = 
REMARK  5 active torsions:
REMARK  status: ('A' for Active; 'I' for Inactive)
REMARK    1  A    between atoms: C_1  and  C_2
REMARK    2  A    between atoms: C_2  and  C_3
REMARK    3  A    between atoms: C_3  and  C_4
REMARK    4  A    between atoms: C_4  and  C_5
REMARK    5  A    between atoms: N_18  and  C_19
REMARK                            x       y       z     vdW  Elec       q    Type
REMARK                         _______ _______ _______ _____ _____    ______ ____
ROOT
ATOM      1  C   UNL     1       5.105   5.117  16.209  0.00  0.00    +0.000 A 
ATOM      2  C   UNL     1       5.139   3.943  16.956  0.00  0.00    +0.000 A 
ATOM      3  C   UNL     1       4.423   3.851  18.144  0.00  0.00    +0.000 A 
ATOM      4  C   UNL     1       3.645   4.928  18.629  0.00  0.00    +0.000 A 
ATOM      5  C   UNL     1       3.600   6.141  17.889  0.00  0.00    +0.000 A 
ATOM      6  C   UNL     1       4.335   6.189  16.681  0.00  0.00    +0.000 A 
ATOM      7  C   UNL     1       2.821   7.239  18.375  0.00  0.00    +0.000 A 
ATOM      8  C   UNL     1       2.696   8.493  17.721  0.00  0.00    +0.000 A 
ATOM      9  C   UNL     1       1.918   9.529  18.246  0.00  0.00    +0.000 A 
ATOM     10  C   UNL     1       1.245   9.351  19.443  0.00  0.00    +0.000 A 
ATOM     11  C   UNL     1       1.346   8.133  20.109  0.00  0.00    +0.000 A 
ATOM     12  C   UNL     1       2.123   7.084  19.583  0.00  0.00    +0.000 A 
ATOM     13  C   UNL     1       2.204   5.873  20.253  0.00  0.00    +0.000 A 
ATOM     14  N   UNL     1       2.940   4.834  19.800  0.00  0.00    +0.000 N 
ATOM     15  C   UNL     1       2.950   3.598  20.595  0.00  0.00    +0.000 C 
ENDROOT
BRANCH   1  16
ATOM     16  C   UNL     1       5.823   5.215  14.882  0.00  0.00    +0.000 C 
BRANCH  16  17
ATOM     17  C   UNL     1       6.218   3.843  14.326  0.00  0.00    +0.000 C 
BRANCH  17  19
ATOM     18  C   UNL     1       5.512   3.075  12.033  0.00  0.00    +0.000 C 
ATOM     19  C   UNL     1       6.502   3.915  12.822  0.00  0.00    +0.000 C 
ENDBRANCH  17  19
ENDBRANCH  16  17
ENDBRANCH   1  16
TORSDOF 3
ENDMDL
MODEL 7
REMARK VINA RESULT:      -7.3      1.245      5.817
REMARK  Name = 
REMARK  5 active torsions:
REMARK  status: ('A' for Active; 'I' for Inactive)
REMARK    1  A    between atoms: C_1  and  C_2
REMARK    2  A    between atoms: C_2  and  C_3
REMARK    3  A    between atoms: C_3  and  C_4
REMARK    4  A    between atoms: C_4  and  C_5
REMARK    5  A    between atoms: N_18  and  C_19
REMARK                            x       y       z     vdW  Elec       q    Type
REMARK                         _______ _______ _______ _____ _____    ______ ____
ROOT
ATOM      1  C   UNL     1       3.147   3.822  17.923  0.00  0.00    +0.000 A 
ATOM      2  C   UNL     1       3.806   4.480  18.957  0.00  0.00    +0.000 A 
ATOM      3  C   UNL     1       5.043   5.075  18.729  0.00  0.00    +0.000 A 
ATOM      4  C   UNL     1       5.665   5.035  17.460  0.00  0.00    +0.000 A 
ATOM      5  C   UNL     1       5.016   4.362  16.389  0.00  0.00    +0.000 A 
ATOM      6  C   UNL     1       3.755   3.779  16.661  0.00  0.00    +0.000 A 
ATOM      7  C   UNL     1       5.640   4.310  15.102  0.00  0.00    +0.000 A 
ATOM      8  C   UNL     1       5.086   3.674  13.960  0.00  0.00    +0.000 A 
ATOM      9  C   UNL     1       5.745   3.657  12.728  0.00  0.00    +0.000 A 
ATOM     10  C   UNL     1       6.980   4.268  12.595  0.00  0.00    +0.000 A 
ATOM     11  C   UNL     1       7.551   4.902  13.695  0.00  0.00    +0.000 A 
ATOM     12  C   UNL     1       6.890   4.926  14.938  0.00  0.00    +0.000 A 
ATOM     13  C   UNL     1       7.467   5.572  16.021  0.00  0.00    +0.000 A 
ATOM     14  N   UNL     1       6.883   5.621  17.239  0.00  0.00    +0.000 N 
ATOM     15  C   UNL     1       7.589   6.335  18.313  0.00  0.00    +0.000 C 
ENDROOT
BRANCH   1  16
ATOM     16  C   UNL     1       1.772   3.227  18.133  0.00  0.00    +0.000 C 
BRANCH  16  17
ATOM     17  C   UNL     1       1.725   2.265  19.324  0.00  0.00    +0.000 C 
BRANCH  17  19
ATOM     18  C   UNL     1       1.864   2.981  21.735  0.00  0.00    +0.000 C 
ATOM     19  C   UNL     1       0.974   2.884  20.507  0.00  0.00    +0.000 C 
ENDBRANCH  17  19
ENDBRANCH  16  17
ENDBRANCH   1  16
TORSDOF 3
ENDMDL
MODEL 8
REMARK VINA RESULT:      -7.3      3.075      6.779
REMARK  Name = 
REMARK  5 active torsions:
REMARK  status: ('A' for Active; 'I' for Inactive)
REMARK    1  A    between atoms: C_1  and  C_2
REMARK    2  A    between atoms: C_2  and  C_3
REMARK    3  A    between atoms: C_3  and  C_4
REMARK    4  A    between atoms: C_4  and  C_5
REMARK    5  A    between atoms: N_18  and  C_19
REMARK                            x       y       z     vdW  Elec       q    Type
REMARK                         _______ _______ _______ _____ _____    ______ ____
ROOT
ATOM      1  C   UNL     1       1.819   6.837  20.258  0.00  0.00    +0.000 A 
ATOM      2  C   UNL     1       1.370   5.638  20.801  0.00  0.00    +0.000 A 
ATOM      3  C   UNL     1       1.768   4.427  20.246  0.00  0.00    +0.000 A 
ATOM      4  C   UNL     1       2.631   4.370  19.127  0.00  0.00    +0.000 A 
ATOM      5  C   UNL     1       3.099   5.582  18.548  0.00  0.00    +0.000 A 
ATOM      6  C   UNL     1       2.677   6.791  19.150  0.00  0.00    +0.000 A 
ATOM      7  C   UNL     1       3.967   5.535  17.411  0.00  0.00    +0.000 A 
ATOM      8  C   UNL     1       4.500   6.675  16.754  0.00  0.00    +0.000 A 
ATOM      9  C   UNL     1       5.345   6.565  15.647  0.00  0.00    +0.000 A 
ATOM     10  C   UNL     1       5.682   5.315  15.154  0.00  0.00    +0.000 A 
ATOM     11  C   UNL     1       5.178   4.178  15.777  0.00  0.00    +0.000 A 
ATOM     12  C   UNL     1       4.330   4.281  16.895  0.00  0.00    +0.000 A 
ATOM     13  C   UNL     1       3.845   3.137  17.511  0.00  0.00    +0.000 A 
ATOM     14  N   UNL     1       3.022   3.176  18.582  0.00  0.00    +0.000 N 
ATOM     15  C   UNL     1       2.572   1.897  19.151  0.00  0.00    +0.000 C 
ENDROOT
BRANCH   1  16
ATOM     16  C   UNL     1       1.451   8.162  20.887  0.00  0.00    +0.000 C 
BRANCH  16  17
ATOM     17  C   UNL     1       1.115   9.234  19.845  0.00  0.00    +0.000 C 
BRANCH  17  19
ATOM     18  C   UNL     1      -0.935  10.323  18.867  0.00  0.00    +0.000 C 
ATOM     19  C   UNL     1      -0.233   9.897  20.146  0.00  0.00    +0.000 C 
ENDBRANCH  17  19
ENDBRANCH  16  17
ENDBRANCH   1  16
TORSDOF 3
ENDMDL
MODEL 9
REMARK VINA RESULT:      -7.3      2.702      4.067
REMARK  Name = 
REMARK  5 active torsions:
REMARK  status: ('A' for Active; 'I' for Inactive)
REMARK    1  A    between atoms: C_1  and  C_2
REMARK    2  A    between atoms: C_2  and  C_3
REMARK    3  A    between atoms: C_3  and  C_4
REMARK    4  A    between atoms: C_4  and  C_5
REMARK    5  A    between atoms: N_18  and  C_19
REMARK                            x       y       z     vdW  Elec       q    Type
REMARK                         _______ _______ _______ _____ _____    ______ ____
ROOT
ATOM      1  C   UNL     1       4.555   4.234  16.991  0.00  0.00    +0.000 A 
ATOM      2  C   UNL     1       4.418   3.241  17.956  0.00  0.00    +0.000 A 
ATOM      3  C   UNL     1       3.695   3.492  19.118  0.00  0.00    +0.000 A 
ATOM      4  C   UNL     1       3.082   4.744  19.356  0.00  0.00    +0.000 A 
ATOM      5  C   UNL     1       3.214   5.778  18.389  0.00  0.00    +0.000 A 
ATOM      6  C   UNL     1       3.949   5.477  17.218  0.00  0.00    +0.000 A 
ATOM      7  C   UNL     1       2.603   7.051  18.625  0.00  0.00    +0.000 A 
ATOM      8  C   UNL     1       2.662   8.152  17.731  0.00  0.00    +0.000 A 
ATOM      9  C   UNL     1       2.043   9.372  18.017  0.00  0.00    +0.000 A 
ATOM     10  C   UNL     1       1.351   9.536  19.205  0.00  0.00    +0.000 A 
ATOM     11  C   UNL     1       1.273   8.475  20.102  0.00  0.00    +0.000 A 
ATOM     12  C   UNL     1       1.890   7.242  19.818  0.00  0.00    +0.000 A 
ATOM     13  C   UNL     1       1.793   6.191  20.717  0.00  0.00    +0.000 A 
ATOM     14  N   UNL     1       2.370   4.988  20.501  0.00  0.00    +0.000 N 
ATOM     15  C   UNL     1       2.199   3.948  21.525  0.00  0.00    +0.000 C 
ENDROOT
BRANCH   1  16
ATOM     16  C   UNL     1       5.281   3.960  15.692  0.00  0.00    +0.000 C 
BRANCH  16  17
ATOM     17  C   UNL     1       6.296   5.054  15.345  0.00  0.00    +0.000 C 
BRANCH  17  19
ATOM     18  C   UNL     1       6.181   3.744  13.197  0.00  0.00    +0.000 C 
ATOM     19  C   UNL     1       6.949   4.793  13.984  0.00  0.00    +0.000 C 
ENDBRANCH  17  19
ENDBRANCH  16  17
ENDBRANCH   1  16
TORSDOF 3
ENDMDL
