MODEL 1
REMARK VINA RESULT:      -8.1      0.000      0.000
REMARK  Name = 
REMARK  5 active torsions:
REMARK  status: ('A' for Active; 'I' for Inactive)
REMARK    1  A    between atoms: C_1  and  C_2
REMARK    2  A    between atoms: C_4  and  N_5
REMARK    3  A    between atoms: C_15  and  C_16
REMARK    4  A    between atoms: C_16  and  O_17
REMARK    5  A    between atoms: C_16  and  C_18
REMARK                            x       y       z     vdW  Elec       q    Type
REMARK                         _______ _______ _______ _____ _____    ______ ____
ROOT
ATOM      1  C   UNL     1       0.666   9.103  21.311  0.00  0.00    +0.000 C 
ATOM      2  C   UNL     1       1.349   8.469  20.129  0.00  0.00    +0.000 A 
ATOM      3  C   UNL     1       1.960   7.219  20.318  0.00  0.00    +0.000 A 
ATOM      4  C   UNL     1       2.681   6.574  19.305  0.00  0.00    +0.000 A 
ATOM      5  C   UNL     1       2.751   7.196  18.056  0.00  0.00    +0.000 A 
ATOM      6  C   UNL     1       2.119   8.421  17.834  0.00  0.00    +0.000 A 
ATOM      7  C   UNL     1       1.439   9.095  18.872  0.00  0.00    +0.000 A 
ENDROOT
BRANCH   4   8
ATOM      8  N   UNL     1       3.365   5.341  19.546  0.00  0.00    +0.000 N 
ATOM      9  N   UNL     1       2.576   4.370  20.141  0.00  0.00    +0.000 NA
ATOM     10  C   UNL     1       3.079   3.190  20.295  0.00  0.00    +0.000 A 
ATOM     11  C   UNL     1       4.473   2.849  19.895  0.00  0.00    +0.000 A 
ATOM     12  O   UNL     1       4.890   1.710  20.072  0.00  0.00    +0.000 OA
ATOM     13  N   UNL     1       5.183   3.863  19.356  0.00  0.00    +0.000 N 
ATOM     14  C   UNL     1       4.697   5.121  19.148  0.00  0.00    +0.000 A 
ATOM     15  O   UNL     1       5.468   5.941  18.656  0.00  0.00    +0.000 OA
ATOM     16  H   UNL     1       6.137   3.704  19.079  0.00  0.00    +0.000 HD
ENDBRANCH   4   8
BRANCH   7  17
ATOM     17  C   UNL     1       0.944  10.521  18.657  0.00  0.00    +0.000 C 
BRANCH  17  18
ATOM     18  C   UNL     1      -0.567  10.643  18.484  0.00  0.00    +0.000 A 
ATOM     19  C   UNL     1      -1.312  11.612  19.176  0.00  0.00    +0.000 A 
ATOM     20  C   UNL     1      -2.673  11.790  18.931  0.00  0.00    +0.000 A 
ATOM     21  C   UNL     1      -3.314  11.008  17.979  0.00  0.00    +0.000 A 
ATOM     22  C   UNL     1      -2.601  10.026  17.294  0.00  0.00    +0.000 A 
ATOM     23  C   UNL     1      -1.238   9.838  17.549  0.00  0.00    +0.000 A 
ENDBRANCH  17  18
BRANCH  17  24
ATOM     24  O   UNL     1       1.341  11.331  19.768  0.00  0.00    +0.000 OA
ATOM     25  H   UNL     1       1.153  12.251  19.517  0.00  0.00    +0.000 HD
ENDBRANCH  17  24
ENDBRANCH   7  17
TORSDOF 4
ENDMDL
MODEL 2
REMARK VINA RESULT:      -8.0      4.009      8.187
REMARK  Name = 
REMARK  5 active torsions:
REMARK  status: ('A' for Active; 'I' for Inactive)
REMARK    1  A    between atoms: C_1  and  C_2
REMARK    2  A    between atoms: C_4  and  N_5
REMARK    3  A    between atoms: C_15  and  C_16
REMARK    4  A    between atoms: C_16  and  O_17
REMARK    5  A    between atoms: C_16  and  C_18
REMARK                            x       y       z     vdW  Elec       q    Type
REMARK                         _______ _______ _______ _____ _____    ______ ____
ROOT
ATOM      1  C   UNL     1       3.759   3.136  17.160  0.00  0.00    +0.000 C 
ATOM      2  C   UNL     1       4.249   4.552  17.302  0.00  0.00    +0.000 A 
ATOM      3  C   UNL     1       3.354   5.507  17.810  0.00  0.00    +0.000 A 
ATOM      4  C   UNL     1       3.685   6.864  17.918  0.00  0.00    +0.000 A 
ATOM      5  C   UNL     1       4.972   7.255  17.537  0.00  0.00    +0.000 A 
ATOM      6  C   UNL     1       5.891   6.316  17.066  0.00  0.00    +0.000 A 
ATOM      7  C   UNL     1       5.537   4.958  16.907  0.00  0.00    +0.000 A 
ENDROOT
BRANCH   4   8
ATOM      8  N   UNL     1       2.729   7.832  18.358  0.00  0.00    +0.000 N 
ATOM      9  N   UNL     1       2.482   8.835  17.434  0.00  0.00    +0.000 NA
ATOM     10  C   UNL     1       1.552   9.690  17.702  0.00  0.00    +0.000 A 
ATOM     11  C   UNL     1       0.768   9.661  18.968  0.00  0.00    +0.000 A 
ATOM     12  O   UNL     1      -0.099  10.505  19.161  0.00  0.00    +0.000 OA
ATOM     13  N   UNL     1       1.097   8.673  19.828  0.00  0.00    +0.000 N 
ATOM     14  C   UNL     1       2.054   7.729  19.588  0.00  0.00    +0.000 A 
ATOM     15  O   UNL     1       2.246   6.897  20.472  0.00  0.00    +0.000 OA
ATOM     16  H   UNL     1       0.618   8.606  20.709  0.00  0.00    +0.000 HD
ENDBRANCH   4   8
BRANCH   7  17
ATOM     17  C   UNL     1       6.488   4.003  16.194  0.00  0.00    +0.000 C 
BRANCH  17  18
ATOM     18  C   UNL     1       6.597   4.228  14.689  0.00  0.00    +0.000 A 
ATOM     19  C   UNL     1       7.579   5.067  14.138  0.00  0.00    +0.000 A 
ATOM     20  C   UNL     1       7.742   5.182  12.758  0.00  0.00    +0.000 A 
ATOM     21  C   UNL     1       6.931   4.449  11.901  0.00  0.00    +0.000 A 
ATOM     22  C   UNL     1       5.936   3.625  12.423  0.00  0.00    +0.000 A 
ATOM     23  C   UNL     1       5.762   3.520  13.808  0.00  0.00    +0.000 A 
ENDBRANCH  17  18
BRANCH  17  24
ATOM     24  O   UNL     1       7.795   4.123  16.766  0.00  0.00    +0.000 OA
ATOM     25  H   UNL     1       8.380   4.423  16.050  0.00  0.00    +0.000 HD
ENDBRANCH  17  24
ENDBRANCH   7  17
TORSDOF 4
ENDMDL
MODEL 3
REMARK VINA RESULT:      -8.0      0.110      1.009
REMARK  Name = 
REMARK  5 active torsions:
REMARK  status: ('A' for Active; 'I' for Inactive)
REMARK    1  A    between atoms: C_1  and  C_2
REMARK    2  A    between atoms: C_4  and  N_5
REMARK    3  A    between atoms: C_15  and  C_16
REMARK    4  A    between atoms: C_16  and  O_17
REMARK    5  A    between atoms: C_16  and  C_18
REMARK                            x       y       z     vdW  Elec       q    Type
REMARK                         _______ _______ _______ _____ _____    ______ ____
ROOT
ATOM      1  C   UNL     1       0.555   9.103  21.215  0.00  0.00    +0.000 C 
ATOM      2  C   UNL     1       1.317   8.507  20.062  0.00  0.00    +0.000 A 
ATOM      3  C   UNL     1       1.916   7.252  20.252  0.00  0.00    +0.000 A 
ATOM      4  C   UNL     1       2.703   6.639  19.270  0.00  0.00    +0.000 A 
ATOM      5  C   UNL     1       2.856   7.300  18.048  0.00  0.00    +0.000 A 
ATOM      6  C   UNL     1       2.238   8.531  17.823  0.00  0.00    +0.000 A 
ATOM      7  C   UNL     1       1.489   9.172  18.834  0.00  0.00    +0.000 A 
ENDROOT
BRANCH   4   8
ATOM      8  N   UNL     1       3.373   5.399  19.517  0.00  0.00    +0.000 N 
ATOM      9  N   UNL     1       2.570   4.440  20.115  0.00  0.00    +0.000 NA
ATOM     10  C   UNL     1       3.059   3.255  20.274  0.00  0.00    +0.000 A 
ATOM     11  C   UNL     1       4.449   2.894  19.877  0.00  0.00    +0.000 A 
ATOM     12  O   UNL     1       4.852   1.751  20.059  0.00  0.00    +0.000 OA
ATOM     13  N   UNL     1       5.172   3.897  19.335  0.00  0.00    +0.000 N 
ATOM     14  C   UNL     1       4.701   5.160  19.121  0.00  0.00    +0.000 A 
ATOM     15  O   UNL     1       5.484   5.968  18.626  0.00  0.00    +0.000 OA
ATOM     16  H   UNL     1       6.124   3.726  19.060  0.00  0.00    +0.000 HD
ENDBRANCH   4   8
BRANCH   7  17
ATOM     17  C   UNL     1       1.007  10.604  18.632  0.00  0.00    +0.000 C 
BRANCH  17  18
ATOM     18  C   UNL     1      -0.490  10.733  18.369  0.00  0.00    +0.000 A 
ATOM     19  C   UNL     1      -1.173   9.832  17.535  0.00  0.00    +0.000 A 
ATOM     20  C   UNL     1      -2.559   9.890  17.388  0.00  0.00    +0.000 A 
ATOM     21  C   UNL     1      -3.290  10.845  18.081  0.00  0.00    +0.000 A 
ATOM     22  C   UNL     1      -2.634  11.763  18.899  0.00  0.00    +0.000 A 
ATOM     23  C   UNL     1      -1.242  11.715  19.037  0.00  0.00    +0.000 A 
ENDBRANCH  17  18
BRANCH  17  24
ATOM     24  O   UNL     1       1.333  11.380  19.789  0.00  0.00    +0.000 OA
ATOM     25  H   UNL     1       1.997  12.031  19.506  0.00  0.00    +0.000 HD
ENDBRANCH  17  24
ENDBRANCH   7  17
TORSDOF 4
ENDMDL
MODEL 4
REMARK VINA RESULT:      -7.9      1.752      2.418
REMARK  Name = 
REMARK  5 active torsions:
REMARK  status: ('A' for Active; 'I' for Inactive)
REMARK    1  A    between atoms: C_1  and  C_2
REMARK    2  A    between atoms: C_4  and  N_5
REMARK    3  A    between atoms: C_15  and  C_16
REMARK    4  A    between atoms: C_16  and  O_17
REMARK    5  A    between atoms: C_16  and  C_18
REMARK                            x       y       z     vdW  Elec       q    Type
REMARK                         _______ _______ _______ _____ _____    ______ ____
ROOT
ATOM      1  C   UNL     1       2.278   9.558  17.725  0.00  0.00    +0.000 C 
ATOM      2  C   UNL     1       2.080   8.484  18.762  0.00  0.00    +0.000 A 
ATOM      3  C   UNL     1       2.516   7.187  18.453  0.00  0.00    +0.000 A 
ATOM      4  C   UNL     1       2.318   6.102  19.316  0.00  0.00    +0.000 A 
ATOM      5  C   UNL     1       1.695   6.349  20.542  0.00  0.00    +0.000 A 
ATOM      6  C   UNL     1       1.288   7.638  20.887  0.00  0.00    +0.000 A 
ATOM      7  C   UNL     1       1.440   8.720  19.993  0.00  0.00    +0.000 A 
ENDROOT
BRANCH   4   8
ATOM      8  N   UNL     1       2.695   4.773  18.943  0.00  0.00    +0.000 N 
ATOM      9  N   UNL     1       3.792   4.288  19.637  0.00  0.00    +0.000 NA
ATOM     10  C   UNL     1       4.135   3.058  19.445  0.00  0.00    +0.000 A 
ATOM     11  C   UNL     1       3.426   2.162  18.489  0.00  0.00    +0.000 A 
ATOM     12  O   UNL     1       3.805   1.005  18.350  0.00  0.00    +0.000 OA
ATOM     13  N   UNL     1       2.392   2.726  17.829  0.00  0.00    +0.000 N 
ATOM     14  C   UNL     1       1.971   4.012  18.009  0.00  0.00    +0.000 A 
ATOM     15  O   UNL     1       1.018   4.385  17.327  0.00  0.00    +0.000 OA
ATOM     16  H   UNL     1       1.880   2.181  17.156  0.00  0.00    +0.000 HD
ENDBRANCH   4   8
BRANCH   7  17
ATOM     17  C   UNL     1       0.797  10.066  20.310  0.00  0.00    +0.000 C 
BRANCH  17  18
ATOM     18  C   UNL     1      -0.236  10.526  19.286  0.00  0.00    +0.000 A 
ATOM     19  C   UNL     1      -1.230   9.661  18.799  0.00  0.00    +0.000 A 
ATOM     20  C   UNL     1      -2.236  10.118  17.949  0.00  0.00    +0.000 A 
ATOM     21  C   UNL     1      -2.274  11.456  17.577  0.00  0.00    +0.000 A 
ATOM     22  C   UNL     1      -1.288  12.330  18.031  0.00  0.00    +0.000 A 
ATOM     23  C   UNL     1      -0.270  11.869  18.873  0.00  0.00    +0.000 A 
ENDBRANCH  17  18
BRANCH  17  24
ATOM     24  O   UNL     1       0.165   9.996  21.592  0.00  0.00    +0.000 OA
ATOM     25  H   UNL     1       0.865   9.784  22.232  0.00  0.00    +0.000 HD
ENDBRANCH  17  24
ENDBRANCH   7  17
TORSDOF 4
ENDMDL
MODEL 5
REMARK VINA RESULT:      -7.9      2.303      3.436
REMARK  Name = 
REMARK  5 active torsions:
REMARK  status: ('A' for Active; 'I' for Inactive)
REMARK    1  A    between atoms: C_1  and  C_2
REMARK    2  A    between atoms: C_4  and  N_5
REMARK    3  A    between atoms: C_15  and  C_16
REMARK    4  A    between atoms: C_16  and  O_17
REMARK    5  A    between atoms: C_16  and  C_18
REMARK                            x       y       z     vdW  Elec       q    Type
REMARK                         _______ _______ _______ _____ _____    ______ ____
ROOT
ATOM      1  C   UNL     1       0.463   9.670  21.734  0.00  0.00    +0.000 C 
ATOM      2  C   UNL     1       1.000   9.118  20.441  0.00  0.00    +0.000 A 
ATOM      3  C   UNL     1       1.599   7.848  20.470  0.00  0.00    +0.000 A 
ATOM      4  C   UNL     1       2.190   7.271  19.339  0.00  0.00    +0.000 A 
ATOM      5  C   UNL     1       2.140   7.985  18.139  0.00  0.00    +0.000 A 
ATOM      6  C   UNL     1       1.517   9.233  18.079  0.00  0.00    +0.000 A 
ATOM      7  C   UNL     1       0.968   9.836  19.232  0.00  0.00    +0.000 A 
ENDROOT
BRANCH   4   8
ATOM      8  N   UNL     1       2.869   6.014  19.412  0.00  0.00    +0.000 N 
ATOM      9  N   UNL     1       4.163   6.048  18.919  0.00  0.00    +0.000 NA
ATOM     10  C   UNL     1       4.888   4.986  19.047  0.00  0.00    +0.000 A 
ATOM     11  C   UNL     1       4.378   3.729  19.662  0.00  0.00    +0.000 A 
ATOM     12  O   UNL     1       5.117   2.755  19.749  0.00  0.00    +0.000 OA
ATOM     13  N   UNL     1       3.095   3.772  20.083  0.00  0.00    +0.000 N 
ATOM     14  C   UNL     1       2.291   4.872  19.996  0.00  0.00    +0.000 A 
ATOM     15  O   UNL     1       1.142   4.754  20.415  0.00  0.00    +0.000 OA
ATOM     16  H   UNL     1       2.683   2.952  20.493  0.00  0.00    +0.000 HD
ENDBRANCH   4   8
BRANCH   7  17
ATOM     17  C   UNL     1       0.486  11.281  19.178  0.00  0.00    +0.000 C 
BRANCH  17  18
ATOM     18  C   UNL     1       1.596  12.320  19.306  0.00  0.00    +0.000 A 
ATOM     19  C   UNL     1       2.272  12.821  18.181  0.00  0.00    +0.000 A 
ATOM     20  C   UNL     1       3.207  13.848  18.296  0.00  0.00    +0.000 A 
ATOM     21  C   UNL     1       3.477  14.405  19.540  0.00  0.00    +0.000 A 
ATOM     22  C   UNL     1       2.834  13.912  20.674  0.00  0.00    +0.000 A 
ATOM     23  C   UNL     1       1.905  12.871  20.561  0.00  0.00    +0.000 A 
ENDBRANCH  17  18
BRANCH  17  24
ATOM     24  O   UNL     1      -0.202  11.504  17.943  0.00  0.00    +0.000 OA
ATOM     25  H   UNL     1       0.071  12.384  17.631  0.00  0.00    +0.000 HD
ENDBRANCH  17  24
ENDBRANCH   7  17
TORSDOF 4
ENDMDL
MODEL 6
REMARK VINA RESULT:      -7.9      3.972      8.022
REMARK  Name = 
REMARK  5 active torsions:
REMARK  status: ('A' for Active; 'I' for Inactive)
REMARK    1  A    between atoms: C_1  and  C_2
REMARK    2  A    between atoms: C_4  and  N_5
REMARK    3  A    between atoms: C_15  and  C_16
REMARK    4  A    between atoms: C_16  and  O_17
REMARK    5  A    between atoms: C_16  and  C_18
REMARK                            x       y       z     vdW  Elec       q    Type
REMARK                         _______ _______ _______ _____ _____    ______ ____
ROOT
ATOM      1  C   UNL     1       6.957   7.120  16.888  0.00  0.00    +0.000 C 
ATOM      2  C   UNL     1       5.609   6.493  17.124  0.00  0.00    +0.000 A 
ATOM      3  C   UNL     1       4.636   7.261  17.782  0.00  0.00    +0.000 A 
ATOM      4  C   UNL     1       3.374   6.753  18.112  0.00  0.00    +0.000 A 
ATOM      5  C   UNL     1       3.078   5.442  17.730  0.00  0.00    +0.000 A 
ATOM      6  C   UNL     1       4.016   4.672  17.040  0.00  0.00    +0.000 A 
ATOM      7  C   UNL     1       5.307   5.169  16.756  0.00  0.00    +0.000 A 
ENDROOT
BRANCH   4   8
ATOM      8  N   UNL     1       2.429   7.526  18.858  0.00  0.00    +0.000 N 
ATOM      9  N   UNL     1       2.146   7.005  20.110  0.00  0.00    +0.000 NA
ATOM     10  C   UNL     1       1.388   7.697  20.896  0.00  0.00    +0.000 A 
ATOM     11  C   UNL     1       0.785   8.999  20.498  0.00  0.00    +0.000 A 
ATOM     12  O   UNL     1       0.072   9.603  21.290  0.00  0.00    +0.000 OA
ATOM     13  N   UNL     1       1.085   9.415  19.249  0.00  0.00    +0.000 N 
ATOM     14  C   UNL     1       1.897   8.739  18.384  0.00  0.00    +0.000 A 
ATOM     15  O   UNL     1       2.069   9.241  17.276  0.00  0.00    +0.000 OA
ATOM     16  H   UNL     1       0.697  10.279  18.910  0.00  0.00    +0.000 HD
ENDBRANCH   4   8
BRANCH   7  17
ATOM     17  C   UNL     1       6.374   4.237  16.194  0.00  0.00    +0.000 C 
BRANCH  17  18
ATOM     18  C   UNL     1       6.542   4.312  14.680  0.00  0.00    +0.000 A 
ATOM     19  C   UNL     1       7.556   5.083  14.087  0.00  0.00    +0.000 A 
ATOM     20  C   UNL     1       7.771   5.060  12.709  0.00  0.00    +0.000 A 
ATOM     21  C   UNL     1       6.982   4.256  11.898  0.00  0.00    +0.000 A 
ATOM     22  C   UNL     1       5.957   3.497  12.459  0.00  0.00    +0.000 A 
ATOM     23  C   UNL     1       5.731   3.530  13.840  0.00  0.00    +0.000 A 
ENDBRANCH  17  18
BRANCH  17  24
ATOM     24  O   UNL     1       7.633   4.538  16.805  0.00  0.00    +0.000 OA
ATOM     25  H   UNL     1       7.432   5.018  17.626  0.00  0.00    +0.000 HD
ENDBRANCH  17  24
ENDBRANCH   7  17
TORSDOF 4
ENDMDL
MODEL 7
REMARK VINA RESULT:      -7.9      1.101      1.785
REMARK  Name = 
REMARK  5 active torsions:
REMARK  status: ('A' for Active; 'I' for Inactive)
REMARK    1  A    between atoms: C_1  and  C_2
REMARK    2  A    between atoms: C_4  and  N_5
REMARK    3  A    between atoms: C_15  and  C_16
REMARK    4  A    between atoms: C_16  and  O_17
REMARK    5  A    between atoms: C_16  and  C_18
REMARK                            x       y       z     vdW  Elec       q    Type
REMARK                         _______ _______ _______ _____ _____    ______ ____
ROOT
ATOM      1  C   UNL     1       0.633   9.202  21.476  0.00  0.00    +0.000 C 
ATOM      2  C   UNL     1       1.244   8.577  20.250  0.00  0.00    +0.000 A 
ATOM      3  C   UNL     1       1.764   7.278  20.367  0.00  0.00    +0.000 A 
ATOM      4  C   UNL     1       2.414   6.632  19.309  0.00  0.00    +0.000 A 
ATOM      5  C   UNL     1       2.508   7.307  18.089  0.00  0.00    +0.000 A 
ATOM      6  C   UNL     1       1.965   8.585  17.939  0.00  0.00    +0.000 A 
ATOM      7  C   UNL     1       1.357   9.256  19.023  0.00  0.00    +0.000 A 
ENDROOT
BRANCH   4   8
ATOM      8  N   UNL     1       3.009   5.342  19.476  0.00  0.00    +0.000 N 
ATOM      9  N   UNL     1       4.347   5.292  19.116  0.00  0.00    +0.000 NA
ATOM     10  C   UNL     1       4.993   4.196  19.338  0.00  0.00    +0.000 A 
ATOM     11  C   UNL     1       4.354   2.986  19.925  0.00  0.00    +0.000 A 
ATOM     12  O   UNL     1       5.024   1.976  20.106  0.00  0.00    +0.000 OA
ATOM     13  N   UNL     1       3.041   3.109  20.213  0.00  0.00    +0.000 N 
ATOM     14  C   UNL     1       2.313   4.249  20.023  0.00  0.00    +0.000 A 
ATOM     15  O   UNL     1       1.123   4.204  20.326  0.00  0.00    +0.000 OA
ATOM     16  H   UNL     1       2.544   2.324  20.597  0.00  0.00    +0.000 HD
ENDBRANCH   4   8
BRANCH   7  17
ATOM     17  C   UNL     1       0.966  10.723  18.886  0.00  0.00    +0.000 C 
BRANCH  17  18
ATOM     18  C   UNL     1      -0.517  10.957  18.615  0.00  0.00    +0.000 A 
ATOM     19  C   UNL     1      -1.239  10.152  17.718  0.00  0.00    +0.000 A 
ATOM     20  C   UNL     1      -2.616  10.301  17.559  0.00  0.00    +0.000 A 
ATOM     21  C   UNL     1      -3.301  11.252  18.303  0.00  0.00    +0.000 A 
ATOM     22  C   UNL     1      -2.604  12.076  19.185  0.00  0.00    +0.000 A 
ATOM     23  C   UNL     1      -1.220  11.937  19.335  0.00  0.00    +0.000 A 
ENDBRANCH  17  18
BRANCH  17  24
ATOM     24  O   UNL     1       1.323  11.420  20.084  0.00  0.00    +0.000 OA
ATOM     25  H   UNL     1       2.294  11.471  20.092  0.00  0.00    +0.000 HD
ENDBRANCH  17  24
ENDBRANCH   7  17
TORSDOF 4
ENDMDL
MODEL 8
REMARK VINA RESULT:      -7.9      3.097      7.721
REMARK  Name = 
REMARK  5 active torsions:
REMARK  status: ('A' for Active; 'I' for Inactive)
REMARK    1  A    between atoms: C_1  and  C_2
REMARK    2  A    between atoms: C_4  and  N_5
REMARK    3  A    between atoms: C_15  and  C_16
REMARK    4  A    between atoms: C_16  and  O_17
REMARK    5  A    between atoms: C_16  and  C_18
REMARK                            x       y       z     vdW  Elec       q    Type
REMARK                         _______ _______ _______ _____ _____    ______ ____
ROOT
ATOM      1  C   UNL     1       2.831   4.132  20.322  0.00  0.00    +0.000 C 
ATOM      2  C   UNL     1       3.028   5.387  19.514  0.00  0.00    +0.000 A 
ATOM      3  C   UNL     1       2.211   6.490  19.807  0.00  0.00    +0.000 A 
ATOM      4  C   UNL     1       2.264   7.680  19.072  0.00  0.00    +0.000 A 
ATOM      5  C   UNL     1       3.198   7.768  18.037  0.00  0.00    +0.000 A 
ATOM      6  C   UNL     1       4.047   6.697  17.752  0.00  0.00    +0.000 A 
ATOM      7  C   UNL     1       3.955   5.479  18.459  0.00  0.00    +0.000 A 
ENDROOT
BRANCH   4   8
ATOM      8  N   UNL     1       1.363   8.760  19.335  0.00  0.00    +0.000 N 
ATOM      9  N   UNL     1       0.911   9.401  18.193  0.00  0.00    +0.000 NA
ATOM     10  C   UNL     1       0.008  10.316  18.328  0.00  0.00    +0.000 A 
ATOM     11  C   UNL     1      -0.530  10.729  19.654  0.00  0.00    +0.000 A 
ATOM     12  O   UNL     1      -1.383  11.607  19.713  0.00  0.00    +0.000 OA
ATOM     13  N   UNL     1      -0.009  10.078  20.717  0.00  0.00    +0.000 N 
ATOM     14  C   UNL     1       0.928   9.089  20.632  0.00  0.00    +0.000 A 
ATOM     15  O   UNL     1       1.313   8.596  21.690  0.00  0.00    +0.000 OA
ATOM     16  H   UNL     1      -0.316  10.320  21.643  0.00  0.00    +0.000 HD
ENDBRANCH   4   8
BRANCH   7  17
ATOM     17  C   UNL     1       4.746   4.263  17.988  0.00  0.00    +0.000 C 
BRANCH  17  18
ATOM     18  C   UNL     1       5.470   4.460  16.659  0.00  0.00    +0.000 A 
ATOM     19  C   UNL     1       6.812   4.872  16.604  0.00  0.00    +0.000 A 
ATOM     20  C   UNL     1       7.498   4.943  15.393  0.00  0.00    +0.000 A 
ATOM     21  C   UNL     1       6.858   4.592  14.211  0.00  0.00    +0.000 A 
ATOM     22  C   UNL     1       5.521   4.200  14.237  0.00  0.00    +0.000 A 
ATOM     23  C   UNL     1       4.827   4.141  15.451  0.00  0.00    +0.000 A 
ENDBRANCH  17  18
BRANCH  17  24
ATOM     24  O   UNL     1       5.713   3.914  18.983  0.00  0.00    +0.000 OA
ATOM     25  H   UNL     1       5.980   2.998  18.797  0.00  0.00    +0.000 HD
ENDBRANCH  17  24
ENDBRANCH   7  17
TORSDOF 4
ENDMDL
MODEL 9
REMARK VINA RESULT:      -7.8      1.755      2.268
REMARK  Name = 
REMARK  5 active torsions:
REMARK  status: ('A' for Active; 'I' for Inactive)
REMARK    1  A    between atoms: C_1  and  C_2
REMARK    2  A    between atoms: C_4  and  N_5
REMARK    3  A    between atoms: C_15  and  C_16
REMARK    4  A    between atoms: C_16  and  O_17
REMARK    5  A    between atoms: C_16  and  C_18
REMARK                            x       y       z     vdW  Elec       q    Type
REMARK                         _______ _______ _______ _____ _____    ______ ____
ROOT
ATOM      1  C   UNL     1       2.217   9.635  17.770  0.00  0.00    +0.000 C 
ATOM      2  C   UNL     1       2.033   8.556  18.804  0.00  0.00    +0.000 A 
ATOM      3  C   UNL     1       2.468   7.261  18.484  0.00  0.00    +0.000 A 
ATOM      4  C   UNL     1       2.282   6.172  19.344  0.00  0.00    +0.000 A 
ATOM      5  C   UNL     1       1.672   6.411  20.578  0.00  0.00    +0.000 A 
ATOM      6  C   UNL     1       1.266   7.698  20.934  0.00  0.00    +0.000 A 
ATOM      7  C   UNL     1       1.405   8.785  20.043  0.00  0.00    +0.000 A 
ENDROOT
BRANCH   4   8
ATOM      8  N   UNL     1       2.658   4.846  18.961  0.00  0.00    +0.000 N 
ATOM      9  N   UNL     1       3.745   4.349  19.662  0.00  0.00    +0.000 NA
ATOM     10  C   UNL     1       4.085   3.119  19.460  0.00  0.00    +0.000 A 
ATOM     11  C   UNL     1       3.384   2.237  18.486  0.00  0.00    +0.000 A 
ATOM     12  O   UNL     1       3.760   1.079  18.339  0.00  0.00    +0.000 OA
ATOM     13  N   UNL     1       2.360   2.812  17.820  0.00  0.00    +0.000 N 
ATOM     14  C   UNL     1       1.942   4.097  18.010  0.00  0.00    +0.000 A 
ATOM     15  O   UNL     1       0.999   4.482  17.321  0.00  0.00    +0.000 OA
ATOM     16  H   UNL     1       1.854   2.277  17.136  0.00  0.00    +0.000 HD
ENDBRANCH   4   8
BRANCH   7  17
ATOM     17  C   UNL     1       0.763  10.127  20.373  0.00  0.00    +0.000 C 
BRANCH  17  18
ATOM     18  C   UNL     1      -0.329  10.559  19.399  0.00  0.00    +0.000 A 
ATOM     19  C   UNL     1      -0.406  11.875  18.912  0.00  0.00    +0.000 A 
ATOM     20  C   UNL     1      -1.338  12.234  17.939  0.00  0.00    +0.000 A 
ATOM     21  C   UNL     1      -2.206  11.279  17.425  0.00  0.00    +0.000 A 
ATOM     22  C   UNL     1      -2.163   9.972  17.906  0.00  0.00    +0.000 A 
ATOM     23  C   UNL     1      -1.238   9.614  18.892  0.00  0.00    +0.000 A 
ENDBRANCH  17  18
BRANCH  17  24
ATOM     24  O   UNL     1       0.201  10.071  21.688  0.00  0.00    +0.000 OA
ATOM     25  H   UNL     1      -0.681  10.476  21.627  0.00  0.00    +0.000 HD
ENDBRANCH  17  24
ENDBRANCH   7  17
TORSDOF 4
ENDMDL
