MODEL 1
REMARK VINA RESULT:      -6.7      0.000      0.000
REMARK  Name = 
REMARK  6 active torsions:
REMARK  status: ('A' for Active; 'I' for Inactive)
REMARK    1  A    between atoms: C_1  and  C_2
REMARK    2  A    between atoms: C_2  and  O_3
REMARK    3  A    between atoms: O_3  and  C_4
REMARK    4  A    between atoms: C_4  and  C_6
REMARK    5  A    between atoms: C_6  and  S_7
REMARK    6  A    between atoms: S_7  and  C_8
REMARK                            x       y       z     vdW  Elec       q    Type
REMARK                         _______ _______ _______ _____ _____    ______ ____
ROOT
ATOM      1  C   UNL     1       5.762   4.357  17.116  0.00  0.00    +0.000 A 
ATOM      2  N   UNL     1       5.860   4.241  18.412  0.00  0.00    +0.000 NA
ATOM      3  C   UNL     1       4.624   3.785  18.744  0.00  0.00    +0.000 A 
ATOM      4  N   UNL     1       4.191   3.486  19.931  0.00  0.00    +0.000 NA
ATOM      5  C   UNL     1       2.872   3.031  19.982  0.00  0.00    +0.000 A 
ATOM      6 CL   UNL     1       2.303   2.630  21.569  0.00  0.00    +0.000 Cl
ATOM      7  C   UNL     1       2.077   2.903  18.890  0.00  0.00    +0.000 A 
ATOM      8 CL   UNL     1       0.455   2.349  18.878  0.00  0.00    +0.000 Cl
ATOM      9  N   UNL     1       2.522   3.227  17.631  0.00  0.00    +0.000 N 
ATOM     10  C   UNL     1       3.798   3.670  17.497  0.00  0.00    +0.000 A 
ATOM     11  N   UNL     1       4.540   4.050  16.521  0.00  0.00    +0.000 NA
ATOM     12  H   UNL     1       1.908   3.100  16.840  0.00  0.00    +0.000 HD
ENDROOT
BRANCH   1  13
ATOM     13  S   UNL     1       7.086   4.890  16.124  0.00  0.00    +0.000 S 
BRANCH  13  14
ATOM     14  C   UNL     1       6.391   4.543  14.481  0.00  0.00    +0.000 C 
BRANCH  14  15
ATOM     15  C   UNL     1       7.357   4.854  13.357  0.00  0.00    +0.000 C 
ATOM     16  O   UNL     1       8.233   5.708  13.363  0.00  0.00    +0.000 OA
BRANCH  15  17
ATOM     17  O   UNL     1       7.041   4.074  12.279  0.00  0.00    +0.000 OA
BRANCH  17  19
ATOM     18  C   UNL     1       5.905   2.131  11.498  0.00  0.00    +0.000 C 
ATOM     19  C   UNL     1       5.809   3.349  12.399  0.00  0.00    +0.000 C 
ENDBRANCH  17  19
ENDBRANCH  15  17
ENDBRANCH  14  15
ENDBRANCH  13  14
ENDBRANCH   1  13
TORSDOF 5
ENDMDL
MODEL 2
REMARK VINA RESULT:      -6.6      4.630      6.693
REMARK  Name = 
REMARK  6 active torsions:
REMARK  status: ('A' for Active; 'I' for Inactive)
REMARK    1  A    between atoms: C_1  and  C_2
REMARK    2  A    between atoms: C_2  and  O_3
REMARK    3  A    between atoms: O_3  and  C_4
REMARK    4  A    between atoms: C_4  and  C_6
REMARK    5  A    between atoms: C_6  and  S_7
REMARK    6  A    between atoms: S_7  and  C_8
REMARK                            x       y       z     vdW  Elec       q    Type
REMARK                         _______ _______ _______ _____ _____    ______ ____
ROOT
ATOM      1  C   UNL     1       5.973   4.846  17.680  0.00  0.00    +0.000 A 
ATOM      2  N   UNL     1       6.876   5.594  17.108  0.00  0.00    +0.000 NA
ATOM      3  C   UNL     1       6.837   5.144  15.827  0.00  0.00    +0.000 A 
ATOM      4  N   UNL     1       7.542   5.572  14.823  0.00  0.00    +0.000 NA
ATOM      5  C   UNL     1       7.293   4.929  13.609  0.00  0.00    +0.000 A 
ATOM      6 CL   UNL     1       8.233   5.509  12.274  0.00  0.00    +0.000 Cl
ATOM      7  C   UNL     1       6.390   3.927  13.458  0.00  0.00    +0.000 A 
ATOM      8 CL   UNL     1       6.031   3.099  12.002  0.00  0.00    +0.000 Cl
ATOM      9  N   UNL     1       5.648   3.459  14.516  0.00  0.00    +0.000 N 
ATOM     10  C   UNL     1       5.827   4.039  15.731  0.00  0.00    +0.000 A 
ATOM     11  N   UNL     1       5.333   3.882  16.904  0.00  0.00    +0.000 NA
ATOM     12  H   UNL     1       4.972   2.726  14.361  0.00  0.00    +0.000 HD
ENDROOT
BRANCH   1  13
ATOM     13  S   UNL     1       5.562   5.000  19.363  0.00  0.00    +0.000 S 
BRANCH  13  14
ATOM     14  C   UNL     1       3.971   4.124  19.366  0.00  0.00    +0.000 C 
BRANCH  14  15
ATOM     15  C   UNL     1       4.098   2.675  19.787  0.00  0.00    +0.000 C 
ATOM     16  O   UNL     1       5.047   2.165  20.368  0.00  0.00    +0.000 OA
BRANCH  15  17
ATOM     17  O   UNL     1       3.004   1.990  19.338  0.00  0.00    +0.000 OA
BRANCH  17  19
ATOM     18  C   UNL     1       0.717   2.348  18.770  0.00  0.00    +0.000 C 
ATOM     19  C   UNL     1       1.750   2.432  19.879  0.00  0.00    +0.000 C 
ENDBRANCH  17  19
ENDBRANCH  15  17
ENDBRANCH  14  15
ENDBRANCH  13  14
ENDBRANCH   1  13
TORSDOF 5
ENDMDL
MODEL 3
REMARK VINA RESULT:      -6.5      4.828      6.890
REMARK  Name = 
REMARK  6 active torsions:
REMARK  status: ('A' for Active; 'I' for Inactive)
REMARK    1  A    between atoms: C_1  and  C_2
REMARK    2  A    between atoms: C_2  and  O_3
REMARK    3  A    between atoms: O_3  and  C_4
REMARK    4  A    between atoms: C_4  and  C_6
REMARK    5  A    between atoms: C_6  and  S_7
REMARK    6  A    between atoms: S_7  and  C_8
REMARK                            x       y       z     vdW  Elec       q    Type
REMARK                         _______ _______ _______ _____ _____    ______ ____
ROOT
ATOM      1  C   UNL     1       5.392   4.711  17.782  0.00  0.00    +0.000 A 
ATOM      2  N   UNL     1       4.900   3.888  16.898  0.00  0.00    +0.000 NA
ATOM      3  C   UNL     1       5.655   4.171  15.805  0.00  0.00    +0.000 A 
ATOM      4  N   UNL     1       5.583   3.611  14.635  0.00  0.00    +0.000 NA
ATOM      5  C   UNL     1       6.490   4.096  13.691  0.00  0.00    +0.000 A 
ATOM      6 CL   UNL     1       6.389   3.341  12.134  0.00  0.00    +0.000 Cl
ATOM      7  C   UNL     1       7.390   5.078  13.946  0.00  0.00    +0.000 A 
ATOM      8 CL   UNL     1       8.533   5.716  12.839  0.00  0.00    +0.000 Cl
ATOM      9  N   UNL     1       7.468   5.684  15.177  0.00  0.00    +0.000 N 
ATOM     10  C   UNL     1       6.623   5.263  16.153  0.00  0.00    +0.000 A 
ATOM     11  N   UNL     1       6.410   5.574  17.379  0.00  0.00    +0.000 NA
ATOM     12  H   UNL     1       8.164   6.398  15.335  0.00  0.00    +0.000 HD
ENDROOT
BRANCH   1  13
ATOM     13  S   UNL     1       4.815   4.777  19.421  0.00  0.00    +0.000 S 
BRANCH  13  14
ATOM     14  C   UNL     1       4.560   3.004  19.723  0.00  0.00    +0.000 C 
BRANCH  14  15
ATOM     15  C   UNL     1       3.173   2.689  20.243  0.00  0.00    +0.000 C 
ATOM     16  O   UNL     1       2.824   2.656  21.416  0.00  0.00    +0.000 OA
BRANCH  15  17
ATOM     17  O   UNL     1       2.372   2.361  19.186  0.00  0.00    +0.000 OA
BRANCH  17  19
ATOM     18  C   UNL     1       1.427   4.108  17.868  0.00  0.00    +0.000 C 
ATOM     19  C   UNL     1       1.198   3.173  19.042  0.00  0.00    +0.000 C 
ENDBRANCH  17  19
ENDBRANCH  15  17
ENDBRANCH  14  15
ENDBRANCH  13  14
ENDBRANCH   1  13
TORSDOF 5
ENDMDL
MODEL 4
REMARK VINA RESULT:      -6.4      4.761      6.977
REMARK  Name = 
REMARK  6 active torsions:
REMARK  status: ('A' for Active; 'I' for Inactive)
REMARK    1  A    between atoms: C_1  and  C_2
REMARK    2  A    between atoms: C_2  and  O_3
REMARK    3  A    between atoms: O_3  and  C_4
REMARK    4  A    between atoms: C_4  and  C_6
REMARK    5  A    between atoms: C_6  and  S_7
REMARK    6  A    between atoms: S_7  and  C_8
REMARK                            x       y       z     vdW  Elec       q    Type
REMARK                         _______ _______ _______ _____ _____    ______ ____
ROOT
ATOM      1  C   UNL     1       5.521   4.549  17.708  0.00  0.00    +0.000 A 
ATOM      2  N   UNL     1       6.407   5.418  17.306  0.00  0.00    +0.000 NA
ATOM      3  C   UNL     1       6.583   5.053  16.009  0.00  0.00    +0.000 A 
ATOM      4  N   UNL     1       7.364   5.614  15.135  0.00  0.00    +0.000 NA
ATOM      5  C   UNL     1       7.343   5.034  13.866  0.00  0.00    +0.000 A 
ATOM      6 CL   UNL     1       8.384   5.791  12.705  0.00  0.00    +0.000 Cl
ATOM      7  C   UNL     1       6.578   3.962  13.540  0.00  0.00    +0.000 A 
ATOM      8 CL   UNL     1       6.500   3.203  12.005  0.00  0.00    +0.000 Cl
ATOM      9  N   UNL     1       5.757   3.354  14.459  0.00  0.00    +0.000 N 
ATOM     10  C   UNL     1       5.715   3.865  15.716  0.00  0.00    +0.000 A 
ATOM     11  N   UNL     1       5.091   3.583  16.801  0.00  0.00    +0.000 NA
ATOM     12  H   UNL     1       5.187   2.572  14.174  0.00  0.00    +0.000 HD
ENDROOT
BRANCH   1  13
ATOM     13  S   UNL     1       4.880   4.549  19.325  0.00  0.00    +0.000 S 
BRANCH  13  14
ATOM     14  C   UNL     1       4.407   2.801  19.462  0.00  0.00    +0.000 C 
BRANCH  14  15
ATOM     15  C   UNL     1       2.912   2.586  19.351  0.00  0.00    +0.000 C 
ATOM     16  O   UNL     1       2.277   2.400  18.322  0.00  0.00    +0.000 OA
BRANCH  15  17
ATOM     17  O   UNL     1       2.356   2.714  20.593  0.00  0.00    +0.000 OA
BRANCH  17  19
ATOM     18  C   UNL     1       1.406   4.899  20.626  0.00  0.00    +0.000 C 
ATOM     19  C   UNL     1       1.103   3.411  20.626  0.00  0.00    +0.000 C 
ENDBRANCH  17  19
ENDBRANCH  15  17
ENDBRANCH  14  15
ENDBRANCH  13  14
ENDBRANCH   1  13
TORSDOF 5
ENDMDL
MODEL 5
REMARK VINA RESULT:      -6.4      2.874      3.953
REMARK  Name = 
REMARK  6 active torsions:
REMARK  status: ('A' for Active; 'I' for Inactive)
REMARK    1  A    between atoms: C_1  and  C_2
REMARK    2  A    between atoms: C_2  and  O_3
REMARK    3  A    between atoms: O_3  and  C_4
REMARK    4  A    between atoms: C_4  and  C_6
REMARK    5  A    between atoms: C_6  and  S_7
REMARK    6  A    between atoms: S_7  and  C_8
REMARK                            x       y       z     vdW  Elec       q    Type
REMARK                         _______ _______ _______ _____ _____    ______ ____
ROOT
ATOM      1  C   UNL     1       4.627   5.262  16.514  0.00  0.00    +0.000 A 
ATOM      2  N   UNL     1       4.278   6.391  17.067  0.00  0.00    +0.000 NA
ATOM      3  C   UNL     1       3.493   5.966  18.092  0.00  0.00    +0.000 A 
ATOM      4  N   UNL     1       2.894   6.702  18.979  0.00  0.00    +0.000 NA
ATOM      5  C   UNL     1       2.153   5.998  19.929  0.00  0.00    +0.000 A 
ATOM      6 CL   UNL     1       1.360   6.987  21.110  0.00  0.00    +0.000 Cl
ATOM      7  C   UNL     1       2.045   4.645  19.948  0.00  0.00    +0.000 A 
ATOM      8 CL   UNL     1       1.158   3.717  21.084  0.00  0.00    +0.000 Cl
ATOM      9  N   UNL     1       2.666   3.858  19.008  0.00  0.00    +0.000 N 
ATOM     10  C   UNL     1       3.413   4.469  18.054  0.00  0.00    +0.000 A 
ATOM     11  N   UNL     1       4.116   4.083  17.052  0.00  0.00    +0.000 NA
ATOM     12  H   UNL     1       2.579   2.854  19.067  0.00  0.00    +0.000 HD
ENDROOT
BRANCH   1  13
ATOM     13  S   UNL     1       5.681   5.186  15.134  0.00  0.00    +0.000 S 
BRANCH  13  14
ATOM     14  C   UNL     1       7.076   4.283  15.869  0.00  0.00    +0.000 C 
BRANCH  14  15
ATOM     15  C   UNL     1       7.561   4.904  17.163  0.00  0.00    +0.000 C 
ATOM     16  O   UNL     1       7.654   4.347  18.249  0.00  0.00    +0.000 OA
BRANCH  15  17
ATOM     17  O   UNL     1       7.808   6.231  16.948  0.00  0.00    +0.000 OA
BRANCH  17  19
ATOM     18  C   UNL     1       7.820   8.501  17.673  0.00  0.00    +0.000 C 
ATOM     19  C   UNL     1       7.760   7.052  18.123  0.00  0.00    +0.000 C 
ENDBRANCH  17  19
ENDBRANCH  15  17
ENDBRANCH  14  15
ENDBRANCH  13  14
ENDBRANCH   1  13
TORSDOF 5
ENDMDL
MODEL 6
REMARK VINA RESULT:      -6.3      1.965      3.008
REMARK  Name = 
REMARK  6 active torsions:
REMARK  status: ('A' for Active; 'I' for Inactive)
REMARK    1  A    between atoms: C_1  and  C_2
REMARK    2  A    between atoms: C_2  and  O_3
REMARK    3  A    between atoms: O_3  and  C_4
REMARK    4  A    between atoms: C_4  and  C_6
REMARK    5  A    between atoms: C_6  and  S_7
REMARK    6  A    between atoms: S_7  and  C_8
REMARK                            x       y       z     vdW  Elec       q    Type
REMARK                         _______ _______ _______ _____ _____    ______ ____
ROOT
ATOM      1  C   UNL     1       4.567   6.034  17.969  0.00  0.00    +0.000 A 
ATOM      2  N   UNL     1       3.757   5.348  17.211  0.00  0.00    +0.000 NA
ATOM      3  C   UNL     1       3.084   4.605  18.127  0.00  0.00    +0.000 A 
ATOM      4  N   UNL     1       2.134   3.748  17.898  0.00  0.00    +0.000 NA
ATOM      5  C   UNL     1       1.612   3.126  19.033  0.00  0.00    +0.000 A 
ATOM      6 CL   UNL     1       0.343   1.989  18.719  0.00  0.00    +0.000 Cl
ATOM      7  C   UNL     1       2.046   3.375  20.295  0.00  0.00    +0.000 A 
ATOM      8 CL   UNL     1       1.449   2.653  21.730  0.00  0.00    +0.000 Cl
ATOM      9  N   UNL     1       3.057   4.271  20.547  0.00  0.00    +0.000 N 
ATOM     10  C   UNL     1       3.612   4.924  19.494  0.00  0.00    +0.000 A 
ATOM     11  N   UNL     1       4.537   5.799  19.342  0.00  0.00    +0.000 NA
ATOM     12  H   UNL     1       3.338   4.444  21.501  0.00  0.00    +0.000 HD
ENDROOT
BRANCH   1  13
ATOM     13  S   UNL     1       5.681   7.205  17.326  0.00  0.00    +0.000 S 
BRANCH  13  14
ATOM     14  C   UNL     1       7.250   6.381  17.729  0.00  0.00    +0.000 C 
BRANCH  14  15
ATOM     15  C   UNL     1       7.565   5.228  16.799  0.00  0.00    +0.000 C 
ATOM     16  O   UNL     1       8.070   4.158  17.109  0.00  0.00    +0.000 OA
BRANCH  15  17
ATOM     17  O   UNL     1       7.268   5.604  15.518  0.00  0.00    +0.000 OA
BRANCH  17  19
ATOM     18  C   UNL     1       5.565   4.385  14.381  0.00  0.00    +0.000 C 
ATOM     19  C   UNL     1       7.061   4.519  14.603  0.00  0.00    +0.000 C 
ENDBRANCH  17  19
ENDBRANCH  15  17
ENDBRANCH  14  15
ENDBRANCH  13  14
ENDBRANCH   1  13
TORSDOF 5
ENDMDL
MODEL 7
REMARK VINA RESULT:      -6.3      4.148      5.143
REMARK  Name = 
REMARK  6 active torsions:
REMARK  status: ('A' for Active; 'I' for Inactive)
REMARK    1  A    between atoms: C_1  and  C_2
REMARK    2  A    between atoms: C_2  and  O_3
REMARK    3  A    between atoms: O_3  and  C_4
REMARK    4  A    between atoms: C_4  and  C_6
REMARK    5  A    between atoms: C_6  and  S_7
REMARK    6  A    between atoms: S_7  and  C_8
REMARK                            x       y       z     vdW  Elec       q    Type
REMARK                         _______ _______ _______ _____ _____    ______ ____
ROOT
ATOM      1  C   UNL     1       3.845   4.972  18.209  0.00  0.00    +0.000 A 
ATOM      2  N   UNL     1       3.601   5.999  17.441  0.00  0.00    +0.000 NA
ATOM      3  C   UNL     1       2.922   6.819  18.284  0.00  0.00    +0.000 A 
ATOM      4  N   UNL     1       2.452   8.001  18.020  0.00  0.00    +0.000 NA
ATOM      5  C   UNL     1       1.797   8.628  19.081  0.00  0.00    +0.000 A 
ATOM      6 CL   UNL     1       1.178  10.206  18.721  0.00  0.00    +0.000 Cl
ATOM      7  C   UNL     1       1.644   8.069  20.308  0.00  0.00    +0.000 A 
ATOM      8 CL   UNL     1       0.857   8.781  21.653  0.00  0.00    +0.000 Cl
ATOM      9  N   UNL     1       2.127   6.814  20.594  0.00  0.00    +0.000 N 
ATOM     10  C   UNL     1       2.784   6.142  19.616  0.00  0.00    +0.000 A 
ATOM     11  N   UNL     1       3.356   4.998  19.513  0.00  0.00    +0.000 NA
ATOM     12  H   UNL     1       2.011   6.440  21.525  0.00  0.00    +0.000 HD
ENDROOT
BRANCH   1  13
ATOM     13  S   UNL     1       4.736   3.584  17.657  0.00  0.00    +0.000 S 
BRANCH  13  14
ATOM     14  C   UNL     1       5.914   4.405  16.544  0.00  0.00    +0.000 C 
BRANCH  14  15
ATOM     15  C   UNL     1       7.159   4.889  17.259  0.00  0.00    +0.000 C 
ATOM     16  O   UNL     1       7.721   4.340  18.197  0.00  0.00    +0.000 OA
BRANCH  15  17
ATOM     17  O   UNL     1       7.519   6.101  16.740  0.00  0.00    +0.000 OA
BRANCH  17  19
ATOM     18  C   UNL     1       7.937   8.244  17.695  0.00  0.00    +0.000 C 
ATOM     19  C   UNL     1       6.865   7.231  17.334  0.00  0.00    +0.000 C 
ENDBRANCH  17  19
ENDBRANCH  15  17
ENDBRANCH  14  15
ENDBRANCH  13  14
ENDBRANCH   1  13
TORSDOF 5
ENDMDL
MODEL 8
REMARK VINA RESULT:      -6.3      4.778      6.976
REMARK  Name = 
REMARK  6 active torsions:
REMARK  status: ('A' for Active; 'I' for Inactive)
REMARK    1  A    between atoms: C_1  and  C_2
REMARK    2  A    between atoms: C_2  and  O_3
REMARK    3  A    between atoms: O_3  and  C_4
REMARK    4  A    between atoms: C_4  and  C_6
REMARK    5  A    between atoms: C_6  and  S_7
REMARK    6  A    between atoms: S_7  and  C_8
REMARK                            x       y       z     vdW  Elec       q    Type
REMARK                         _______ _______ _______ _____ _____    ______ ____
ROOT
ATOM      1  C   UNL     1       5.722   4.708  17.737  0.00  0.00    +0.000 A 
ATOM      2  N   UNL     1       6.628   5.518  17.262  0.00  0.00    +0.000 NA
ATOM      3  C   UNL     1       6.704   5.118  15.966  0.00  0.00    +0.000 A 
ATOM      4  N   UNL     1       7.460   5.617  15.034  0.00  0.00    +0.000 NA
ATOM      5  C   UNL     1       7.331   5.013  13.782  0.00  0.00    +0.000 A 
ATOM      6 CL   UNL     1       8.338   5.687  12.544  0.00  0.00    +0.000 Cl
ATOM      7  C   UNL     1       6.490   3.978  13.528  0.00  0.00    +0.000 A 
ATOM      8 CL   UNL     1       6.279   3.194  12.019  0.00  0.00    +0.000 Cl
ATOM      9  N   UNL     1       5.695   3.436  14.509  0.00  0.00    +0.000 N 
ATOM     10  C   UNL     1       5.757   3.974  15.754  0.00  0.00    +0.000 A 
ATOM     11  N   UNL     1       5.187   3.749  16.880  0.00  0.00    +0.000 NA
ATOM     12  H   UNL     1       5.068   2.680  14.277  0.00  0.00    +0.000 HD
ENDROOT
BRANCH   1  13
ATOM     13  S   UNL     1       5.182   4.777  19.388  0.00  0.00    +0.000 S 
BRANCH  13  14
ATOM     14  C   UNL     1       3.618   3.866  19.233  0.00  0.00    +0.000 C 
BRANCH  14  15
ATOM     15  C   UNL     1       2.403   4.738  19.478  0.00  0.00    +0.000 C 
ATOM     16  O   UNL     1       2.391   5.955  19.597  0.00  0.00    +0.000 OA
BRANCH  15  17
ATOM     17  O   UNL     1       1.309   3.932  19.630  0.00  0.00    +0.000 OA
BRANCH  17  19
ATOM     18  C   UNL     1       1.352   2.724  21.684  0.00  0.00    +0.000 C 
ATOM     19  C   UNL     1       1.584   2.638  20.186  0.00  0.00    +0.000 C 
ENDBRANCH  17  19
ENDBRANCH  15  17
ENDBRANCH  14  15
ENDBRANCH  13  14
ENDBRANCH   1  13
TORSDOF 5
ENDMDL
MODEL 9
REMARK VINA RESULT:      -6.3      2.804      3.818
REMARK  Name = 
REMARK  6 active torsions:
REMARK  status: ('A' for Active; 'I' for Inactive)
REMARK    1  A    between atoms: C_1  and  C_2
REMARK    2  A    between atoms: C_2  and  O_3
REMARK    3  A    between atoms: O_3  and  C_4
REMARK    4  A    between atoms: C_4  and  C_6
REMARK    5  A    between atoms: C_6  and  S_7
REMARK    6  A    between atoms: S_7  and  C_8
REMARK                            x       y       z     vdW  Elec       q    Type
REMARK                         _______ _______ _______ _____ _____    ______ ____
ROOT
ATOM      1  C   UNL     1       4.754   4.137  16.887  0.00  0.00    +0.000 A 
ATOM      2  N   UNL     1       4.412   3.102  17.604  0.00  0.00    +0.000 NA
ATOM      3  C   UNL     1       3.599   3.667  18.534  0.00  0.00    +0.000 A 
ATOM      4  N   UNL     1       2.969   3.063  19.497  0.00  0.00    +0.000 NA
ATOM      5  C   UNL     1       2.193   3.892  20.308  0.00  0.00    +0.000 A 
ATOM      6 CL   UNL     1       1.353   3.078  21.585  0.00  0.00    +0.000 Cl
ATOM      7  C   UNL     1       2.087   5.234  20.131  0.00  0.00    +0.000 A 
ATOM      8 CL   UNL     1       1.153   6.309  21.083  0.00  0.00    +0.000 Cl
ATOM      9  N   UNL     1       2.759   5.884  19.123  0.00  0.00    +0.000 N 
ATOM     10  C   UNL     1       3.529   5.145  18.285  0.00  0.00    +0.000 A 
ATOM     11  N   UNL     1       4.272   5.387  17.268  0.00  0.00    +0.000 NA
ATOM     12  H   UNL     1       2.639   6.880  19.011  0.00  0.00    +0.000 HD
ENDROOT
BRANCH   1  13
ATOM     13  S   UNL     1       5.794   4.008  15.499  0.00  0.00    +0.000 S 
BRANCH  13  14
ATOM     14  C   UNL     1       7.013   5.289  15.915  0.00  0.00    +0.000 C 
BRANCH  14  15
ATOM     15  C   UNL     1       7.651   5.075  17.272  0.00  0.00    +0.000 C 
ATOM     16  O   UNL     1       8.219   4.062  17.659  0.00  0.00    +0.000 OA
BRANCH  15  17
ATOM     17  O   UNL     1       7.421   6.179  18.044  0.00  0.00    +0.000 OA
BRANCH  17  19
ATOM     18  C   UNL     1       8.127   8.452  17.941  0.00  0.00    +0.000 C 
ATOM     19  C   UNL     1       7.232   7.399  17.314  0.00  0.00    +0.000 C 
ENDBRANCH  17  19
ENDBRANCH  15  17
ENDBRANCH  14  15
ENDBRANCH  13  14
ENDBRANCH   1  13
TORSDOF 5
ENDMDL
