MODEL 1
REMARK VINA RESULT:      -6.7      0.000      0.000
REMARK  Name = 
REMARK  7 active torsions:
REMARK  status: ('A' for Active; 'I' for Inactive)
REMARK    1  A    between atoms: C_1  and  C_2
REMARK    2  A    between atoms: C_2  and  C_3
REMARK    3  A    between atoms: C_2  and  C_4
REMARK    4  A    between atoms: C_7  and  C_8
REMARK    5  A    between atoms: N_13  and  C_14
REMARK    6  A    between atoms: C_15  and  C_16
REMARK    7  A    between atoms: C_16  and  O_17
REMARK                            x       y       z     vdW  Elec       q    Type
REMARK                         _______ _______ _______ _____ _____    ______ ____
ROOT
ATOM      1  C   UNL     1       3.681   5.838  17.871  0.00  0.00    +0.000 C 
ATOM      2  O   UNL     1       3.088   6.922  17.847  0.00  0.00    +0.000 OA
ATOM      3  N   UNL     1       3.131   4.754  18.592  0.00  0.00    +0.000 N 
ATOM      4  C   UNL     1       1.850   4.995  19.256  0.00  0.00    +0.000 C 
ATOM      5  C   UNL     1       1.137   3.699  19.684  0.00  0.00    +0.000 C 
ATOM      6  N   UNL     1       1.978   2.725  20.418  0.00  0.00    +0.000 NA
ATOM      7  C   UNL     1       2.249   3.203  21.779  0.00  0.00    +0.000 C 
ATOM      8  C   UNL     1       3.253   2.481  19.676  0.00  0.00    +0.000 C 
ATOM      9  C   UNL     1       3.996   3.765  19.246  0.00  0.00    +0.000 C 
ENDROOT
BRANCH   1  13
ATOM     10  C   UNL     1       6.364   4.944  15.595  0.00  0.00    +0.000 A 
ATOM     11  C   UNL     1       7.246   5.607  16.428  0.00  0.00    +0.000 A 
ATOM     12  S   UNL     1       6.405   6.291  17.756  0.00  0.00    +0.000 S 
ATOM     13  C   UNL     1       4.943   5.621  17.160  0.00  0.00    +0.000 A 
ATOM     14  N   UNL     1       5.049   4.947  16.031  0.00  0.00    +0.000 NA
BRANCH  10  16
ATOM     15  C   UNL     1       5.426   3.898  13.518  0.00  0.00    +0.000 C 
ATOM     16  C   UNL     1       6.691   4.258  14.298  0.00  0.00    +0.000 C 
ATOM     17  C   UNL     1       7.618   5.126  13.442  0.00  0.00    +0.000 C 
ENDBRANCH  10  16
ENDBRANCH   1  13
BRANCH   8  18
ATOM     18  C   UNL     1       3.006   1.571  18.449  0.00  0.00    +0.000 C 
BRANCH  18  19
ATOM     19  O   UNL     1       4.087   0.648  18.306  0.00  0.00    +0.000 OA
ATOM     20  H   UNL     1       3.674  -0.164  17.948  0.00  0.00    +0.000 HD
ENDBRANCH  18  19
ENDBRANCH   8  18
TORSDOF 4
ENDMDL
MODEL 2
REMARK VINA RESULT:      -6.7      1.506      2.536
REMARK  Name = 
REMARK  7 active torsions:
REMARK  status: ('A' for Active; 'I' for Inactive)
REMARK    1  A    between atoms: C_1  and  C_2
REMARK    2  A    between atoms: C_2  and  C_3
REMARK    3  A    between atoms: C_2  and  C_4
REMARK    4  A    between atoms: C_7  and  C_8
REMARK    5  A    between atoms: N_13  and  C_14
REMARK    6  A    between atoms: C_15  and  C_16
REMARK    7  A    between atoms: C_16  and  O_17
REMARK                            x       y       z     vdW  Elec       q    Type
REMARK                         _______ _______ _______ _____ _____    ______ ____
ROOT
ATOM      1  C   UNL     1       3.131   5.718  17.928  0.00  0.00    +0.000 C 
ATOM      2  O   UNL     1       2.315   6.640  17.818  0.00  0.00    +0.000 OA
ATOM      3  N   UNL     1       2.756   4.524  18.587  0.00  0.00    +0.000 N 
ATOM      4  C   UNL     1       1.382   4.458  19.081  0.00  0.00    +0.000 C 
ATOM      5  C   UNL     1       0.934   3.026  19.432  0.00  0.00    +0.000 C 
ATOM      6  N   UNL     1       1.876   2.256  20.277  0.00  0.00    +0.000 NA
ATOM      7  C   UNL     1       1.859   2.758  21.654  0.00  0.00    +0.000 C 
ATOM      8  C   UNL     1       3.256   2.320  19.703  0.00  0.00    +0.000 C 
ATOM      9  C   UNL     1       3.735   3.746  19.355  0.00  0.00    +0.000 C 
ENDROOT
BRANCH   1  13
ATOM     10  C   UNL     1       6.630   6.360  17.207  0.00  0.00    +0.000 A 
ATOM     11  C   UNL     1       6.507   5.571  16.078  0.00  0.00    +0.000 A 
ATOM     12  S   UNL     1       4.914   4.950  15.960  0.00  0.00    +0.000 S 
ATOM     13  C   UNL     1       4.488   5.806  17.384  0.00  0.00    +0.000 A 
ATOM     14  N   UNL     1       5.464   6.499  17.941  0.00  0.00    +0.000 NA
BRANCH  10  16
ATOM     15  C   UNL     1       7.732   8.564  17.666  0.00  0.00    +0.000 C 
ATOM     16  C   UNL     1       7.876   7.042  17.699  0.00  0.00    +0.000 C 
ATOM     17  C   UNL     1       8.236   6.569  19.110  0.00  0.00    +0.000 C 
ENDBRANCH  10  16
ENDBRANCH   1  13
BRANCH   8  18
ATOM     18  C   UNL     1       3.378   1.400  18.465  0.00  0.00    +0.000 C 
BRANCH  18  19
ATOM     19  O   UNL     1       4.470   0.496  18.639  0.00  0.00    +0.000 OA
ATOM     20  H   UNL     1       5.268   1.034  18.466  0.00  0.00    +0.000 HD
ENDBRANCH  18  19
ENDBRANCH   8  18
TORSDOF 4
ENDMDL
MODEL 3
REMARK VINA RESULT:      -6.0      3.287      5.979
REMARK  Name = 
REMARK  7 active torsions:
REMARK  status: ('A' for Active; 'I' for Inactive)
REMARK    1  A    between atoms: C_1  and  C_2
REMARK    2  A    between atoms: C_2  and  C_3
REMARK    3  A    between atoms: C_2  and  C_4
REMARK    4  A    between atoms: C_7  and  C_8
REMARK    5  A    between atoms: N_13  and  C_14
REMARK    6  A    between atoms: C_15  and  C_16
REMARK    7  A    between atoms: C_16  and  O_17
REMARK                            x       y       z     vdW  Elec       q    Type
REMARK                         _______ _______ _______ _____ _____    ______ ____
ROOT
ATOM      1  C   UNL     1       3.412   6.682  18.310  0.00  0.00    +0.000 C 
ATOM      2  O   UNL     1       4.351   6.933  17.547  0.00  0.00    +0.000 OA
ATOM      3  N   UNL     1       3.226   5.363  18.784  0.00  0.00    +0.000 N 
ATOM      4  C   UNL     1       4.203   4.369  18.344  0.00  0.00    +0.000 C 
ATOM      5  C   UNL     1       4.172   3.077  19.182  0.00  0.00    +0.000 C 
ATOM      6  N   UNL     1       2.827   2.492  19.395  0.00  0.00    +0.000 NA
ATOM      7  C   UNL     1       2.333   1.878  18.157  0.00  0.00    +0.000 C 
ATOM      8  C   UNL     1       1.879   3.539  19.886  0.00  0.00    +0.000 C 
ATOM      9  C   UNL     1       1.881   4.840  19.054  0.00  0.00    +0.000 C 
ENDROOT
BRANCH   1  13
ATOM     10  C   UNL     1       1.211   8.929  20.123  0.00  0.00    +0.000 A 
ATOM     11  C   UNL     1       0.964   9.592  18.934  0.00  0.00    +0.000 A 
ATOM     12  S   UNL     1       1.862   8.876  17.661  0.00  0.00    +0.000 S 
ATOM     13  C   UNL     1       2.475   7.714  18.762  0.00  0.00    +0.000 A 
ATOM     14  N   UNL     1       2.067   7.847  20.010  0.00  0.00    +0.000 NA
BRANCH  10  16
ATOM     15  C   UNL     1       0.261  10.750  21.559  0.00  0.00    +0.000 C 
ATOM     16  C   UNL     1       0.664   9.277  21.479  0.00  0.00    +0.000 C 
ATOM     17  C   UNL     1      -0.523   8.378  21.835  0.00  0.00    +0.000 C 
ENDBRANCH  10  16
ENDBRANCH   1  13
BRANCH   8  18
ATOM     18  C   UNL     1       2.141   3.858  21.377  0.00  0.00    +0.000 C 
BRANCH  18  19
ATOM     19  O   UNL     1       2.069   2.659  22.149  0.00  0.00    +0.000 OA
ATOM     20  H   UNL     1       2.377   2.918  23.041  0.00  0.00    +0.000 HD
ENDBRANCH  18  19
ENDBRANCH   8  18
TORSDOF 4
ENDMDL
MODEL 4
REMARK VINA RESULT:      -6.0      2.568      5.975
REMARK  Name = 
REMARK  7 active torsions:
REMARK  status: ('A' for Active; 'I' for Inactive)
REMARK    1  A    between atoms: C_1  and  C_2
REMARK    2  A    between atoms: C_2  and  C_3
REMARK    3  A    between atoms: C_2  and  C_4
REMARK    4  A    between atoms: C_7  and  C_8
REMARK    5  A    between atoms: N_13  and  C_14
REMARK    6  A    between atoms: C_15  and  C_16
REMARK    7  A    between atoms: C_16  and  O_17
REMARK                            x       y       z     vdW  Elec       q    Type
REMARK                         _______ _______ _______ _____ _____    ______ ____
ROOT
ATOM      1  C   UNL     1       3.395   6.834  17.886  0.00  0.00    +0.000 C 
ATOM      2  O   UNL     1       2.946   7.668  17.092  0.00  0.00    +0.000 OA
ATOM      3  N   UNL     1       4.742   6.418  17.779  0.00  0.00    +0.000 N 
ATOM      4  C   UNL     1       5.534   7.043  16.720  0.00  0.00    +0.000 C 
ATOM      5  C   UNL     1       7.051   6.842  16.900  0.00  0.00    +0.000 C 
ATOM      6  N   UNL     1       7.477   5.450  17.177  0.00  0.00    +0.000 NA
ATOM      7  C   UNL     1       7.360   4.627  15.969  0.00  0.00    +0.000 C 
ATOM      8  C   UNL     1       6.667   4.874  18.295  0.00  0.00    +0.000 C 
ATOM      9  C   UNL     1       5.142   5.051  18.133  0.00  0.00    +0.000 C 
ENDROOT
BRANCH   1  13
ATOM     10  C   UNL     1       1.457   4.756  20.145  0.00  0.00    +0.000 A 
ATOM     11  C   UNL     1       1.301   5.857  20.969  0.00  0.00    +0.000 A 
ATOM     12  S   UNL     1       2.120   7.210  20.309  0.00  0.00    +0.000 S 
ATOM     13  C   UNL     1       2.582   6.258  18.960  0.00  0.00    +0.000 A 
ATOM     14  N   UNL     1       2.181   5.002  18.991  0.00  0.00    +0.000 NA
BRANCH  10  16
ATOM     15  C   UNL     1       1.044   2.499  19.136  0.00  0.00    +0.000 C 
ATOM     16  C   UNL     1       0.942   3.366  20.392  0.00  0.00    +0.000 C 
ATOM     17  C   UNL     1       1.685   2.708  21.557  0.00  0.00    +0.000 C 
ENDBRANCH  10  16
ENDBRANCH   1  13
BRANCH   8  18
ATOM     18  C   UNL     1       7.129   5.446  19.656  0.00  0.00    +0.000 C 
BRANCH  18  19
ATOM     19  O   UNL     1       8.524   5.199  19.838  0.00  0.00    +0.000 OA
ATOM     20  H   UNL     1       8.605   4.900  20.766  0.00  0.00    +0.000 HD
ENDBRANCH  18  19
ENDBRANCH   8  18
TORSDOF 4
ENDMDL
MODEL 5
REMARK VINA RESULT:      -5.9      1.074      1.348
REMARK  Name = 
REMARK  7 active torsions:
REMARK  status: ('A' for Active; 'I' for Inactive)
REMARK    1  A    between atoms: C_1  and  C_2
REMARK    2  A    between atoms: C_2  and  C_3
REMARK    3  A    between atoms: C_2  and  C_4
REMARK    4  A    between atoms: C_7  and  C_8
REMARK    5  A    between atoms: N_13  and  C_14
REMARK    6  A    between atoms: C_15  and  C_16
REMARK    7  A    between atoms: C_16  and  O_17
REMARK                            x       y       z     vdW  Elec       q    Type
REMARK                         _______ _______ _______ _____ _____    ______ ____
ROOT
ATOM      1  C   UNL     1       4.306   6.027  17.699  0.00  0.00    +0.000 C 
ATOM      2  O   UNL     1       4.099   7.238  17.832  0.00  0.00    +0.000 OA
ATOM      3  N   UNL     1       3.509   5.097  18.405  0.00  0.00    +0.000 N 
ATOM      4  C   UNL     1       2.450   5.653  19.246  0.00  0.00    +0.000 C 
ATOM      5  C   UNL     1       1.401   4.608  19.669  0.00  0.00    +0.000 C 
ATOM      6  N   UNL     1       1.949   3.344  20.214  0.00  0.00    +0.000 NA
ATOM      7  C   UNL     1       2.495   3.559  21.558  0.00  0.00    +0.000 C 
ATOM      8  C   UNL     1       2.994   2.795  19.295  0.00  0.00    +0.000 C 
ATOM      9  C   UNL     1       4.067   3.820  18.867  0.00  0.00    +0.000 C 
ENDROOT
BRANCH   1  13
ATOM     10  C   UNL     1       6.416   4.948  14.949  0.00  0.00    +0.000 A 
ATOM     11  C   UNL     1       7.374   4.575  15.875  0.00  0.00    +0.000 A 
ATOM     12  S   UNL     1       6.831   4.928  17.463  0.00  0.00    +0.000 S 
ATOM     13  C   UNL     1       5.352   5.505  16.816  0.00  0.00    +0.000 A 
ATOM     14  N   UNL     1       5.257   5.467  15.500  0.00  0.00    +0.000 NA
BRANCH  10  16
ATOM     15  C   UNL     1       7.934   5.214  12.972  0.00  0.00    +0.000 C 
ATOM     16  C   UNL     1       6.526   4.857  13.453  0.00  0.00    +0.000 C 
ATOM     17  C   UNL     1       6.130   3.463  12.961  0.00  0.00    +0.000 C 
ENDBRANCH  10  16
ENDBRANCH   1  13
BRANCH   8  18
ATOM     18  C   UNL     1       2.344   2.151  18.049  0.00  0.00    +0.000 C 
BRANCH  18  19
ATOM     19  O   UNL     1       1.133   1.490  18.420  0.00  0.00    +0.000 OA
ATOM     20  H   UNL     1       1.041   1.660  19.379  0.00  0.00    +0.000 HD
ENDBRANCH  18  19
ENDBRANCH   8  18
TORSDOF 4
ENDMDL
MODEL 6
REMARK VINA RESULT:      -5.8      0.965      1.260
REMARK  Name = 
REMARK  7 active torsions:
REMARK  status: ('A' for Active; 'I' for Inactive)
REMARK    1  A    between atoms: C_1  and  C_2
REMARK    2  A    between atoms: C_2  and  C_3
REMARK    3  A    between atoms: C_2  and  C_4
REMARK    4  A    between atoms: C_7  and  C_8
REMARK    5  A    between atoms: N_13  and  C_14
REMARK    6  A    between atoms: C_15  and  C_16
REMARK    7  A    between atoms: C_16  and  O_17
REMARK                            x       y       z     vdW  Elec       q    Type
REMARK                         _______ _______ _______ _____ _____    ______ ____
ROOT
ATOM      1  C   UNL     1       3.743   5.966  18.716  0.00  0.00    +0.000 C 
ATOM      2  O   UNL     1       3.418   7.102  19.077  0.00  0.00    +0.000 OA
ATOM      3  N   UNL     1       3.001   4.848  19.163  0.00  0.00    +0.000 N 
ATOM      4  C   UNL     1       1.855   5.131  20.027  0.00  0.00    +0.000 C 
ATOM      5  C   UNL     1       0.888   3.939  20.158  0.00  0.00    +0.000 C 
ATOM      6  N   UNL     1       1.523   2.638  20.470  0.00  0.00    +0.000 NA
ATOM      7  C   UNL     1       1.981   2.611  21.863  0.00  0.00    +0.000 C 
ATOM      8  C   UNL     1       2.658   2.378  19.532  0.00  0.00    +0.000 C 
ATOM      9  C   UNL     1       3.651   3.552  19.393  0.00  0.00    +0.000 C 
ENDROOT
BRANCH   1  13
ATOM     10  C   UNL     1       6.000   5.304  15.951  0.00  0.00    +0.000 A 
ATOM     11  C   UNL     1       7.061   5.452  16.826  0.00  0.00    +0.000 A 
ATOM     12  S   UNL     1       6.484   5.830  18.396  0.00  0.00    +0.000 S 
ATOM     13  C   UNL     1       4.874   5.725  17.817  0.00  0.00    +0.000 A 
ATOM     14  N   UNL     1       4.751   5.449  16.532  0.00  0.00    +0.000 NA
BRANCH  10  16
ATOM     15  C   UNL     1       7.511   5.173  13.955  0.00  0.00    +0.000 C 
ATOM     16  C   UNL     1       6.080   5.025  14.476  0.00  0.00    +0.000 C 
ATOM     17  C   UNL     1       5.535   3.631  14.154  0.00  0.00    +0.000 C 
ENDBRANCH  10  16
ENDBRANCH   1  13
BRANCH   8  18
ATOM     18  C   UNL     1       2.132   1.957  18.139  0.00  0.00    +0.000 C 
BRANCH  18  19
ATOM     19  O   UNL     1       2.731   2.768  17.128  0.00  0.00    +0.000 OA
ATOM     20  H   UNL     1       2.102   2.738  16.379  0.00  0.00    +0.000 HD
ENDBRANCH  18  19
ENDBRANCH   8  18
TORSDOF 4
ENDMDL
MODEL 7
REMARK VINA RESULT:      -5.7      2.441      3.570
REMARK  Name = 
REMARK  7 active torsions:
REMARK  status: ('A' for Active; 'I' for Inactive)
REMARK    1  A    between atoms: C_1  and  C_2
REMARK    2  A    between atoms: C_2  and  C_3
REMARK    3  A    between atoms: C_2  and  C_4
REMARK    4  A    between atoms: C_7  and  C_8
REMARK    5  A    between atoms: N_13  and  C_14
REMARK    6  A    between atoms: C_15  and  C_16
REMARK    7  A    between atoms: C_16  and  O_17
REMARK                            x       y       z     vdW  Elec       q    Type
REMARK                         _______ _______ _______ _____ _____    ______ ____
ROOT
ATOM      1  C   UNL     1       6.685   5.356  15.812  0.00  0.00    +0.000 C 
ATOM      2  O   UNL     1       7.503   6.213  16.166  0.00  0.00    +0.000 OA
ATOM      3  N   UNL     1       5.698   4.911  16.722  0.00  0.00    +0.000 N 
ATOM      4  C   UNL     1       5.703   5.535  18.045  0.00  0.00    +0.000 C 
ATOM      5  C   UNL     1       4.401   5.295  18.831  0.00  0.00    +0.000 C 
ATOM      6  N   UNL     1       3.934   3.889  18.871  0.00  0.00    +0.000 NA
ATOM      7  C   UNL     1       4.789   3.089  19.754  0.00  0.00    +0.000 C 
ATOM      8  C   UNL     1       3.906   3.314  17.491  0.00  0.00    +0.000 C 
ATOM      9  C   UNL     1       5.205   3.529  16.685  0.00  0.00    +0.000 C 
ENDROOT
BRANCH   1  13
ATOM     10  C   UNL     1       6.050   3.579  12.711  0.00  0.00    +0.000 A 
ATOM     11  C   UNL     1       7.156   4.205  12.165  0.00  0.00    +0.000 A 
ATOM     12  S   UNL     1       7.864   5.262  13.315  0.00  0.00    +0.000 S 
ATOM     13  C   UNL     1       6.687   4.782  14.465  0.00  0.00    +0.000 A 
ATOM     14  N   UNL     1       5.798   3.907  14.033  0.00  0.00    +0.000 NA
BRANCH  10  16
ATOM     15  C   UNL     1       4.142   3.357  11.100  0.00  0.00    +0.000 C 
ATOM     16  C   UNL     1       5.122   2.622  12.017  0.00  0.00    +0.000 C 
ATOM     17  C   UNL     1       5.911   1.576  11.226  0.00  0.00    +0.000 C 
ENDBRANCH  10  16
ENDBRANCH   1  13
BRANCH   8  18
ATOM     18  C   UNL     1       2.691   3.853  16.698  0.00  0.00    +0.000 C 
BRANCH  18  19
ATOM     19  O   UNL     1       1.486   3.591  17.419  0.00  0.00    +0.000 OA
ATOM     20  H   UNL     1       0.834   4.221  17.053  0.00  0.00    +0.000 HD
ENDBRANCH  18  19
ENDBRANCH   8  18
TORSDOF 4
ENDMDL
MODEL 8
REMARK VINA RESULT:      -5.6      3.733      5.853
REMARK  Name = 
REMARK  7 active torsions:
REMARK  status: ('A' for Active; 'I' for Inactive)
REMARK    1  A    between atoms: C_1  and  C_2
REMARK    2  A    between atoms: C_2  and  C_3
REMARK    3  A    between atoms: C_2  and  C_4
REMARK    4  A    between atoms: C_7  and  C_8
REMARK    5  A    between atoms: N_13  and  C_14
REMARK    6  A    between atoms: C_15  and  C_16
REMARK    7  A    between atoms: C_16  and  O_17
REMARK                            x       y       z     vdW  Elec       q    Type
REMARK                         _______ _______ _______ _____ _____    ______ ____
ROOT
ATOM      1  C   UNL     1       3.158   6.977  18.308  0.00  0.00    +0.000 C 
ATOM      2  O   UNL     1       4.033   7.306  17.500  0.00  0.00    +0.000 OA
ATOM      3  N   UNL     1       3.068   5.632  18.736  0.00  0.00    +0.000 N 
ATOM      4  C   UNL     1       4.064   4.709  18.195  0.00  0.00    +0.000 C 
ATOM      5  C   UNL     1       4.151   3.385  18.978  0.00  0.00    +0.000 C 
ATOM      6  N   UNL     1       2.854   2.722  19.248  0.00  0.00    +0.000 NA
ATOM      7  C   UNL     1       2.313   2.132  18.018  0.00  0.00    +0.000 C 
ATOM      8  C   UNL     1       1.888   3.698  19.840  0.00  0.00    +0.000 C 
ATOM      9  C   UNL     1       1.771   5.029  19.066  0.00  0.00    +0.000 C 
ENDROOT
BRANCH   1  13
ATOM     10  C   UNL     1       0.731   9.601  18.946  0.00  0.00    +0.000 A 
ATOM     11  C   UNL     1       0.717   9.217  20.275  0.00  0.00    +0.000 A 
ATOM     12  S   UNL     1       1.768   7.884  20.517  0.00  0.00    +0.000 S 
ATOM     13  C   UNL     1       2.201   7.939  18.859  0.00  0.00    +0.000 A 
ATOM     14  N   UNL     1       1.595   8.870  18.147  0.00  0.00    +0.000 NA
BRANCH  10  16
ATOM     15  C   UNL     1      -1.514  10.217  18.018  0.00  0.00    +0.000 C 
ATOM     16  C   UNL     1      -0.089  10.689  18.313  0.00  0.00    +0.000 C 
ATOM     17  C   UNL     1      -0.112  11.938  19.198  0.00  0.00    +0.000 C 
ENDBRANCH  10  16
ENDBRANCH   1  13
BRANCH   8  18
ATOM     18  C   UNL     1       2.228   3.972  21.325  0.00  0.00    +0.000 C 
BRANCH  18  19
ATOM     19  O   UNL     1       1.901   2.828  22.116  0.00  0.00    +0.000 OA
ATOM     20  H   UNL     1       2.652   2.731  22.735  0.00  0.00    +0.000 HD
ENDBRANCH  18  19
ENDBRANCH   8  18
TORSDOF 4
ENDMDL
MODEL 9
REMARK VINA RESULT:      -5.5      2.216      5.817
REMARK  Name = 
REMARK  7 active torsions:
REMARK  status: ('A' for Active; 'I' for Inactive)
REMARK    1  A    between atoms: C_1  and  C_2
REMARK    2  A    between atoms: C_2  and  C_3
REMARK    3  A    between atoms: C_2  and  C_4
REMARK    4  A    between atoms: C_7  and  C_8
REMARK    5  A    between atoms: N_13  and  C_14
REMARK    6  A    between atoms: C_15  and  C_16
REMARK    7  A    between atoms: C_16  and  O_17
REMARK                            x       y       z     vdW  Elec       q    Type
REMARK                         _______ _______ _______ _____ _____    ______ ____
ROOT
ATOM      1  C   UNL     1       3.211   6.838  17.606  0.00  0.00    +0.000 C 
ATOM      2  O   UNL     1       2.821   7.894  17.096  0.00  0.00    +0.000 OA
ATOM      3  N   UNL     1       4.350   6.185  17.082  0.00  0.00    +0.000 N 
ATOM      4  C   UNL     1       5.018   6.842  15.959  0.00  0.00    +0.000 C 
ATOM      5  C   UNL     1       6.435   6.298  15.696  0.00  0.00    +0.000 C 
ATOM      6  N   UNL     1       6.547   4.822  15.636  0.00  0.00    +0.000 NA
ATOM      7  C   UNL     1       5.960   4.313  14.391  0.00  0.00    +0.000 C 
ATOM      8  C   UNL     1       5.888   4.204  16.827  0.00  0.00    +0.000 C 
ATOM      9  C   UNL     1       4.460   4.722  17.105  0.00  0.00    +0.000 C 
ENDROOT
BRANCH   1  13
ATOM     10  C   UNL     1       1.573   4.692  20.032  0.00  0.00    +0.000 A 
ATOM     11  C   UNL     1       1.518   5.770  20.898  0.00  0.00    +0.000 A 
ATOM     12  S   UNL     1       2.246   7.144  20.178  0.00  0.00    +0.000 S 
ATOM     13  C   UNL     1       2.538   6.230  18.757  0.00  0.00    +0.000 A 
ATOM     14  N   UNL     1       2.147   4.971  18.803  0.00  0.00    +0.000 NA
BRANCH  10  16
ATOM     15  C   UNL     1       1.224   2.406  19.065  0.00  0.00    +0.000 C 
ATOM     16  C   UNL     1       1.095   3.293  20.304  0.00  0.00    +0.000 C 
ATOM     17  C   UNL     1       1.853   2.678  21.483  0.00  0.00    +0.000 C 
ENDBRANCH  10  16
ENDBRANCH   1  13
BRANCH   8  18
ATOM     18  C   UNL     1       6.770   4.369  18.088  0.00  0.00    +0.000 C 
BRANCH  18  19
ATOM     19  O   UNL     1       8.132   4.083  17.767  0.00  0.00    +0.000 OA
ATOM     20  H   UNL     1       8.400   4.799  17.157  0.00  0.00    +0.000 HD
ENDBRANCH  18  19
ENDBRANCH   8  18
TORSDOF 4
ENDMDL
