MODEL 1
REMARK VINA RESULT:      -7.2      0.000      0.000
REMARK  Name = 
REMARK  8 active torsions:
REMARK  status: ('A' for Active; 'I' for Inactive)
REMARK    1  A    between atoms: C_1  and  C_2
REMARK    2  A    between atoms: C_5  and  S_6
REMARK    3  A    between atoms: S_6  and  N_9
REMARK    4  A    between atoms: N_9  and  N_22
REMARK    5  A    between atoms: N_13  and  C_14
REMARK    6  A    between atoms: N_13  and  C_15
REMARK    7  A    between atoms: N_18  and  C_19
REMARK    8  A    between atoms: N_18  and  C_20
REMARK                            x       y       z     vdW  Elec       q    Type
REMARK                         _______ _______ _______ _____ _____    ______ ____
ROOT
ATOM      1  N   UNL     1       0.106  11.495  20.218  0.00  0.00    +0.000 N 
ATOM      2  C   UNL     1      -1.252  11.797  20.001  0.00  0.00    +0.000 A 
ATOM      3  N   UNL     1      -1.973  12.408  20.927  0.00  0.00    +0.000 NA
ATOM      4  C   UNL     1      -3.239  12.628  20.580  0.00  0.00    +0.000 A 
ATOM      5  N   UNL     1      -4.077  13.316  21.434  0.00  0.00    +0.000 N 
ATOM      6  C   UNL     1      -3.733  13.507  22.831  0.00  0.00    +0.000 C 
ATOM      7  C   UNL     1      -5.456  13.580  21.054  0.00  0.00    +0.000 C 
ATOM      8  N   UNL     1      -3.718  12.262  19.390  0.00  0.00    +0.000 NA
ATOM      9  C   UNL     1      -2.900  11.685  18.516  0.00  0.00    +0.000 A 
ATOM     10  N   UNL     1      -3.340  11.429  17.226  0.00  0.00    +0.000 N 
ATOM     11  C   UNL     1      -2.436  10.704  16.342  0.00  0.00    +0.000 C 
ATOM     12  C   UNL     1      -4.759  11.175  17.048  0.00  0.00    +0.000 C 
ATOM     13  N   UNL     1      -1.645  11.422  18.805  0.00  0.00    +0.000 NA
ENDROOT
BRANCH   1  14
ATOM     14  N   UNL     1       0.985  12.546  20.534  0.00  0.00    +0.000 N 
ATOM     15  C   UNL     1       2.088  12.840  19.792  0.00  0.00    +0.000 A 
ATOM     16  N   UNL     1       2.688  13.887  20.309  0.00  0.00    +0.000 NA
ATOM     17  N   UNL     1       1.964  14.272  21.424  0.00  0.00    +0.000 NA
ATOM     18  C   UNL     1       0.940  13.446  21.545  0.00  0.00    +0.000 A 
ENDBRANCH   1  14
BRANCH   1  19
ATOM     19  S   UNL     1       0.355  10.086  21.083  0.00  0.00    +0.000 S 
ATOM     20  O   UNL     1      -0.916   9.495  21.450  0.00  0.00    +0.000 OA
ATOM     21  O   UNL     1       1.346  10.359  22.108  0.00  0.00    +0.000 OA
BRANCH  19  26
ATOM     22  C   UNL     1       3.812   6.759  17.363  0.00  0.00    +0.000 C 
ATOM     23  C   UNL     1       2.811   7.489  18.215  0.00  0.00    +0.000 A 
ATOM     24  C   UNL     1       2.231   8.683  17.770  0.00  0.00    +0.000 A 
ATOM     25  C   UNL     1       1.406   9.430  18.619  0.00  0.00    +0.000 A 
ATOM     26  C   UNL     1       1.157   8.981  19.921  0.00  0.00    +0.000 A 
ATOM     27  C   UNL     1       1.702   7.774  20.364  0.00  0.00    +0.000 A 
ATOM     28  C   UNL     1       2.525   7.034  19.511  0.00  0.00    +0.000 A 
ENDBRANCH  19  26
ENDBRANCH   1  19
TORSDOF 3
ENDMDL
MODEL 2
REMARK VINA RESULT:      -6.9      0.713      1.183
REMARK  Name = 
REMARK  8 active torsions:
REMARK  status: ('A' for Active; 'I' for Inactive)
REMARK    1  A    between atoms: C_1  and  C_2
REMARK    2  A    between atoms: C_5  and  S_6
REMARK    3  A    between atoms: S_6  and  N_9
REMARK    4  A    between atoms: N_9  and  N_22
REMARK    5  A    between atoms: N_13  and  C_14
REMARK    6  A    between atoms: N_13  and  C_15
REMARK    7  A    between atoms: N_18  and  C_19
REMARK    8  A    between atoms: N_18  and  C_20
REMARK                            x       y       z     vdW  Elec       q    Type
REMARK                         _______ _______ _______ _____ _____    ______ ____
ROOT
ATOM      1  N   UNL     1       0.261  11.246  19.742  0.00  0.00    +0.000 N 
ATOM      2  C   UNL     1      -1.075  11.674  19.616  0.00  0.00    +0.000 A 
ATOM      3  N   UNL     1      -1.609  12.514  20.487  0.00  0.00    +0.000 NA
ATOM      4  C   UNL     1      -2.878  12.829  20.238  0.00  0.00    +0.000 A 
ATOM      5  N   UNL     1      -3.529  13.748  21.036  0.00  0.00    +0.000 N 
ATOM      6  C   UNL     1      -2.998  14.123  22.334  0.00  0.00    +0.000 C 
ATOM      7  C   UNL     1      -4.908  14.114  20.759  0.00  0.00    +0.000 C 
ATOM      8  N   UNL     1      -3.535  12.332  19.188  0.00  0.00    +0.000 NA
ATOM      9  C   UNL     1      -2.895  11.522  18.352  0.00  0.00    +0.000 A 
ATOM     10  N   UNL     1      -3.514  11.112  17.181  0.00  0.00    +0.000 N 
ATOM     11  C   UNL     1      -2.805  10.144  16.353  0.00  0.00    +0.000 C 
ATOM     12  C   UNL     1      -4.962  11.009  17.198  0.00  0.00    +0.000 C 
ATOM     13  N   UNL     1      -1.648  11.157  18.553  0.00  0.00    +0.000 NA
ENDROOT
BRANCH   1  14
ATOM     14  N   UNL     1       1.277  12.218  19.773  0.00  0.00    +0.000 N 
ATOM     15  C   UNL     1       2.083  12.483  18.709  0.00  0.00    +0.000 A 
ATOM     16  N   UNL     1       2.905  13.457  19.024  0.00  0.00    +0.000 NA
ATOM     17  N   UNL     1       2.635  13.822  20.331  0.00  0.00    +0.000 NA
ATOM     18  C   UNL     1       1.650  13.059  20.768  0.00  0.00    +0.000 A 
ENDBRANCH   1  14
BRANCH   1  19
ATOM     19  S   UNL     1       0.466   9.980  20.816  0.00  0.00    +0.000 S 
ATOM     20  O   UNL     1      -0.810   9.357  21.101  0.00  0.00    +0.000 OA
ATOM     21  O   UNL     1       1.299  10.450  21.907  0.00  0.00    +0.000 OA
BRANCH  19  26
ATOM     22  C   UNL     1       3.108   5.541  17.626  0.00  0.00    +0.000 C 
ATOM     23  C   UNL     1       2.625   6.704  18.448  0.00  0.00    +0.000 A 
ATOM     24  C   UNL     1       2.433   6.571  19.828  0.00  0.00    +0.000 A 
ATOM     25  C   UNL     1       1.856   7.611  20.567  0.00  0.00    +0.000 A 
ATOM     26  C   UNL     1       1.469   8.792  19.923  0.00  0.00    +0.000 A 
ATOM     27  C   UNL     1       1.687   8.949  18.553  0.00  0.00    +0.000 A 
ATOM     28  C   UNL     1       2.264   7.907  17.822  0.00  0.00    +0.000 A 
ENDBRANCH  19  26
ENDBRANCH   1  19
TORSDOF 3
ENDMDL
MODEL 3
REMARK VINA RESULT:      -6.5      1.402      1.587
REMARK  Name = 
REMARK  8 active torsions:
REMARK  status: ('A' for Active; 'I' for Inactive)
REMARK    1  A    between atoms: C_1  and  C_2
REMARK    2  A    between atoms: C_5  and  S_6
REMARK    3  A    between atoms: S_6  and  N_9
REMARK    4  A    between atoms: N_9  and  N_22
REMARK    5  A    between atoms: N_13  and  C_14
REMARK    6  A    between atoms: N_13  and  C_15
REMARK    7  A    between atoms: N_18  and  C_19
REMARK    8  A    between atoms: N_18  and  C_20
REMARK                            x       y       z     vdW  Elec       q    Type
REMARK                         _______ _______ _______ _____ _____    ______ ____
ROOT
ATOM      1  N   UNL     1      -0.530  12.418  19.634  0.00  0.00    +0.000 N 
ATOM      2  C   UNL     1      -1.928  12.560  19.725  0.00  0.00    +0.000 A 
ATOM      3  N   UNL     1      -2.475  13.419  20.569  0.00  0.00    +0.000 NA
ATOM      4  C   UNL     1      -3.805  13.444  20.541  0.00  0.00    +0.000 A 
ATOM      5  N   UNL     1      -4.493  14.345  21.329  0.00  0.00    +0.000 N 
ATOM      6  C   UNL     1      -3.844  15.026  22.434  0.00  0.00    +0.000 C 
ATOM      7  C   UNL     1      -5.946  14.394  21.290  0.00  0.00    +0.000 C 
ATOM      8  N   UNL     1      -4.508  12.664  19.718  0.00  0.00    +0.000 NA
ATOM      9  C   UNL     1      -3.861  11.860  18.883  0.00  0.00    +0.000 A 
ATOM     10  N   UNL     1      -4.567  11.150  17.924  0.00  0.00    +0.000 N 
ATOM     11  C   UNL     1      -3.818  10.207  17.102  0.00  0.00    +0.000 C 
ATOM     12  C   UNL     1      -5.934  10.782  18.244  0.00  0.00    +0.000 C 
ATOM     13  N   UNL     1      -2.549  11.774  18.875  0.00  0.00    +0.000 NA
ENDROOT
BRANCH   1  14
ATOM     14  N   UNL     1       0.242  13.554  19.334  0.00  0.00    +0.000 N 
ATOM     15  C   UNL     1      -0.088  14.807  19.752  0.00  0.00    +0.000 A 
ATOM     16  N   UNL     1       0.835  15.651  19.351  0.00  0.00    +0.000 NA
ATOM     17  N   UNL     1       1.778  14.930  18.641  0.00  0.00    +0.000 NA
ATOM     18  C   UNL     1       1.400  13.664  18.639  0.00  0.00    +0.000 A 
ENDBRANCH   1  14
BRANCH   1  19
ATOM     19  S   UNL     1       0.124  11.412  20.799  0.00  0.00    +0.000 S 
ATOM     20  O   UNL     1      -0.922  10.909  21.666  0.00  0.00    +0.000 OA
ATOM     21  O   UNL     1       1.276  12.081  21.372  0.00  0.00    +0.000 OA
BRANCH  19  26
ATOM     22  C   UNL     1       3.143   7.066  17.824  0.00  0.00    +0.000 C 
ATOM     23  C   UNL     1       2.240   8.055  18.506  0.00  0.00    +0.000 A 
ATOM     24  C   UNL     1       1.815   9.211  17.840  0.00  0.00    +0.000 A 
ATOM     25  C   UNL     1       1.089  10.195  18.519  0.00  0.00    +0.000 A 
ATOM     26  C   UNL     1       0.783  10.024  19.875  0.00  0.00    +0.000 A 
ATOM     27  C   UNL     1       1.172   8.860  20.541  0.00  0.00    +0.000 A 
ATOM     28  C   UNL     1       1.897   7.882  19.856  0.00  0.00    +0.000 A 
ENDBRANCH  19  26
ENDBRANCH   1  19
TORSDOF 3
ENDMDL
MODEL 4
REMARK VINA RESULT:      -6.4      1.593      1.728
REMARK  Name = 
REMARK  8 active torsions:
REMARK  status: ('A' for Active; 'I' for Inactive)
REMARK    1  A    between atoms: C_1  and  C_2
REMARK    2  A    between atoms: C_5  and  S_6
REMARK    3  A    between atoms: S_6  and  N_9
REMARK    4  A    between atoms: N_9  and  N_22
REMARK    5  A    between atoms: N_13  and  C_14
REMARK    6  A    between atoms: N_13  and  C_15
REMARK    7  A    between atoms: N_18  and  C_19
REMARK    8  A    between atoms: N_18  and  C_20
REMARK                            x       y       z     vdW  Elec       q    Type
REMARK                         _______ _______ _______ _____ _____    ______ ____
ROOT
ATOM      1  N   UNL     1      -0.158  13.225  19.958  0.00  0.00    +0.000 N 
ATOM      2  C   UNL     1      -1.548  12.999  19.960  0.00  0.00    +0.000 A 
ATOM      3  N   UNL     1      -2.328  13.538  20.883  0.00  0.00    +0.000 NA
ATOM      4  C   UNL     1      -3.617  13.237  20.755  0.00  0.00    +0.000 A 
ATOM      5  N   UNL     1      -4.542  13.790  21.617  0.00  0.00    +0.000 N 
ATOM      6  C   UNL     1      -4.130  14.410  22.863  0.00  0.00    +0.000 C 
ATOM      7  C   UNL     1      -5.957  13.484  21.472  0.00  0.00    +0.000 C 
ATOM      8  N   UNL     1      -4.066  12.461  19.767  0.00  0.00    +0.000 NA
ATOM      9  C   UNL     1      -3.204  11.998  18.868  0.00  0.00    +0.000 A 
ATOM     10  N   UNL     1      -3.668  11.311  17.757  0.00  0.00    +0.000 N 
ATOM     11  C   UNL     1      -2.673  10.740  16.859  0.00  0.00    +0.000 C 
ATOM     12  C   UNL     1      -4.906  10.567  17.907  0.00  0.00    +0.000 C 
ATOM     13  N   UNL     1      -1.915  12.242  18.951  0.00  0.00    +0.000 NA
ENDROOT
BRANCH   1  14
ATOM     14  N   UNL     1       0.306  14.551  19.902  0.00  0.00    +0.000 N 
ATOM     15  C   UNL     1       0.905  15.083  18.801  0.00  0.00    +0.000 A 
ATOM     16  N   UNL     1       1.195  16.342  19.034  0.00  0.00    +0.000 NA
ATOM     17  N   UNL     1       0.788  16.630  20.326  0.00  0.00    +0.000 NA
ATOM     18  C   UNL     1       0.256  15.533  20.835  0.00  0.00    +0.000 A 
ENDBRANCH   1  14
BRANCH   1  19
ATOM     19  S   UNL     1       0.690  12.227  20.998  0.00  0.00    +0.000 S 
ATOM     20  O   UNL     1      -0.133  11.882  22.139  0.00  0.00    +0.000 OA
ATOM     21  O   UNL     1       2.002  12.809  21.206  0.00  0.00    +0.000 OA
BRANCH  19  26
ATOM     22  C   UNL     1       2.491   7.274  17.986  0.00  0.00    +0.000 C 
ATOM     23  C   UNL     1       1.874   8.461  18.670  0.00  0.00    +0.000 A 
ATOM     24  C   UNL     1       1.809   9.702  18.026  0.00  0.00    +0.000 A 
ATOM     25  C   UNL     1       1.360  10.836  18.713  0.00  0.00    +0.000 A 
ATOM     26  C   UNL     1       0.971  10.730  20.054  0.00  0.00    +0.000 A 
ATOM     27  C   UNL     1       0.998   9.491  20.697  0.00  0.00    +0.000 A 
ATOM     28  C   UNL     1       1.448   8.363  20.004  0.00  0.00    +0.000 A 
ENDBRANCH  19  26
ENDBRANCH   1  19
TORSDOF 3
ENDMDL
MODEL 5
REMARK VINA RESULT:      -6.4      1.816      2.081
REMARK  Name = 
REMARK  8 active torsions:
REMARK  status: ('A' for Active; 'I' for Inactive)
REMARK    1  A    between atoms: C_1  and  C_2
REMARK    2  A    between atoms: C_5  and  S_6
REMARK    3  A    between atoms: S_6  and  N_9
REMARK    4  A    between atoms: N_9  and  N_22
REMARK    5  A    between atoms: N_13  and  C_14
REMARK    6  A    between atoms: N_13  and  C_15
REMARK    7  A    between atoms: N_18  and  C_19
REMARK    8  A    between atoms: N_18  and  C_20
REMARK                            x       y       z     vdW  Elec       q    Type
REMARK                         _______ _______ _______ _____ _____    ______ ____
ROOT
ATOM      1  N   UNL     1      -1.184  13.014  20.135  0.00  0.00    +0.000 N 
ATOM      2  C   UNL     1      -2.590  12.938  20.192  0.00  0.00    +0.000 A 
ATOM      3  N   UNL     1      -3.277  13.634  21.082  0.00  0.00    +0.000 NA
ATOM      4  C   UNL     1      -4.595  13.461  21.015  0.00  0.00    +0.000 A 
ATOM      5  N   UNL     1      -5.427  14.182  21.848  0.00  0.00    +0.000 N 
ATOM      6  C   UNL     1      -4.910  14.860  23.023  0.00  0.00    +0.000 C 
ATOM      7  C   UNL     1      -6.869  14.016  21.767  0.00  0.00    +0.000 C 
ATOM      8  N   UNL     1      -5.155  12.655  20.112  0.00  0.00    +0.000 NA
ATOM      9  C   UNL     1      -4.377  12.028  19.237  0.00  0.00    +0.000 A 
ATOM     10  N   UNL     1      -4.948  11.301  18.203  0.00  0.00    +0.000 N 
ATOM     11  C   UNL     1      -4.049  10.552  17.335  0.00  0.00    +0.000 C 
ATOM     12  C   UNL     1      -6.250  10.708  18.451  0.00  0.00    +0.000 C 
ATOM     13  N   UNL     1      -3.067  12.140  19.264  0.00  0.00    +0.000 NA
ENDROOT
BRANCH   1  14
ATOM     14  N   UNL     1      -0.588  14.274  19.949  0.00  0.00    +0.000 N 
ATOM     15  C   UNL     1       0.169  14.584  18.861  0.00  0.00    +0.000 A 
ATOM     16  N   UNL     1       0.557  15.835  18.948  0.00  0.00    +0.000 NA
ATOM     17  N   UNL     1       0.052  16.345  20.132  0.00  0.00    +0.000 NA
ATOM     18  C   UNL     1      -0.635  15.384  20.724  0.00  0.00    +0.000 A 
ENDBRANCH   1  14
BRANCH   1  19
ATOM     19  S   UNL     1      -0.409  12.025  21.238  0.00  0.00    +0.000 S 
ATOM     20  O   UNL     1      -1.368  11.474  22.173  0.00  0.00    +0.000 OA
ATOM     21  O   UNL     1       0.756  12.735  21.733  0.00  0.00    +0.000 OA
BRANCH  19  26
ATOM     22  C   UNL     1       2.556   7.812  18.027  0.00  0.00    +0.000 C 
ATOM     23  C   UNL     1       1.666   8.766  18.773  0.00  0.00    +0.000 A 
ATOM     24  C   UNL     1       1.185   9.926  18.153  0.00  0.00    +0.000 A 
ATOM     25  C   UNL     1       0.471  10.879  18.889  0.00  0.00    +0.000 A 
ATOM     26  C   UNL     1       0.234  10.673  20.253  0.00  0.00    +0.000 A 
ATOM     27  C   UNL     1       0.680   9.504  20.874  0.00  0.00    +0.000 A 
ATOM     28  C   UNL     1       1.392   8.557  20.134  0.00  0.00    +0.000 A 
ENDBRANCH  19  26
ENDBRANCH   1  19
TORSDOF 3
ENDMDL
MODEL 6
REMARK VINA RESULT:      -6.4      3.782      7.935
REMARK  Name = 
REMARK  8 active torsions:
REMARK  status: ('A' for Active; 'I' for Inactive)
REMARK    1  A    between atoms: C_1  and  C_2
REMARK    2  A    between atoms: C_5  and  S_6
REMARK    3  A    between atoms: S_6  and  N_9
REMARK    4  A    between atoms: N_9  and  N_22
REMARK    5  A    between atoms: N_13  and  C_14
REMARK    6  A    between atoms: N_13  and  C_15
REMARK    7  A    between atoms: N_18  and  C_19
REMARK    8  A    between atoms: N_18  and  C_20
REMARK                            x       y       z     vdW  Elec       q    Type
REMARK                         _______ _______ _______ _____ _____    ______ ____
ROOT
ATOM      1  N   UNL     1      -5.513  13.432  21.092  0.00  0.00    +0.000 N 
ATOM      2  C   UNL     1      -4.307  12.900  20.596  0.00  0.00    +0.000 A 
ATOM      3  N   UNL     1      -3.208  12.895  21.331  0.00  0.00    +0.000 NA
ATOM      4  C   UNL     1      -2.148  12.359  20.731  0.00  0.00    +0.000 A 
ATOM      5  N   UNL     1      -0.957  12.236  21.418  0.00  0.00    +0.000 N 
ATOM      6  C   UNL     1      -0.717  12.975  22.643  0.00  0.00    +0.000 C 
ATOM      7  C   UNL     1       0.200  11.632  20.776  0.00  0.00    +0.000 C 
ATOM      8  N   UNL     1      -2.213  11.868  19.492  0.00  0.00    +0.000 NA
ATOM      9  C   UNL     1      -3.376  11.888  18.851  0.00  0.00    +0.000 A 
ATOM     10  N   UNL     1      -3.498  11.255  17.623  0.00  0.00    +0.000 N 
ATOM     11  C   UNL     1      -4.766  11.397  16.920  0.00  0.00    +0.000 C 
ATOM     12  C   UNL     1      -2.306  11.176  16.798  0.00  0.00    +0.000 C 
ATOM     13  N   UNL     1      -4.454  12.422  19.381  0.00  0.00    +0.000 NA
ENDROOT
BRANCH   1  14
ATOM     14  N   UNL     1      -6.039  12.903  22.284  0.00  0.00    +0.000 N 
ATOM     15  C   UNL     1      -7.239  12.263  22.346  0.00  0.00    +0.000 A 
ATOM     16  N   UNL     1      -7.445  11.852  23.576  0.00  0.00    +0.000 NA
ATOM     17  N   UNL     1      -6.357  12.250  24.334  0.00  0.00    +0.000 NA
ATOM     18  C   UNL     1      -5.520  12.887  23.535  0.00  0.00    +0.000 A 
ENDBRANCH   1  14
BRANCH   1  19
ATOM     19  S   UNL     1      -5.627  15.094  20.949  0.00  0.00    +0.000 S 
ATOM     20  O   UNL     1      -4.308  15.673  20.798  0.00  0.00    +0.000 OA
ATOM     21  O   UNL     1      -6.509  15.573  21.997  0.00  0.00    +0.000 OA
BRANCH  19  26
ATOM     22  C   UNL     1      -7.916  15.686  15.358  0.00  0.00    +0.000 C 
ATOM     23  C   UNL     1      -7.509  15.613  16.803  0.00  0.00    +0.000 A 
ATOM     24  C   UNL     1      -6.811  16.669  17.402  0.00  0.00    +0.000 A 
ATOM     25  C   UNL     1      -6.315  16.542  18.705  0.00  0.00    +0.000 A 
ATOM     26  C   UNL     1      -6.518  15.353  19.416  0.00  0.00    +0.000 A 
ATOM     27  C   UNL     1      -7.243  14.307  18.841  0.00  0.00    +0.000 A 
ATOM     28  C   UNL     1      -7.735  14.441  17.540  0.00  0.00    +0.000 A 
ENDBRANCH  19  26
ENDBRANCH   1  19
TORSDOF 3
ENDMDL
MODEL 7
REMARK VINA RESULT:      -6.3      3.250      6.717
REMARK  Name = 
REMARK  8 active torsions:
REMARK  status: ('A' for Active; 'I' for Inactive)
REMARK    1  A    between atoms: C_1  and  C_2
REMARK    2  A    between atoms: C_5  and  S_6
REMARK    3  A    between atoms: S_6  and  N_9
REMARK    4  A    between atoms: N_9  and  N_22
REMARK    5  A    between atoms: N_13  and  C_14
REMARK    6  A    between atoms: N_13  and  C_15
REMARK    7  A    between atoms: N_18  and  C_19
REMARK    8  A    between atoms: N_18  and  C_20
REMARK                            x       y       z     vdW  Elec       q    Type
REMARK                         _______ _______ _______ _____ _____    ______ ____
ROOT
ATOM      1  N   UNL     1      -1.539  12.695  21.953  0.00  0.00    +0.000 N 
ATOM      2  C   UNL     1      -2.628  12.520  21.078  0.00  0.00    +0.000 A 
ATOM      3  N   UNL     1      -2.444  12.133  19.826  0.00  0.00    +0.000 NA
ATOM      4  C   UNL     1      -3.565  12.010  19.120  0.00  0.00    +0.000 A 
ATOM      5  N   UNL     1      -3.512  11.550  17.819  0.00  0.00    +0.000 N 
ATOM      6  C   UNL     1      -2.262  11.524  17.082  0.00  0.00    +0.000 C 
ATOM      7  C   UNL     1      -4.734  11.393  17.047  0.00  0.00    +0.000 C 
ATOM      8  N   UNL     1      -4.764  12.255  19.651  0.00  0.00    +0.000 NA
ATOM      9  C   UNL     1      -4.843  12.604  20.931  0.00  0.00    +0.000 A 
ATOM     10  N   UNL     1      -6.084  12.722  21.538  0.00  0.00    +0.000 N 
ATOM     11  C   UNL     1      -6.113  13.207  22.912  0.00  0.00    +0.000 C 
ATOM     12  C   UNL     1      -7.201  13.107  20.693  0.00  0.00    +0.000 C 
ATOM     13  N   UNL     1      -3.772  12.763  21.676  0.00  0.00    +0.000 NA
ENDROOT
BRANCH   1  14
ATOM     14  N   UNL     1      -0.676  11.607  22.176  0.00  0.00    +0.000 N 
ATOM     15  C   UNL     1      -0.806  10.761  23.234  0.00  0.00    +0.000 A 
ATOM     16  N   UNL     1       0.116   9.829  23.156  0.00  0.00    +0.000 NA
ATOM     17  N   UNL     1       0.872  10.086  22.026  0.00  0.00    +0.000 NA
ATOM     18  C   UNL     1       0.380  11.168  21.449  0.00  0.00    +0.000 A 
ENDBRANCH   1  14
BRANCH   1  19
ATOM     19  S   UNL     1      -0.778  14.176  21.798  0.00  0.00    +0.000 S 
ATOM     20  O   UNL     1      -0.890  14.653  20.435  0.00  0.00    +0.000 OA
ATOM     21  O   UNL     1       0.529  14.074  22.421  0.00  0.00    +0.000 OA
BRANCH  19  26
ATOM     22  C   UNL     1      -4.663  17.378  25.190  0.00  0.00    +0.000 C 
ATOM     23  C   UNL     1      -3.576  16.718  24.387  0.00  0.00    +0.000 A 
ATOM     24  C   UNL     1      -3.435  16.988  23.021  0.00  0.00    +0.000 A 
ATOM     25  C   UNL     1      -2.513  16.272  22.248  0.00  0.00    +0.000 A 
ATOM     26  C   UNL     1      -1.725  15.279  22.845  0.00  0.00    +0.000 A 
ATOM     27  C   UNL     1      -1.833  15.026  24.214  0.00  0.00    +0.000 A 
ATOM     28  C   UNL     1      -2.756  15.745  24.978  0.00  0.00    +0.000 A 
ENDBRANCH  19  26
ENDBRANCH   1  19
TORSDOF 3
ENDMDL
MODEL 8
REMARK VINA RESULT:      -6.2      2.693      3.740
REMARK  Name = 
REMARK  8 active torsions:
REMARK  status: ('A' for Active; 'I' for Inactive)
REMARK    1  A    between atoms: C_1  and  C_2
REMARK    2  A    between atoms: C_5  and  S_6
REMARK    3  A    between atoms: S_6  and  N_9
REMARK    4  A    between atoms: N_9  and  N_22
REMARK    5  A    between atoms: N_13  and  C_14
REMARK    6  A    between atoms: N_13  and  C_15
REMARK    7  A    between atoms: N_18  and  C_19
REMARK    8  A    between atoms: N_18  and  C_20
REMARK                            x       y       z     vdW  Elec       q    Type
REMARK                         _______ _______ _______ _____ _____    ______ ____
ROOT
ATOM      1  N   UNL     1      -2.103  13.539  21.461  0.00  0.00    +0.000 N 
ATOM      2  C   UNL     1      -3.064  13.000  20.582  0.00  0.00    +0.000 A 
ATOM      3  N   UNL     1      -4.351  13.271  20.726  0.00  0.00    +0.000 NA
ATOM      4  C   UNL     1      -5.137  12.692  19.822  0.00  0.00    +0.000 A 
ATOM      5  N   UNL     1      -6.493  12.949  19.825  0.00  0.00    +0.000 N 
ATOM      6  C   UNL     1      -7.142  13.546  20.978  0.00  0.00    +0.000 C 
ATOM      7  C   UNL     1      -7.358  12.338  18.828  0.00  0.00    +0.000 C 
ATOM      8  N   UNL     1      -4.647  11.914  18.855  0.00  0.00    +0.000 NA
ATOM      9  C   UNL     1      -3.333  11.734  18.777  0.00  0.00    +0.000 A 
ATOM     10  N   UNL     1      -2.795  11.049  17.698  0.00  0.00    +0.000 N 
ATOM     11  C   UNL     1      -1.360  10.794  17.716  0.00  0.00    +0.000 C 
ATOM     12  C   UNL     1      -3.624  10.031  17.079  0.00  0.00    +0.000 C 
ATOM     13  N   UNL     1      -2.504  12.261  19.651  0.00  0.00    +0.000 NA
ENDROOT
BRANCH   1  14
ATOM     14  N   UNL     1      -2.028  14.936  21.597  0.00  0.00    +0.000 N 
ATOM     15  C   UNL     1      -2.940  15.664  22.299  0.00  0.00    +0.000 A 
ATOM     16  N   UNL     1      -2.589  16.929  22.279  0.00  0.00    +0.000 NA
ATOM     17  N   UNL     1      -1.429  17.026  21.530  0.00  0.00    +0.000 NA
ATOM     18  C   UNL     1      -1.108  15.811  21.124  0.00  0.00    +0.000 A 
ENDBRANCH   1  14
BRANCH   1  19
ATOM     19  S   UNL     1      -1.938  12.683  22.888  0.00  0.00    +0.000 S 
ATOM     20  O   UNL     1      -3.196  12.059  23.244  0.00  0.00    +0.000 OA
ATOM     21  O   UNL     1      -1.261  13.537  23.846  0.00  0.00    +0.000 OA
BRANCH  19  26
ATOM     22  C   UNL     1       1.396   7.967  21.019  0.00  0.00    +0.000 C 
ATOM     23  C   UNL     1       0.710   9.173  21.598  0.00  0.00    +0.000 A 
ATOM     24  C   UNL     1      -0.151   9.045  22.695  0.00  0.00    +0.000 A 
ATOM     25  C   UNL     1      -0.892  10.144  23.146  0.00  0.00    +0.000 A 
ATOM     26  C   UNL     1      -0.772  11.379  22.497  0.00  0.00    +0.000 A 
ATOM     27  C   UNL     1       0.110  11.527  21.425  0.00  0.00    +0.000 A 
ATOM     28  C   UNL     1       0.846  10.425  20.980  0.00  0.00    +0.000 A 
ENDBRANCH  19  26
ENDBRANCH   1  19
TORSDOF 3
ENDMDL
MODEL 9
REMARK VINA RESULT:      -6.2      2.841      4.225
REMARK  Name = 
REMARK  8 active torsions:
REMARK  status: ('A' for Active; 'I' for Inactive)
REMARK    1  A    between atoms: C_1  and  C_2
REMARK    2  A    between atoms: C_5  and  S_6
REMARK    3  A    between atoms: S_6  and  N_9
REMARK    4  A    between atoms: N_9  and  N_22
REMARK    5  A    between atoms: N_13  and  C_14
REMARK    6  A    between atoms: N_13  and  C_15
REMARK    7  A    between atoms: N_18  and  C_19
REMARK    8  A    between atoms: N_18  and  C_20
REMARK                            x       y       z     vdW  Elec       q    Type
REMARK                         _______ _______ _______ _____ _____    ______ ____
ROOT
ATOM      1  N   UNL     1      -2.576  14.024  21.899  0.00  0.00    +0.000 N 
ATOM      2  C   UNL     1      -3.438  13.270  21.078  0.00  0.00    +0.000 A 
ATOM      3  N   UNL     1      -4.733  13.191  21.335  0.00  0.00    +0.000 NA
ATOM      4  C   UNL     1      -5.419  12.445  20.474  0.00  0.00    +0.000 A 
ATOM      5  N   UNL     1      -6.790  12.337  20.596  0.00  0.00    +0.000 N 
ATOM      6  C   UNL     1      -7.467  12.721  21.820  0.00  0.00    +0.000 C 
ATOM      7  C   UNL     1      -7.550  11.541  19.646  0.00  0.00    +0.000 C 
ATOM      8  N   UNL     1      -4.831  11.841  19.439  0.00  0.00    +0.000 NA
ATOM      9  C   UNL     1      -3.527  12.013  19.249  0.00  0.00    +0.000 A 
ATOM     10  N   UNL     1      -2.927  11.514  18.103  0.00  0.00    +0.000 N 
ATOM     11  C   UNL     1      -1.479  11.643  17.996  0.00  0.00    +0.000 C 
ATOM     12  C   UNL     1      -3.515  10.326  17.510  0.00  0.00    +0.000 C 
ATOM     13  N   UNL     1      -2.790  12.721  20.075  0.00  0.00    +0.000 NA
ENDROOT
BRANCH   1  14
ATOM     14  N   UNL     1      -2.855  15.390  22.086  0.00  0.00    +0.000 N 
ATOM     15  C   UNL     1      -2.242  16.377  21.377  0.00  0.00    +0.000 A 
ATOM     16  N   UNL     1      -2.730  17.539  21.746  0.00  0.00    +0.000 NA
ATOM     17  N   UNL     1      -3.672  17.300  22.731  0.00  0.00    +0.000 NA
ATOM     18  C   UNL     1      -3.730  15.994  22.925  0.00  0.00    +0.000 A 
ENDBRANCH   1  14
BRANCH   1  19
ATOM     19  S   UNL     1      -2.070  13.214  23.271  0.00  0.00    +0.000 S 
ATOM     20  O   UNL     1      -3.190  12.537  23.892  0.00  0.00    +0.000 OA
ATOM     21  O   UNL     1      -1.256  14.126  24.054  0.00  0.00    +0.000 OA
BRANCH  19  26
ATOM     22  C   UNL     1       1.137   8.797  20.615  0.00  0.00    +0.000 C 
ATOM     23  C   UNL     1       0.482   9.903  21.395  0.00  0.00    +0.000 A 
ATOM     24  C   UNL     1      -0.399   9.611  22.444  0.00  0.00    +0.000 A 
ATOM     25  C   UNL     1      -1.111  10.636  23.078  0.00  0.00    +0.000 A 
ATOM     26  C   UNL     1      -0.941  11.962  22.663  0.00  0.00    +0.000 A 
ATOM     27  C   UNL     1      -0.040  12.269  21.642  0.00  0.00    +0.000 A 
ATOM     28  C   UNL     1       0.667  11.240  21.013  0.00  0.00    +0.000 A 
ENDBRANCH  19  26
ENDBRANCH   1  19
TORSDOF 3
ENDMDL
