MODEL 1
REMARK VINA RESULT:      -7.4      0.000      0.000
REMARK  Name = 
REMARK  8 active torsions:
REMARK  status: ('A' for Active; 'I' for Inactive)
REMARK    1  A    between atoms: C_1  and  C_2
REMARK    2  A    between atoms: C_2  and  C_3
REMARK    3  A    between atoms: C_2  and  C_18
REMARK    4  A    between atoms: C_2  and  N_24
REMARK    5  A    between atoms: C_3  and  O_5
REMARK    6  A    between atoms: O_5  and  C_6
REMARK    7  A    between atoms: N_8  and  C_9
REMARK    8  A    between atoms: C_9  and  C_10
REMARK                            x       y       z     vdW  Elec       q    Type
REMARK                         _______ _______ _______ _____ _____    ______ ____
ROOT
ATOM      1  C   UNL     1       2.766   7.037  18.450  0.00  0.00    +0.000 C 
ATOM      2  O   UNL     1       3.011   7.870  17.578  0.00  0.00    +0.000 OA
ENDROOT
BRANCH   1   4
ATOM      3  C   UNL     1       3.169   5.203  20.009  0.00  0.00    +0.000 C 
ATOM      4  C   UNL     1       3.477   5.625  18.543  0.00  0.00    +0.000 C 
BRANCH   4   5
ATOM      5  C   UNL     1       5.033   5.822  18.401  0.00  0.00    +0.000 A 
ATOM      6  C   UNL     1       5.949   5.311  19.347  0.00  0.00    +0.000 A 
ATOM      7  C   UNL     1       7.311   5.629  19.313  0.00  0.00    +0.000 A 
ATOM      8  C   UNL     1       7.803   6.467  18.327  0.00  0.00    +0.000 A 
ATOM      9  C   UNL     1       6.944   6.929  17.334  0.00  0.00    +0.000 A 
ATOM     10  C   UNL     1       5.584   6.584  17.352  0.00  0.00    +0.000 A 
ENDBRANCH   4   5
BRANCH   4  11
ATOM     11  N   UNL     1       2.902   4.711  17.502  0.00  0.00    +0.000 NA
ATOM     12  C   UNL     1       3.717   3.541  17.124  0.00  0.00    +0.000 C 
ATOM     13  C   UNL     1       3.639   2.346  18.073  0.00  0.00    +0.000 C 
ATOM     14  C   UNL     1       2.209   1.921  18.383  0.00  0.00    +0.000 C 
ATOM     15  C   UNL     1       1.252   3.087  18.605  0.00  0.00    +0.000 C 
ATOM     16  C   UNL     1       1.501   4.273  17.664  0.00  0.00    +0.000 C 
ENDBRANCH   4  11
ENDBRANCH   1   4
BRANCH   1  17
ATOM     17  O   UNL     1       1.739   7.252  19.350  0.00  0.00    +0.000 OA
BRANCH  17  18
ATOM     18  C   UNL     1       1.861   8.507  20.046  0.00  0.00    +0.000 C 
ATOM     19  C   UNL     1       1.184   9.606  19.199  0.00  0.00    +0.000 C 
ATOM     20  N   UNL     1       0.144  10.374  20.025  0.00  0.00    +0.000 N 
ATOM     21  C   UNL     1      -0.953   9.395  20.468  0.00  0.00    +0.000 C 
ATOM     22  C   UNL     1      -0.324   8.284  21.305  0.00  0.00    +0.000 C 
ATOM     23  C   UNL     1       1.193   8.466  21.436  0.00  0.00    +0.000 C 
ATOM     24  C   UNL     1       1.425   9.829  22.108  0.00  0.00    +0.000 C 
ATOM     25  C   UNL     1       0.804  10.963  21.285  0.00  0.00    +0.000 C 
BRANCH  20  26
ATOM     26  C   UNL     1      -0.471  11.494  19.128  0.00  0.00    +0.000 C 
BRANCH  26  27
ATOM     27  C   UNL     1      -1.694  11.061  18.281  0.00  0.00    +0.000 C 
ATOM     28  N   UNL     1      -1.446  10.403  17.115  0.00  0.00    +0.000 N 
ATOM     29  O   UNL     1      -2.853  11.318  18.592  0.00  0.00    +0.000 OA
ATOM     30  H   UNL     1      -0.540  10.056  16.818  0.00  0.00    +0.000 HD
ATOM     31  H   UNL     1      -2.248  10.104  16.572  0.00  0.00    +0.000 HD
ENDBRANCH  26  27
ENDBRANCH  20  26
ENDBRANCH  17  18
ENDBRANCH   1  17
TORSDOF 7
ENDMDL
MODEL 2
REMARK VINA RESULT:      -7.4      0.999      1.497
REMARK  Name = 
REMARK  8 active torsions:
REMARK  status: ('A' for Active; 'I' for Inactive)
REMARK    1  A    between atoms: C_1  and  C_2
REMARK    2  A    between atoms: C_2  and  C_3
REMARK    3  A    between atoms: C_2  and  C_18
REMARK    4  A    between atoms: C_2  and  N_24
REMARK    5  A    between atoms: C_3  and  O_5
REMARK    6  A    between atoms: O_5  and  C_6
REMARK    7  A    between atoms: N_8  and  C_9
REMARK    8  A    between atoms: C_9  and  C_10
REMARK                            x       y       z     vdW  Elec       q    Type
REMARK                         _______ _______ _______ _____ _____    ______ ____
ROOT
ATOM      1  C   UNL     1       2.876   7.461  17.917  0.00  0.00    +0.000 C 
ATOM      2  O   UNL     1       2.992   7.932  16.786  0.00  0.00    +0.000 OA
ENDROOT
BRANCH   1   4
ATOM      3  C   UNL     1       2.942   5.929  19.816  0.00  0.00    +0.000 C 
ATOM      4  C   UNL     1       3.409   6.030  18.335  0.00  0.00    +0.000 C 
BRANCH   4   5
ATOM      5  C   UNL     1       4.984   6.041  18.312  0.00  0.00    +0.000 A 
ATOM      6  C   UNL     1       5.759   5.411  19.311  0.00  0.00    +0.000 A 
ATOM      7  C   UNL     1       7.147   5.564  19.385  0.00  0.00    +0.000 A 
ATOM      8  C   UNL     1       7.808   6.351  18.457  0.00  0.00    +0.000 A 
ATOM      9  C   UNL     1       7.087   6.926  17.415  0.00  0.00    +0.000 A 
ATOM     10  C   UNL     1       5.699   6.747  17.324  0.00  0.00    +0.000 A 
ENDBRANCH   4   5
BRANCH   4  11
ATOM     11  N   UNL     1       2.815   4.995  17.426  0.00  0.00    +0.000 NA
ATOM     12  C   UNL     1       3.653   3.820  17.123  0.00  0.00    +0.000 C 
ATOM     13  C   UNL     1       3.672   2.727  18.190  0.00  0.00    +0.000 C 
ATOM     14  C   UNL     1       2.278   2.289  18.622  0.00  0.00    +0.000 C 
ATOM     15  C   UNL     1       1.290   3.440  18.780  0.00  0.00    +0.000 C 
ATOM     16  C   UNL     1       1.443   4.530  17.711  0.00  0.00    +0.000 C 
ENDBRANCH   4  11
ENDBRANCH   1   4
BRANCH   1  17
ATOM     17  O   UNL     1       2.143   8.132  18.879  0.00  0.00    +0.000 OA
BRANCH  17  18
ATOM     18  C   UNL     1       1.668   9.413  18.424  0.00  0.00    +0.000 C 
ATOM     19  C   UNL     1       0.212   9.250  17.936  0.00  0.00    +0.000 C 
ATOM     20  N   UNL     1      -0.717  10.255  18.631  0.00  0.00    +0.000 N 
ATOM     21  C   UNL     1      -0.706   9.972  20.140  0.00  0.00    +0.000 C 
ATOM     22  C   UNL     1       0.721  10.115  20.665  0.00  0.00    +0.000 C 
ATOM     23  C   UNL     1       1.702  10.475  19.543  0.00  0.00    +0.000 C 
ATOM     24  C   UNL     1       1.226  11.807  18.940  0.00  0.00    +0.000 C 
ATOM     25  C   UNL     1      -0.206  11.689  18.403  0.00  0.00    +0.000 C 
BRANCH  20  26
ATOM     26  C   UNL     1      -2.160  10.069  18.064  0.00  0.00    +0.000 C 
BRANCH  26  27
ATOM     27  C   UNL     1      -3.037  11.345  18.067  0.00  0.00    +0.000 C 
ATOM     28  N   UNL     1      -3.444  11.828  16.861  0.00  0.00    +0.000 N 
ATOM     29  O   UNL     1      -3.339  11.952  19.091  0.00  0.00    +0.000 OA
ATOM     30  H   UNL     1      -3.334  11.353  15.971  0.00  0.00    +0.000 HD
ATOM     31  H   UNL     1      -4.033  12.653  16.866  0.00  0.00    +0.000 HD
ENDBRANCH  26  27
ENDBRANCH  20  26
ENDBRANCH  17  18
ENDBRANCH   1  17
TORSDOF 7
ENDMDL
MODEL 3
REMARK VINA RESULT:      -7.3      1.816      2.872
REMARK  Name = 
REMARK  8 active torsions:
REMARK  status: ('A' for Active; 'I' for Inactive)
REMARK    1  A    between atoms: C_1  and  C_2
REMARK    2  A    between atoms: C_2  and  C_3
REMARK    3  A    between atoms: C_2  and  C_18
REMARK    4  A    between atoms: C_2  and  N_24
REMARK    5  A    between atoms: C_3  and  O_5
REMARK    6  A    between atoms: O_5  and  C_6
REMARK    7  A    between atoms: N_8  and  C_9
REMARK    8  A    between atoms: C_9  and  C_10
REMARK                            x       y       z     vdW  Elec       q    Type
REMARK                         _______ _______ _______ _____ _____    ______ ____
ROOT
ATOM      1  C   UNL     1       3.114   7.264  17.931  0.00  0.00    +0.000 C 
ATOM      2  O   UNL     1       2.998   7.737  16.801  0.00  0.00    +0.000 OA
ENDROOT
BRANCH   1   4
ATOM      3  C   UNL     1       3.723   5.774  19.765  0.00  0.00    +0.000 C 
ATOM      4  C   UNL     1       3.543   5.767  18.220  0.00  0.00    +0.000 C 
BRANCH   4   5
ATOM      5  C   UNL     1       4.946   5.497  17.557  0.00  0.00    +0.000 A 
ATOM      6  C   UNL     1       5.157   5.608  16.165  0.00  0.00    +0.000 A 
ATOM      7  C   UNL     1       6.351   5.206  15.558  0.00  0.00    +0.000 A 
ATOM      8  C   UNL     1       7.378   4.682  16.326  0.00  0.00    +0.000 A 
ATOM      9  C   UNL     1       7.233   4.627  17.709  0.00  0.00    +0.000 A 
ATOM     10  C   UNL     1       6.046   5.060  18.320  0.00  0.00    +0.000 A 
ENDBRANCH   4   5
BRANCH   4  11
ATOM     11  N   UNL     1       2.471   4.841  17.725  0.00  0.00    +0.000 NA
ATOM     12  C   UNL     1       2.919   3.584  17.098  0.00  0.00    +0.000 C 
ATOM     13  C   UNL     1       3.303   2.463  18.063  0.00  0.00    +0.000 C 
ATOM     14  C   UNL     1       2.232   2.183  19.110  0.00  0.00    +0.000 C 
ATOM     15  C   UNL     1       1.581   3.439  19.680  0.00  0.00    +0.000 C 
ATOM     16  C   UNL     1       1.347   4.536  18.634  0.00  0.00    +0.000 C 
ENDBRANCH   4  11
ENDBRANCH   1   4
BRANCH   1  17
ATOM     17  O   UNL     1       2.749   8.007  19.038  0.00  0.00    +0.000 OA
BRANCH  17  18
ATOM     18  C   UNL     1       1.366   8.411  19.007  0.00  0.00    +0.000 C 
ATOM     19  C   UNL     1       0.984   8.959  20.399  0.00  0.00    +0.000 C 
ATOM     20  N   UNL     1       0.375  10.363  20.289  0.00  0.00    +0.000 N 
ATOM     21  C   UNL     1       1.428  11.311  19.698  0.00  0.00    +0.000 C 
ATOM     22  C   UNL     1       1.842  10.801  18.318  0.00  0.00    +0.000 C 
ATOM     23  C   UNL     1       1.106   9.507  17.952  0.00  0.00    +0.000 C 
ATOM     24  C   UNL     1      -0.398   9.825  17.968  0.00  0.00    +0.000 C 
ATOM     25  C   UNL     1      -0.839  10.337  19.344  0.00  0.00    +0.000 C 
BRANCH  20  26
ATOM     26  C   UNL     1      -0.028  10.841  21.720  0.00  0.00    +0.000 C 
BRANCH  26  27
ATOM     27  C   UNL     1       0.144   9.782  22.838  0.00  0.00    +0.000 C 
ATOM     28  N   UNL     1      -0.936   9.009  23.139  0.00  0.00    +0.000 N 
ATOM     29  O   UNL     1       1.181   9.643  23.481  0.00  0.00    +0.000 OA
ATOM     30  H   UNL     1      -1.800   8.975  22.607  0.00  0.00    +0.000 HD
ATOM     31  H   UNL     1      -0.816   8.304  23.858  0.00  0.00    +0.000 HD
ENDBRANCH  26  27
ENDBRANCH  20  26
ENDBRANCH  17  18
ENDBRANCH   1  17
TORSDOF 7
ENDMDL
MODEL 4
REMARK VINA RESULT:      -7.3      1.539      2.450
REMARK  Name = 
REMARK  8 active torsions:
REMARK  status: ('A' for Active; 'I' for Inactive)
REMARK    1  A    between atoms: C_1  and  C_2
REMARK    2  A    between atoms: C_2  and  C_3
REMARK    3  A    between atoms: C_2  and  C_18
REMARK    4  A    between atoms: C_2  and  N_24
REMARK    5  A    between atoms: C_3  and  O_5
REMARK    6  A    between atoms: O_5  and  C_6
REMARK    7  A    between atoms: N_8  and  C_9
REMARK    8  A    between atoms: C_9  and  C_10
REMARK                            x       y       z     vdW  Elec       q    Type
REMARK                         _______ _______ _______ _____ _____    ______ ____
ROOT
ATOM      1  C   UNL     1       2.602   7.209  18.218  0.00  0.00    +0.000 C 
ATOM      2  O   UNL     1       2.179   7.541  17.111  0.00  0.00    +0.000 OA
ENDROOT
BRANCH   1   4
ATOM      3  C   UNL     1       2.930   5.605  20.029  0.00  0.00    +0.000 C 
ATOM      4  C   UNL     1       3.267   5.804  18.523  0.00  0.00    +0.000 C 
BRANCH   4   5
ATOM      5  C   UNL     1       4.830   5.932  18.377  0.00  0.00    +0.000 A 
ATOM      6  C   UNL     1       5.725   5.341  19.295  0.00  0.00    +0.000 A 
ATOM      7  C   UNL     1       7.100   5.595  19.264  0.00  0.00    +0.000 A 
ATOM      8  C   UNL     1       7.627   6.447  18.308  0.00  0.00    +0.000 A 
ATOM      9  C   UNL     1       6.785   6.989  17.341  0.00  0.00    +0.000 A 
ATOM     10  C   UNL     1       5.411   6.709  17.355  0.00  0.00    +0.000 A 
ENDBRANCH   4   5
BRANCH   4  11
ATOM     11  N   UNL     1       2.674   4.768  17.614  0.00  0.00    +0.000 NA
ATOM     12  C   UNL     1       3.546   3.639  17.240  0.00  0.00    +0.000 C 
ATOM     13  C   UNL     1       3.660   2.520  18.275  0.00  0.00    +0.000 C 
ATOM     14  C   UNL     1       2.307   2.012  18.758  0.00  0.00    +0.000 C 
ATOM     15  C   UNL     1       1.280   3.115  18.992  0.00  0.00    +0.000 C 
ATOM     16  C   UNL     1       1.337   4.237  17.948  0.00  0.00    +0.000 C 
ENDBRANCH   4  11
ENDBRANCH   1   4
BRANCH   1  17
ATOM     17  O   UNL     1       2.402   8.028  19.314  0.00  0.00    +0.000 OA
BRANCH  17  18
ATOM     18  C   UNL     1       1.088   8.617  19.337  0.00  0.00    +0.000 C 
ATOM     19  C   UNL     1       0.936   9.425  20.645  0.00  0.00    +0.000 C 
ATOM     20  N   UNL     1       0.503  10.868  20.352  0.00  0.00    +0.000 N 
ATOM     21  C   UNL     1       1.597  11.550  19.517  0.00  0.00    +0.000 C 
ATOM     22  C   UNL     1       1.785  10.776  18.213  0.00  0.00    +0.000 C 
ATOM     23  C   UNL     1       0.854   9.560  18.139  0.00  0.00    +0.000 C 
ATOM     24  C   UNL     1      -0.586  10.091  18.234  0.00  0.00    +0.000 C 
ATOM     25  C   UNL     1      -0.802  10.870  19.536  0.00  0.00    +0.000 C 
BRANCH  20  26
ATOM     26  C   UNL     1       0.326  11.616  21.711  0.00  0.00    +0.000 C 
BRANCH  26  27
ATOM     27  C   UNL     1      -0.490  10.849  22.781  0.00  0.00    +0.000 C 
ATOM     28  N   UNL     1      -1.798  11.195  22.937  0.00  0.00    +0.000 N 
ATOM     29  O   UNL     1      -0.005   9.988  23.510  0.00  0.00    +0.000 OA
ATOM     30  H   UNL     1      -2.318  11.817  22.326  0.00  0.00    +0.000 HD
ATOM     31  H   UNL     1      -2.335  10.679  23.625  0.00  0.00    +0.000 HD
ENDBRANCH  26  27
ENDBRANCH  20  26
ENDBRANCH  17  18
ENDBRANCH   1  17
TORSDOF 7
ENDMDL
MODEL 5
REMARK VINA RESULT:      -7.2      2.176      7.636
REMARK  Name = 
REMARK  8 active torsions:
REMARK  status: ('A' for Active; 'I' for Inactive)
REMARK    1  A    between atoms: C_1  and  C_2
REMARK    2  A    between atoms: C_2  and  C_3
REMARK    3  A    between atoms: C_2  and  C_18
REMARK    4  A    between atoms: C_2  and  N_24
REMARK    5  A    between atoms: C_3  and  O_5
REMARK    6  A    between atoms: O_5  and  C_6
REMARK    7  A    between atoms: N_8  and  C_9
REMARK    8  A    between atoms: C_9  and  C_10
REMARK                            x       y       z     vdW  Elec       q    Type
REMARK                         _______ _______ _______ _____ _____    ______ ____
ROOT
ATOM      1  C   UNL     1       1.454   9.085  18.379  0.00  0.00    +0.000 C 
ATOM      2  O   UNL     1       1.458   9.231  17.158  0.00  0.00    +0.000 OA
ENDROOT
BRANCH   1   4
ATOM      3  C   UNL     1      -0.777   9.691  19.161  0.00  0.00    +0.000 C 
ATOM      4  C   UNL     1       0.717  10.066  19.381  0.00  0.00    +0.000 C 
BRANCH   4   5
ATOM      5  C   UNL     1       0.932  11.550  18.900  0.00  0.00    +0.000 A 
ATOM      6  C   UNL     1       2.207  12.058  18.568  0.00  0.00    +0.000 A 
ATOM      7  C   UNL     1       2.424  13.415  18.306  0.00  0.00    +0.000 A 
ATOM      8  C   UNL     1       1.368  14.310  18.363  0.00  0.00    +0.000 A 
ATOM      9  C   UNL     1       0.085  13.833  18.614  0.00  0.00    +0.000 A 
ATOM     10  C   UNL     1      -0.136  12.467  18.846  0.00  0.00    +0.000 A 
ENDBRANCH   4   5
BRANCH   4  11
ATOM     11  N   UNL     1       1.218   9.820  20.774  0.00  0.00    +0.000 NA
ATOM     12  C   UNL     1       1.094  10.937  21.729  0.00  0.00    +0.000 C 
ATOM     13  C   UNL     1      -0.285  11.114  22.364  0.00  0.00    +0.000 C 
ATOM     14  C   UNL     1      -0.832   9.829  22.973  0.00  0.00    +0.000 C 
ATOM     15  C   UNL     1      -0.578   8.587  22.126  0.00  0.00    +0.000 C 
ATOM     16  C   UNL     1       0.799   8.576  21.451  0.00  0.00    +0.000 C 
ENDBRANCH   4  11
ENDBRANCH   1   4
BRANCH   1  17
ATOM     17  O   UNL     1       2.219   8.094  18.965  0.00  0.00    +0.000 OA
BRANCH  17  18
ATOM     18  C   UNL     1       2.581   7.050  18.041  0.00  0.00    +0.000 C 
ATOM     19  C   UNL     1       4.052   7.258  17.618  0.00  0.00    +0.000 C 
ATOM     20  N   UNL     1       4.876   5.985  17.851  0.00  0.00    +0.000 N 
ATOM     21  C   UNL     1       4.872   5.664  19.352  0.00  0.00    +0.000 C 
ATOM     22  C   UNL     1       3.431   5.457  19.816  0.00  0.00    +0.000 C 
ATOM     23  C   UNL     1       2.436   5.647  18.665  0.00  0.00    +0.000 C 
ATOM     24  C   UNL     1       2.796   4.614  17.585  0.00  0.00    +0.000 C 
ATOM     25  C   UNL     1       4.238   4.801  17.101  0.00  0.00    +0.000 C 
BRANCH  20  26
ATOM     26  C   UNL     1       6.337   6.246  17.365  0.00  0.00    +0.000 C 
BRANCH  26  27
ATOM     27  C   UNL     1       7.214   4.978  17.212  0.00  0.00    +0.000 C 
ATOM     28  N   UNL     1       7.438   4.520  15.950  0.00  0.00    +0.000 N 
ATOM     29  O   UNL     1       7.673   4.357  18.167  0.00  0.00    +0.000 OA
ATOM     30  H   UNL     1       7.191   5.010  15.095  0.00  0.00    +0.000 HD
ATOM     31  H   UNL     1       8.028   3.702  15.851  0.00  0.00    +0.000 HD
ENDBRANCH  26  27
ENDBRANCH  20  26
ENDBRANCH  17  18
ENDBRANCH   1  17
TORSDOF 7
ENDMDL
MODEL 6
REMARK VINA RESULT:      -7.1      1.504      2.532
REMARK  Name = 
REMARK  8 active torsions:
REMARK  status: ('A' for Active; 'I' for Inactive)
REMARK    1  A    between atoms: C_1  and  C_2
REMARK    2  A    between atoms: C_2  and  C_3
REMARK    3  A    between atoms: C_2  and  C_18
REMARK    4  A    between atoms: C_2  and  N_24
REMARK    5  A    between atoms: C_3  and  O_5
REMARK    6  A    between atoms: O_5  and  C_6
REMARK    7  A    between atoms: N_8  and  C_9
REMARK    8  A    between atoms: C_9  and  C_10
REMARK                            x       y       z     vdW  Elec       q    Type
REMARK                         _______ _______ _______ _____ _____    ______ ____
ROOT
ATOM      1  C   UNL     1       2.591   7.368  18.285  0.00  0.00    +0.000 C 
ATOM      2  O   UNL     1       2.225   7.781  17.186  0.00  0.00    +0.000 OA
ENDROOT
BRANCH   1   4
ATOM      3  C   UNL     1       2.886   5.647  19.991  0.00  0.00    +0.000 C 
ATOM      4  C   UNL     1       3.269   5.955  18.515  0.00  0.00    +0.000 C 
BRANCH   4   5
ATOM      5  C   UNL     1       4.833   6.116  18.430  0.00  0.00    +0.000 A 
ATOM      6  C   UNL     1       5.464   6.823  17.383  0.00  0.00    +0.000 A 
ATOM      7  C   UNL     1       6.852   6.823  17.214  0.00  0.00    +0.000 A 
ATOM      8  C   UNL     1       7.658   6.116  18.092  0.00  0.00    +0.000 A 
ATOM      9  C   UNL     1       7.077   5.469  19.178  0.00  0.00    +0.000 A 
ATOM     10  C   UNL     1       5.687   5.496  19.364  0.00  0.00    +0.000 A 
ENDBRANCH   4   5
BRANCH   4  11
ATOM     11  N   UNL     1       2.723   4.976  17.517  0.00  0.00    +0.000 NA
ATOM     12  C   UNL     1       3.626   3.889  17.094  0.00  0.00    +0.000 C 
ATOM     13  C   UNL     1       3.728   2.703  18.052  0.00  0.00    +0.000 C 
ATOM     14  C   UNL     1       2.370   2.141  18.455  0.00  0.00    +0.000 C 
ATOM     15  C   UNL     1       1.317   3.209  18.731  0.00  0.00    +0.000 C 
ATOM     16  C   UNL     1       1.386   4.402  17.770  0.00  0.00    +0.000 C 
ENDBRANCH   4  11
ENDBRANCH   1   4
BRANCH   1  17
ATOM     17  O   UNL     1       2.308   8.090  19.430  0.00  0.00    +0.000 OA
BRANCH  17  18
ATOM     18  C   UNL     1       0.964   8.607  19.445  0.00  0.00    +0.000 C 
ATOM     19  C   UNL     1       0.578   8.926  20.907  0.00  0.00    +0.000 C 
ATOM     20  N   UNL     1       0.086  10.373  21.042  0.00  0.00    +0.000 N 
ATOM     21  C   UNL     1       1.231  11.320  20.654  0.00  0.00    +0.000 C 
ATOM     22  C   UNL     1       1.650  11.034  19.213  0.00  0.00    +0.000 C 
ATOM     23  C   UNL     1       0.828   9.892  18.603  0.00  0.00    +0.000 C 
ATOM     24  C   UNL     1      -0.646  10.327  18.647  0.00  0.00    +0.000 C 
ATOM     25  C   UNL     1      -1.093  10.619  20.084  0.00  0.00    +0.000 C 
BRANCH  20  26
ATOM     26  C   UNL     1      -0.327  10.617  22.528  0.00  0.00    +0.000 C 
BRANCH  26  27
ATOM     27  C   UNL     1      -1.123  11.922  22.782  0.00  0.00    +0.000 C 
ATOM     28  N   UNL     1      -2.416  11.797  23.189  0.00  0.00    +0.000 N 
ATOM     29  O   UNL     1      -0.657  13.042  22.595  0.00  0.00    +0.000 OA
ATOM     30  H   UNL     1      -2.863  10.929  23.466  0.00  0.00    +0.000 HD
ATOM     31  H   UNL     1      -2.929  12.652  23.373  0.00  0.00    +0.000 HD
ENDBRANCH  26  27
ENDBRANCH  20  26
ENDBRANCH  17  18
ENDBRANCH   1  17
TORSDOF 7
ENDMDL
MODEL 7
REMARK VINA RESULT:      -7.1      1.928      8.001
REMARK  Name = 
REMARK  8 active torsions:
REMARK  status: ('A' for Active; 'I' for Inactive)
REMARK    1  A    between atoms: C_1  and  C_2
REMARK    2  A    between atoms: C_2  and  C_3
REMARK    3  A    between atoms: C_2  and  C_18
REMARK    4  A    between atoms: C_2  and  N_24
REMARK    5  A    between atoms: C_3  and  O_5
REMARK    6  A    between atoms: O_5  and  C_6
REMARK    7  A    between atoms: N_8  and  C_9
REMARK    8  A    between atoms: C_9  and  C_10
REMARK                            x       y       z     vdW  Elec       q    Type
REMARK                         _______ _______ _______ _____ _____    ______ ____
ROOT
ATOM      1  C   UNL     1       1.635   9.267  18.450  0.00  0.00    +0.000 C 
ATOM      2  O   UNL     1       2.054   9.520  17.322  0.00  0.00    +0.000 OA
ENDROOT
BRANCH   1   4
ATOM      3  C   UNL     1       0.536   9.463  20.621  0.00  0.00    +0.000 C 
ATOM      4  C   UNL     1       0.730  10.255  19.296  0.00  0.00    +0.000 C 
BRANCH   4   5
ATOM      5  C   UNL     1      -0.672  10.396  18.593  0.00  0.00    +0.000 A 
ATOM      6  C   UNL     1      -1.791  10.960  19.245  0.00  0.00    +0.000 A 
ATOM      7  C   UNL     1      -3.072  10.931  18.687  0.00  0.00    +0.000 A 
ATOM      8  C   UNL     1      -3.277  10.340  17.451  0.00  0.00    +0.000 A 
ATOM      9  C   UNL     1      -2.186   9.841  16.745  0.00  0.00    +0.000 A 
ATOM     10  C   UNL     1      -0.896   9.899  17.294  0.00  0.00    +0.000 A 
ENDBRANCH   4   5
BRANCH   4  11
ATOM     11  N   UNL     1       1.442  11.565  19.456  0.00  0.00    +0.000 NA
ATOM     12  C   UNL     1       1.259  12.555  18.379  0.00  0.00    +0.000 C 
ATOM     13  C   UNL     1      -0.035  13.366  18.439  0.00  0.00    +0.000 C 
ATOM     14  C   UNL     1      -0.275  14.008  19.799  0.00  0.00    +0.000 C 
ATOM     15  C   UNL     1       0.070  13.106  20.979  0.00  0.00    +0.000 C 
ATOM     16  C   UNL     1       1.330  12.260  20.754  0.00  0.00    +0.000 C 
ENDBRANCH   4  11
ENDBRANCH   1   4
BRANCH   1  17
ATOM     17  O   UNL     1       2.046   8.121  19.106  0.00  0.00    +0.000 OA
BRANCH  17  18
ATOM     18  C   UNL     1       2.285   7.021  18.208  0.00  0.00    +0.000 C 
ATOM     19  C   UNL     1       3.801   6.935  17.930  0.00  0.00    +0.000 C 
ATOM     20  N   UNL     1       4.336   5.528  18.225  0.00  0.00    +0.000 N 
ATOM     21  C   UNL     1       4.126   5.224  19.715  0.00  0.00    +0.000 C 
ATOM     22  C   UNL     1       2.635   5.305  20.037  0.00  0.00    +0.000 C 
ATOM     23  C   UNL     1       1.810   5.677  18.799  0.00  0.00    +0.000 C 
ATOM     24  C   UNL     1       2.064   4.586  17.746  0.00  0.00    +0.000 C 
ATOM     25  C   UNL     1       3.555   4.486  17.403  0.00  0.00    +0.000 C 
BRANCH  20  26
ATOM     26  C   UNL     1       5.859   5.496  17.883  0.00  0.00    +0.000 C 
BRANCH  26  27
ATOM     27  C   UNL     1       6.294   6.435  16.731  0.00  0.00    +0.000 C 
ATOM     28  N   UNL     1       7.135   7.459  17.041  0.00  0.00    +0.000 N 
ATOM     29  O   UNL     1       5.885   6.322  15.579  0.00  0.00    +0.000 OA
ATOM     30  H   UNL     1       7.606   7.582  17.932  0.00  0.00    +0.000 HD
ATOM     31  H   UNL     1       7.433   8.061  16.282  0.00  0.00    +0.000 HD
ENDBRANCH  26  27
ENDBRANCH  20  26
ENDBRANCH  17  18
ENDBRANCH   1  17
TORSDOF 7
ENDMDL
MODEL 8
REMARK VINA RESULT:      -7.1      1.981      4.157
REMARK  Name = 
REMARK  8 active torsions:
REMARK  status: ('A' for Active; 'I' for Inactive)
REMARK    1  A    between atoms: C_1  and  C_2
REMARK    2  A    between atoms: C_2  and  C_3
REMARK    3  A    between atoms: C_2  and  C_18
REMARK    4  A    between atoms: C_2  and  N_24
REMARK    5  A    between atoms: C_3  and  O_5
REMARK    6  A    between atoms: O_5  and  C_6
REMARK    7  A    between atoms: N_8  and  C_9
REMARK    8  A    between atoms: C_9  and  C_10
REMARK                            x       y       z     vdW  Elec       q    Type
REMARK                         _______ _______ _______ _____ _____    ______ ____
ROOT
ATOM      1  C   UNL     1       2.085   7.271  19.934  0.00  0.00    +0.000 C 
ATOM      2  O   UNL     1       1.826   7.032  21.113  0.00  0.00    +0.000 OA
ENDROOT
BRANCH   1   4
ATOM      3  C   UNL     1       1.918   6.654  17.578  0.00  0.00    +0.000 C 
ATOM      4  C   UNL     1       2.583   6.177  18.902  0.00  0.00    +0.000 C 
BRANCH   4   5
ATOM      5  C   UNL     1       1.964   4.782  19.293  0.00  0.00    +0.000 A 
ATOM      6  C   UNL     1       1.989   4.290  20.616  0.00  0.00    +0.000 A 
ATOM      7  C   UNL     1       1.596   2.986  20.934  0.00  0.00    +0.000 A 
ATOM      8  C   UNL     1       1.159   2.131  19.936  0.00  0.00    +0.000 A 
ATOM      9  C   UNL     1       1.051   2.605  18.632  0.00  0.00    +0.000 A 
ATOM     10  C   UNL     1       1.416   3.923  18.320  0.00  0.00    +0.000 A 
ENDBRANCH   4   5
BRANCH   4  11
ATOM     11  N   UNL     1       4.083   6.169  18.874  0.00  0.00    +0.000 NA
ATOM     12  C   UNL     1       4.745   4.906  19.249  0.00  0.00    +0.000 C 
ATOM     13  C   UNL     1       4.818   3.845  18.152  0.00  0.00    +0.000 C 
ATOM     14  C   UNL     1       5.390   4.378  16.843  0.00  0.00    +0.000 C 
ATOM     15  C   UNL     1       4.893   5.772  16.474  0.00  0.00    +0.000 C 
ATOM     16  C   UNL     1       4.755   6.713  17.677  0.00  0.00    +0.000 C 
ENDBRANCH   4  11
ENDBRANCH   1   4
BRANCH   1  17
ATOM     17  O   UNL     1       2.068   8.572  19.467  0.00  0.00    +0.000 OA
BRANCH  17  18
ATOM     18  C   UNL     1       0.747   9.146  19.462  0.00  0.00    +0.000 C 
ATOM     19  C   UNL     1       0.546   9.925  20.781  0.00  0.00    +0.000 C 
ATOM     20  N   UNL     1       0.105  11.368  20.505  0.00  0.00    +0.000 N 
ATOM     21  C   UNL     1       1.214  12.079  19.717  0.00  0.00    +0.000 C 
ATOM     22  C   UNL     1       1.452  11.335  18.404  0.00  0.00    +0.000 C 
ATOM     23  C   UNL     1       0.538  10.111  18.277  0.00  0.00    +0.000 C 
ATOM     24  C   UNL     1      -0.910  10.623  18.339  0.00  0.00    +0.000 C 
ATOM     25  C   UNL     1      -1.175  11.372  19.650  0.00  0.00    +0.000 C 
BRANCH  20  26
ATOM     26  C   UNL     1      -0.122  12.086  21.873  0.00  0.00    +0.000 C 
BRANCH  26  27
ATOM     27  C   UNL     1      -1.053  11.338  22.860  0.00  0.00    +0.000 C 
ATOM     28  N   UNL     1      -2.317  11.820  23.015  0.00  0.00    +0.000 N 
ATOM     29  O   UNL     1      -0.692  10.373  23.526  0.00  0.00    +0.000 OA
ATOM     30  H   UNL     1      -2.743  12.544  22.445  0.00  0.00    +0.000 HD
ATOM     31  H   UNL     1      -2.930  11.319  23.647  0.00  0.00    +0.000 HD
ENDBRANCH  26  27
ENDBRANCH  20  26
ENDBRANCH  17  18
ENDBRANCH   1  17
TORSDOF 7
ENDMDL
MODEL 9
REMARK VINA RESULT:      -7.0      0.871      1.368
REMARK  Name = 
REMARK  8 active torsions:
REMARK  status: ('A' for Active; 'I' for Inactive)
REMARK    1  A    between atoms: C_1  and  C_2
REMARK    2  A    between atoms: C_2  and  C_3
REMARK    3  A    between atoms: C_2  and  C_18
REMARK    4  A    between atoms: C_2  and  N_24
REMARK    5  A    between atoms: C_3  and  O_5
REMARK    6  A    between atoms: O_5  and  C_6
REMARK    7  A    between atoms: N_8  and  C_9
REMARK    8  A    between atoms: C_9  and  C_10
REMARK                            x       y       z     vdW  Elec       q    Type
REMARK                         _______ _______ _______ _____ _____    ______ ____
ROOT
ATOM      1  C   UNL     1       2.615   7.484  18.082  0.00  0.00    +0.000 C 
ATOM      2  O   UNL     1       2.891   8.142  17.080  0.00  0.00    +0.000 OA
ENDROOT
BRANCH   1   4
ATOM      3  C   UNL     1       2.816   5.855  19.889  0.00  0.00    +0.000 C 
ATOM      4  C   UNL     1       3.250   6.070  18.410  0.00  0.00    +0.000 C 
BRANCH   4   5
ATOM      5  C   UNL     1       4.819   6.189  18.365  0.00  0.00    +0.000 A 
ATOM      6  C   UNL     1       5.498   6.838  17.310  0.00  0.00    +0.000 A 
ATOM      7  C   UNL     1       6.889   6.797  17.181  0.00  0.00    +0.000 A 
ATOM      8  C   UNL     1       7.652   6.107  18.109  0.00  0.00    +0.000 A 
ATOM      9  C   UNL     1       7.024   5.518  19.203  0.00  0.00    +0.000 A 
ATOM     10  C   UNL     1       5.630   5.587  19.347  0.00  0.00    +0.000 A 
ENDBRANCH   4   5
BRANCH   4  11
ATOM     11  N   UNL     1       2.710   5.050  17.452  0.00  0.00    +0.000 NA
ATOM     12  C   UNL     1       3.603   3.930  17.103  0.00  0.00    +0.000 C 
ATOM     13  C   UNL     1       3.668   2.793  18.122  0.00  0.00    +0.000 C 
ATOM     14  C   UNL     1       2.294   2.272  18.524  0.00  0.00    +0.000 C 
ATOM     15  C   UNL     1       1.252   3.367  18.725  0.00  0.00    +0.000 C 
ATOM     16  C   UNL     1       1.359   4.509  17.706  0.00  0.00    +0.000 C 
ENDBRANCH   4  11
ENDBRANCH   1   4
BRANCH   1  17
ATOM     17  O   UNL     1       1.614   7.904  18.938  0.00  0.00    +0.000 OA
BRANCH  17  18
ATOM     18  C   UNL     1       1.573   9.336  19.087  0.00  0.00    +0.000 C 
ATOM     19  C   UNL     1       0.405   9.884  18.237  0.00  0.00    +0.000 C 
ATOM     20  N   UNL     1      -0.531  10.755  19.085  0.00  0.00    +0.000 N 
ATOM     21  C   UNL     1      -1.140   9.887  20.195  0.00  0.00    +0.000 C 
ATOM     22  C   UNL     1      -0.016   9.317  21.058  0.00  0.00    +0.000 C 
ATOM     23  C   UNL     1       1.362   9.761  20.555  0.00  0.00    +0.000 C 
ATOM     24  C   UNL     1       1.385  11.297  20.606  0.00  0.00    +0.000 C 
ATOM     25  C   UNL     1       0.267  11.895  19.745  0.00  0.00    +0.000 C 
BRANCH  20  26
ATOM     26  C   UNL     1      -1.660  11.311  18.162  0.00  0.00    +0.000 C 
BRANCH  26  27
ATOM     27  C   UNL     1      -2.357  10.255  17.268  0.00  0.00    +0.000 C 
ATOM     28  N   UNL     1      -2.132  10.324  15.927  0.00  0.00    +0.000 N 
ATOM     29  O   UNL     1      -3.123   9.402  17.707  0.00  0.00    +0.000 OA
ATOM     30  H   UNL     1      -1.447  10.921  15.477  0.00  0.00    +0.000 HD
ATOM     31  H   UNL     1      -2.575   9.620  15.346  0.00  0.00    +0.000 HD
ENDBRANCH  26  27
ENDBRANCH  20  26
ENDBRANCH  17  18
ENDBRANCH   1  17
TORSDOF 7
ENDMDL
