MODEL 1
REMARK VINA RESULT:      -8.1      0.000      0.000
REMARK  Name = 
REMARK  7 active torsions:
REMARK  status: ('A' for Active; 'I' for Inactive)
REMARK    1  A    between atoms: C_1  and  N_2
REMARK    2  A    between atoms: N_2  and  C_3
REMARK    3  A    between atoms: N_2  and  C_27
REMARK    4  A    between atoms: C_3  and  C_4
REMARK    5  A    between atoms: C_4  and  N_5
REMARK    6  A    between atoms: C_6  and  C_8
REMARK    7  A    between atoms: C_19  and  C_21
REMARK                            x       y       z     vdW  Elec       q    Type
REMARK                         _______ _______ _______ _____ _____    ______ ____
ROOT
ATOM      1  C   UNL     1       0.857   9.312  20.204  0.00  0.00    +0.000 A 
ATOM      2  C   UNL     1       1.260   8.910  21.482  0.00  0.00    +0.000 A 
ATOM      3  C   UNL     1       0.624   9.408  22.622  0.00  0.00    +0.000 A 
ATOM      4  C   UNL     1      -0.414  10.329  22.435  0.00  0.00    +0.000 A 
ATOM      5  N   UNL     1      -1.179  10.988  23.371  0.00  0.00    +0.000 N 
ATOM      6  C   UNL     1      -2.032  11.842  22.740  0.00  0.00    +0.000 A 
ATOM      7  C   UNL     1      -1.883  11.702  21.373  0.00  0.00    +0.000 A 
ATOM      8  C   UNL     1      -0.838  10.754  21.172  0.00  0.00    +0.000 A 
ATOM      9  C   UNL     1      -0.188  10.235  20.035  0.00  0.00    +0.000 A 
ATOM     10  C   UNL     1      -2.677  12.496  20.374  0.00  0.00    +0.000 C 
ATOM     11  N   UNL     1      -3.658  13.359  21.071  0.00  0.00    +0.000 N 
ATOM     12  C   UNL     1      -4.852  13.666  20.412  0.00  0.00    +0.000 C 
ATOM     13  O   UNL     1      -5.080  13.201  19.289  0.00  0.00    +0.000 OA
ATOM     14  C   UNL     1      -3.239  13.926  22.368  0.00  0.00    +0.000 C 
ATOM     15  C   UNL     1      -2.956  12.805  23.391  0.00  0.00    +0.000 C 
ATOM     16  H   UNL     1      -1.083  10.879  24.370  0.00  0.00    +0.000 HD
ENDROOT
BRANCH   1  18
ATOM     17  N   UNL     1       2.367   7.718  19.162  0.00  0.00    +0.000 N 
ATOM     18  C   UNL     1       1.552   8.818  18.990  0.00  0.00    +0.000 C 
ATOM     19  O   UNL     1       1.367   9.365  17.905  0.00  0.00    +0.000 OA
ATOM     20  H   UNL     1       2.356   7.216  20.036  0.00  0.00    +0.000 HD
BRANCH  17  21
ATOM     21  C   UNL     1       3.031   7.112  18.029  0.00  0.00    +0.000 C 
BRANCH  21  22
ATOM     22  C   UNL     1       2.838   5.581  17.952  0.00  0.00    +0.000 C 
BRANCH  22  24
ATOM     23  C   UNL     1       4.881   5.072  19.107  0.00  0.00    +0.000 C 
ATOM     24  N   UNL     1       3.438   4.797  19.066  0.00  0.00    +0.000 NA
BRANCH  24  25
ATOM     25  C   UNL     1       3.125   3.344  19.001  0.00  0.00    +0.000 C 
ATOM     26  C   UNL     1       3.576   2.524  20.237  0.00  0.00    +0.000 C 
ATOM     27  C   UNL     1       2.761   2.782  21.506  0.00  0.00    +0.000 C 
ATOM     28  C   UNL     1       1.252   2.722  21.280  0.00  0.00    +0.000 C 
ATOM     29  C   UNL     1       0.812   3.510  20.053  0.00  0.00    +0.000 C 
ATOM     30  C   UNL     1       1.610   3.079  18.824  0.00  0.00    +0.000 C 
ENDBRANCH  24  25
ENDBRANCH  22  24
ENDBRANCH  21  22
ENDBRANCH  17  21
ENDBRANCH   1  18
BRANCH  12  31
ATOM     31  C   UNL     1      -5.862  14.612  21.126  0.00  0.00    +0.000 C 
ATOM     32  C   UNL     1      -7.179  14.955  20.364  0.00  0.00    +0.000 C 
ATOM     33  C   UNL     1      -7.916  14.909  21.711  0.00  0.00    +0.000 C 
ATOM     34  C   UNL     1      -6.776  14.019  22.237  0.00  0.00    +0.000 C 
ENDBRANCH  12  31
TORSDOF 6
ENDMDL
MODEL 2
REMARK VINA RESULT:      -8.0      2.241      3.354
REMARK  Name = 
REMARK  7 active torsions:
REMARK  status: ('A' for Active; 'I' for Inactive)
REMARK    1  A    between atoms: C_1  and  N_2
REMARK    2  A    between atoms: N_2  and  C_3
REMARK    3  A    between atoms: N_2  and  C_27
REMARK    4  A    between atoms: C_3  and  C_4
REMARK    5  A    between atoms: C_4  and  N_5
REMARK    6  A    between atoms: C_6  and  C_8
REMARK    7  A    between atoms: C_19  and  C_21
REMARK                            x       y       z     vdW  Elec       q    Type
REMARK                         _______ _______ _______ _____ _____    ______ ____
ROOT
ATOM      1  C   UNL     1       0.043  10.023  18.445  0.00  0.00    +0.000 A 
ATOM      2  C   UNL     1      -0.944   9.979  17.455  0.00  0.00    +0.000 A 
ATOM      3  C   UNL     1      -2.131  10.702  17.596  0.00  0.00    +0.000 A 
ATOM      4  C   UNL     1      -2.298  11.453  18.766  0.00  0.00    +0.000 A 
ATOM      5  N   UNL     1      -3.365  12.224  19.168  0.00  0.00    +0.000 N 
ATOM      6  C   UNL     1      -3.120  12.726  20.411  0.00  0.00    +0.000 A 
ATOM      7  C   UNL     1      -1.854  12.344  20.812  0.00  0.00    +0.000 A 
ATOM      8  C   UNL     1      -1.332  11.515  19.777  0.00  0.00    +0.000 A 
ATOM      9  C   UNL     1      -0.139  10.784  19.612  0.00  0.00    +0.000 A 
ATOM     10  C   UNL     1      -1.260  12.730  22.136  0.00  0.00    +0.000 C 
ATOM     11  N   UNL     1      -2.191  13.615  22.875  0.00  0.00    +0.000 N 
ATOM     12  C   UNL     1      -1.648  14.557  23.754  0.00  0.00    +0.000 C 
ATOM     13  O   UNL     1      -0.421  14.655  23.880  0.00  0.00    +0.000 OA
ATOM     14  C   UNL     1      -3.633  13.345  22.711  0.00  0.00    +0.000 C 
ATOM     15  C   UNL     1      -4.059  13.524  21.239  0.00  0.00    +0.000 C 
ATOM     16  H   UNL     1      -4.212  12.354  18.634  0.00  0.00    +0.000 HD
ENDROOT
BRANCH   1  18
ATOM     17  N   UNL     1       1.480   8.245  19.270  0.00  0.00    +0.000 N 
ATOM     18  C   UNL     1       1.290   9.228  18.320  0.00  0.00    +0.000 C 
ATOM     19  O   UNL     1       2.070   9.441  17.395  0.00  0.00    +0.000 OA
ATOM     20  H   UNL     1       0.734   8.009  19.906  0.00  0.00    +0.000 HD
BRANCH  17  21
ATOM     21  C   UNL     1       2.625   7.364  19.194  0.00  0.00    +0.000 C 
BRANCH  21  22
ATOM     22  C   UNL     1       2.425   6.182  18.219  0.00  0.00    +0.000 C 
BRANCH  22  24
ATOM     23  C   UNL     1       4.345   4.923  17.515  0.00  0.00    +0.000 C 
ATOM     24  N   UNL     1       3.250   4.973  18.493  0.00  0.00    +0.000 NA
BRANCH  24  25
ATOM     25  C   UNL     1       2.455   3.715  18.541  0.00  0.00    +0.000 C 
ATOM     26  C   UNL     1       3.224   2.478  19.071  0.00  0.00    +0.000 C 
ATOM     27  C   UNL     1       3.524   2.507  20.571  0.00  0.00    +0.000 C 
ATOM     28  C   UNL     1       2.305   2.852  21.426  0.00  0.00    +0.000 C 
ATOM     29  C   UNL     1       1.537   4.054  20.891  0.00  0.00    +0.000 C 
ATOM     30  C   UNL     1       1.188   3.856  19.418  0.00  0.00    +0.000 C 
ENDBRANCH  24  25
ENDBRANCH  22  24
ENDBRANCH  21  22
ENDBRANCH  17  21
ENDBRANCH   1  18
BRANCH  12  31
ATOM     31  C   UNL     1      -2.628  15.454  24.565  0.00  0.00    +0.000 C 
ATOM     32  C   UNL     1      -2.005  16.408  25.630  0.00  0.00    +0.000 C 
ATOM     33  C   UNL     1      -3.063  17.453  25.246  0.00  0.00    +0.000 C 
ATOM     34  C   UNL     1      -3.191  16.737  23.889  0.00  0.00    +0.000 C 
ENDBRANCH  12  31
TORSDOF 6
ENDMDL
MODEL 3
REMARK VINA RESULT:      -7.9      2.777      4.695
REMARK  Name = 
REMARK  7 active torsions:
REMARK  status: ('A' for Active; 'I' for Inactive)
REMARK    1  A    between atoms: C_1  and  N_2
REMARK    2  A    between atoms: N_2  and  C_3
REMARK    3  A    between atoms: N_2  and  C_27
REMARK    4  A    between atoms: C_3  and  C_4
REMARK    5  A    between atoms: C_4  and  N_5
REMARK    6  A    between atoms: C_6  and  C_8
REMARK    7  A    between atoms: C_19  and  C_21
REMARK                            x       y       z     vdW  Elec       q    Type
REMARK                         _______ _______ _______ _____ _____    ______ ____
ROOT
ATOM      1  C   UNL     1       2.345   7.522  18.866  0.00  0.00    +0.000 A 
ATOM      2  C   UNL     1       2.860   8.155  17.730  0.00  0.00    +0.000 A 
ATOM      3  C   UNL     1       2.518   9.476  17.429  0.00  0.00    +0.000 A 
ATOM      4  C   UNL     1       1.633  10.129  18.296  0.00  0.00    +0.000 A 
ATOM      5  N   UNL     1       1.114  11.402  18.222  0.00  0.00    +0.000 N 
ATOM      6  C   UNL     1       0.241  11.596  19.249  0.00  0.00    +0.000 A 
ATOM      7  C   UNL     1       0.227  10.471  20.051  0.00  0.00    +0.000 A 
ATOM      8  C   UNL     1       1.096   9.524  19.437  0.00  0.00    +0.000 A 
ATOM      9  C   UNL     1       1.460   8.193  19.726  0.00  0.00    +0.000 A 
ATOM     10  C   UNL     1      -0.629  10.347  21.279  0.00  0.00    +0.000 C 
ATOM     11  N   UNL     1      -1.365  11.611  21.518  0.00  0.00    +0.000 N 
ATOM     12  C   UNL     1      -1.683  11.950  22.837  0.00  0.00    +0.000 C 
ATOM     13  O   UNL     1      -1.330  11.218  23.770  0.00  0.00    +0.000 OA
ATOM     14  C   UNL     1      -1.811  12.355  20.324  0.00  0.00    +0.000 C 
ATOM     15  C   UNL     1      -0.603  12.798  19.472  0.00  0.00    +0.000 C 
ATOM     16  H   UNL     1       1.324  12.065  17.491  0.00  0.00    +0.000 HD
ENDROOT
BRANCH   1  18
ATOM     17  N   UNL     1       3.956   5.864  19.615  0.00  0.00    +0.000 N 
ATOM     18  C   UNL     1       2.673   6.107  19.171  0.00  0.00    +0.000 C 
ATOM     19  O   UNL     1       1.817   5.233  19.050  0.00  0.00    +0.000 OA
ATOM     20  H   UNL     1       4.563   6.635  19.847  0.00  0.00    +0.000 HD
BRANCH  17  21
ATOM     21  C   UNL     1       4.355   4.531  20.011  0.00  0.00    +0.000 C 
BRANCH  21  22
ATOM     22  C   UNL     1       5.155   3.782  18.923  0.00  0.00    +0.000 C 
BRANCH  22  24
ATOM     23  C   UNL     1       4.381   3.869  16.652  0.00  0.00    +0.000 C 
ATOM     24  N   UNL     1       5.294   4.490  17.621  0.00  0.00    +0.000 NA
BRANCH  24  25
ATOM     25  C   UNL     1       6.698   4.560  17.134  0.00  0.00    +0.000 C 
ATOM     26  C   UNL     1       7.011   5.771  16.218  0.00  0.00    +0.000 C 
ATOM     27  C   UNL     1       7.048   7.122  16.935  0.00  0.00    +0.000 C 
ATOM     28  C   UNL     1       7.899   7.110  18.204  0.00  0.00    +0.000 C 
ATOM     29  C   UNL     1       7.606   5.908  19.094  0.00  0.00    +0.000 C 
ATOM     30  C   UNL     1       7.719   4.611  18.296  0.00  0.00    +0.000 C 
ENDBRANCH  24  25
ENDBRANCH  22  24
ENDBRANCH  21  22
ENDBRANCH  17  21
ENDBRANCH   1  18
BRANCH  12  31
ATOM     31  C   UNL     1      -2.498  13.254  23.083  0.00  0.00    +0.000 C 
ATOM     32  C   UNL     1      -3.660  13.182  24.121  0.00  0.00    +0.000 C 
ATOM     33  C   UNL     1      -3.290  14.605  24.564  0.00  0.00    +0.000 C 
ATOM     34  C   UNL     1      -1.882  14.351  23.996  0.00  0.00    +0.000 C 
ENDBRANCH  12  31
TORSDOF 6
ENDMDL
MODEL 4
REMARK VINA RESULT:      -7.8      2.726      4.528
REMARK  Name = 
REMARK  7 active torsions:
REMARK  status: ('A' for Active; 'I' for Inactive)
REMARK    1  A    between atoms: C_1  and  N_2
REMARK    2  A    between atoms: N_2  and  C_3
REMARK    3  A    between atoms: N_2  and  C_27
REMARK    4  A    between atoms: C_3  and  C_4
REMARK    5  A    between atoms: C_4  and  N_5
REMARK    6  A    between atoms: C_6  and  C_8
REMARK    7  A    between atoms: C_19  and  C_21
REMARK                            x       y       z     vdW  Elec       q    Type
REMARK                         _______ _______ _______ _____ _____    ______ ____
ROOT
ATOM      1  C   UNL     1       2.106   7.170  19.008  0.00  0.00    +0.000 A 
ATOM      2  C   UNL     1       2.751   7.680  17.876  0.00  0.00    +0.000 A 
ATOM      3  C   UNL     1       2.619   9.024  17.521  0.00  0.00    +0.000 A 
ATOM      4  C   UNL     1       1.808   9.831  18.329  0.00  0.00    +0.000 A 
ATOM      5  N   UNL     1       1.486  11.163  18.194  0.00  0.00    +0.000 N 
ATOM      6  C   UNL     1       0.613  11.520  19.176  0.00  0.00    +0.000 A 
ATOM      7  C   UNL     1       0.403  10.439  20.011  0.00  0.00    +0.000 A 
ATOM      8  C   UNL     1       1.146   9.353  19.464  0.00  0.00    +0.000 A 
ATOM      9  C   UNL     1       1.298   7.995  19.809  0.00  0.00    +0.000 A 
ATOM     10  C   UNL     1      -0.507  10.487  21.205  0.00  0.00    +0.000 C 
ATOM     11  N   UNL     1      -1.056  11.852  21.374  0.00  0.00    +0.000 N 
ATOM     12  C   UNL     1      -1.370  12.282  22.667  0.00  0.00    +0.000 C 
ATOM     13  O   UNL     1      -1.164  11.541  23.636  0.00  0.00    +0.000 OA
ATOM     14  C   UNL     1      -1.343  12.609  20.140  0.00  0.00    +0.000 C 
ATOM     15  C   UNL     1      -0.052  12.840  19.326  0.00  0.00    +0.000 C 
ATOM     16  H   UNL     1       1.819  11.761  17.452  0.00  0.00    +0.000 HD
ENDROOT
BRANCH   1  18
ATOM     17  N   UNL     1       1.888   4.834  18.376  0.00  0.00    +0.000 N 
ATOM     18  C   UNL     1       2.210   5.736  19.370  0.00  0.00    +0.000 C 
ATOM     19  O   UNL     1       2.593   5.406  20.491  0.00  0.00    +0.000 OA
ATOM     20  H   UNL     1       1.737   5.158  17.433  0.00  0.00    +0.000 HD
BRANCH  17  21
ATOM     21  C   UNL     1       2.029   3.412  18.602  0.00  0.00    +0.000 C 
BRANCH  21  22
ATOM     22  C   UNL     1       3.186   2.776  17.799  0.00  0.00    +0.000 C 
BRANCH  22  24
ATOM     23  C   UNL     1       4.725   2.933  19.635  0.00  0.00    +0.000 C 
ATOM     24  N   UNL     1       4.557   3.194  18.199  0.00  0.00    +0.000 NA
BRANCH  24  25
ATOM     25  C   UNL     1       4.880   4.597  17.822  0.00  0.00    +0.000 C 
ATOM     26  C   UNL     1       6.281   5.087  18.271  0.00  0.00    +0.000 C 
ATOM     27  C   UNL     1       7.450   4.467  17.502  0.00  0.00    +0.000 C 
ATOM     28  C   UNL     1       7.270   4.511  15.986  0.00  0.00    +0.000 C 
ATOM     29  C   UNL     1       5.886   4.050  15.548  0.00  0.00    +0.000 C 
ATOM     30  C   UNL     1       4.801   4.825  16.294  0.00  0.00    +0.000 C 
ENDBRANCH  24  25
ENDBRANCH  22  24
ENDBRANCH  21  22
ENDBRANCH  17  21
ENDBRANCH   1  18
BRANCH  12  31
ATOM     31  C   UNL     1      -1.992  13.699  22.838  0.00  0.00    +0.000 C 
ATOM     32  C   UNL     1      -3.133  13.854  23.890  0.00  0.00    +0.000 C 
ATOM     33  C   UNL     1      -2.561  15.236  24.239  0.00  0.00    +0.000 C 
ATOM     34  C   UNL     1      -1.213  14.755  23.673  0.00  0.00    +0.000 C 
ENDBRANCH  12  31
TORSDOF 6
ENDMDL
MODEL 5
REMARK VINA RESULT:      -7.8      2.486     10.686
REMARK  Name = 
REMARK  7 active torsions:
REMARK  status: ('A' for Active; 'I' for Inactive)
REMARK    1  A    between atoms: C_1  and  N_2
REMARK    2  A    between atoms: N_2  and  C_3
REMARK    3  A    between atoms: N_2  and  C_27
REMARK    4  A    between atoms: C_3  and  C_4
REMARK    5  A    between atoms: C_4  and  N_5
REMARK    6  A    between atoms: C_6  and  C_8
REMARK    7  A    between atoms: C_19  and  C_21
REMARK                            x       y       z     vdW  Elec       q    Type
REMARK                         _______ _______ _______ _____ _____    ______ ____
ROOT
ATOM      1  C   UNL     1       0.078  10.554  20.028  0.00  0.00    +0.000 A 
ATOM      2  C   UNL     1      -0.193  10.088  21.319  0.00  0.00    +0.000 A 
ATOM      3  C   UNL     1       0.367   8.894  21.781  0.00  0.00    +0.000 A 
ATOM      4  C   UNL     1       1.191   8.182  20.901  0.00  0.00    +0.000 A 
ATOM      5  N   UNL     1       1.838   6.981  21.085  0.00  0.00    +0.000 N 
ATOM      6  C   UNL     1       2.480   6.630  19.936  0.00  0.00    +0.000 A 
ATOM      7  C   UNL     1       2.317   7.635  19.002  0.00  0.00    +0.000 A 
ATOM      8  C   UNL     1       1.478   8.617  19.603  0.00  0.00    +0.000 A 
ATOM      9  C   UNL     1       0.909   9.828  19.159  0.00  0.00    +0.000 A 
ATOM     10  C   UNL     1       2.900   7.573  17.619  0.00  0.00    +0.000 C 
ATOM     11  N   UNL     1       3.710   6.343  17.460  0.00  0.00    +0.000 N 
ATOM     12  C   UNL     1       4.794   6.376  16.579  0.00  0.00    +0.000 C 
ATOM     13  O   UNL     1       5.074   7.420  15.975  0.00  0.00    +0.000 OA
ATOM     14  C   UNL     1       3.228   5.137  18.162  0.00  0.00    +0.000 C 
ATOM     15  C   UNL     1       3.211   5.361  19.688  0.00  0.00    +0.000 C 
ATOM     16  H   UNL     1       1.799   6.433  21.932  0.00  0.00    +0.000 HD
ENDROOT
BRANCH   1  18
ATOM     17  N   UNL     1      -0.343  12.935  20.276  0.00  0.00    +0.000 N 
ATOM     18  C   UNL     1      -0.544  11.800  19.516  0.00  0.00    +0.000 C 
ATOM     19  O   UNL     1      -1.169  11.791  18.458  0.00  0.00    +0.000 OA
ATOM     20  H   UNL     1       0.308  12.917  21.045  0.00  0.00    +0.000 HD
BRANCH  17  21
ATOM     21  C   UNL     1      -0.843  14.216  19.827  0.00  0.00    +0.000 C 
BRANCH  21  22
ATOM     22  C   UNL     1      -1.097  15.213  20.979  0.00  0.00    +0.000 C 
BRANCH  22  24
ATOM     23  C   UNL     1      -3.271  16.149  21.385  0.00  0.00    +0.000 C 
ATOM     24  N   UNL     1      -2.376  15.033  21.719  0.00  0.00    +0.000 NA
BRANCH  24  25
ATOM     25  C   UNL     1      -2.190  14.855  23.185  0.00  0.00    +0.000 C 
ATOM     26  C   UNL     1      -3.489  14.965  24.025  0.00  0.00    +0.000 C 
ATOM     27  C   UNL     1      -4.454  13.788  23.867  0.00  0.00    +0.000 C 
ATOM     28  C   UNL     1      -3.776  12.426  24.008  0.00  0.00    +0.000 C 
ATOM     29  C   UNL     1      -2.489  12.326  23.200  0.00  0.00    +0.000 C 
ATOM     30  C   UNL     1      -1.554  13.487  23.533  0.00  0.00    +0.000 C 
ENDBRANCH  24  25
ENDBRANCH  22  24
ENDBRANCH  21  22
ENDBRANCH  17  21
ENDBRANCH   1  18
BRANCH  12  31
ATOM     31  C   UNL     1       5.616   5.069  16.377  0.00  0.00    +0.000 C 
ATOM     32  C   UNL     1       5.242   4.173  15.156  0.00  0.00    +0.000 C 
ATOM     33  C   UNL     1       6.737   3.868  14.980  0.00  0.00    +0.000 C 
ATOM     34  C   UNL     1       7.031   5.174  15.740  0.00  0.00    +0.000 C 
ENDBRANCH  12  31
TORSDOF 6
ENDMDL
MODEL 6
REMARK VINA RESULT:      -7.8      2.502      3.745
REMARK  Name = 
REMARK  7 active torsions:
REMARK  status: ('A' for Active; 'I' for Inactive)
REMARK    1  A    between atoms: C_1  and  N_2
REMARK    2  A    between atoms: N_2  and  C_3
REMARK    3  A    between atoms: N_2  and  C_27
REMARK    4  A    between atoms: C_3  and  C_4
REMARK    5  A    between atoms: C_4  and  N_5
REMARK    6  A    between atoms: C_6  and  C_8
REMARK    7  A    between atoms: C_19  and  C_21
REMARK                            x       y       z     vdW  Elec       q    Type
REMARK                         _______ _______ _______ _____ _____    ______ ____
ROOT
ATOM      1  C   UNL     1       0.190  10.129  18.375  0.00  0.00    +0.000 A 
ATOM      2  C   UNL     1      -0.941   9.946  17.573  0.00  0.00    +0.000 A 
ATOM      3  C   UNL     1      -2.121  10.651  17.828  0.00  0.00    +0.000 A 
ATOM      4  C   UNL     1      -2.128  11.529  18.919  0.00  0.00    +0.000 A 
ATOM      5  N   UNL     1      -3.150  12.314  19.404  0.00  0.00    +0.000 N 
ATOM      6  C   UNL     1      -2.730  12.963  20.526  0.00  0.00    +0.000 A 
ATOM      7  C   UNL     1      -1.400  12.662  20.752  0.00  0.00    +0.000 A 
ATOM      8  C   UNL     1      -1.016  11.732  19.743  0.00  0.00    +0.000 A 
ATOM      9  C   UNL     1       0.165  11.016  19.465  0.00  0.00    +0.000 A 
ATOM     10  C   UNL     1      -0.618  13.213  21.909  0.00  0.00    +0.000 C 
ATOM     11  N   UNL     1      -1.455  14.155  22.689  0.00  0.00    +0.000 N 
ATOM     12  C   UNL     1      -0.819  15.206  23.356  0.00  0.00    +0.000 C 
ATOM     13  O   UNL     1       0.407  15.348  23.267  0.00  0.00    +0.000 OA
ATOM     14  C   UNL     1      -2.891  13.833  22.796  0.00  0.00    +0.000 C 
ATOM     15  C   UNL     1      -3.557  13.828  21.404  0.00  0.00    +0.000 C 
ATOM     16  H   UNL     1      -4.077  12.360  19.006  0.00  0.00    +0.000 HD
ENDROOT
BRANCH   1  18
ATOM     17  N   UNL     1       1.555   8.171  18.832  0.00  0.00    +0.000 N 
ATOM     18  C   UNL     1       1.433   9.356  18.136  0.00  0.00    +0.000 C 
ATOM     19  O   UNL     1       2.271   9.764  17.334  0.00  0.00    +0.000 OA
ATOM     20  H   UNL     1       0.770   7.810  19.351  0.00  0.00    +0.000 HD
BRANCH  17  21
ATOM     21  C   UNL     1       2.694   7.306  18.614  0.00  0.00    +0.000 C 
BRANCH  21  22
ATOM     22  C   UNL     1       2.795   6.156  19.641  0.00  0.00    +0.000 C 
BRANCH  22  24
ATOM     23  C   UNL     1       4.990   5.311  19.157  0.00  0.00    +0.000 C 
ATOM     24  N   UNL     1       3.564   4.961  19.198  0.00  0.00    +0.000 NA
BRANCH  24  25
ATOM     25  C   UNL     1       3.070   4.382  17.919  0.00  0.00    +0.000 C 
ATOM     26  C   UNL     1       3.731   3.039  17.514  0.00  0.00    +0.000 C 
ATOM     27  C   UNL     1       3.321   1.840  18.372  0.00  0.00    +0.000 C 
ATOM     28  C   UNL     1       1.810   1.719  18.561  0.00  0.00    +0.000 C 
ATOM     29  C   UNL     1       1.159   3.043  18.938  0.00  0.00    +0.000 C 
ATOM     30  C   UNL     1       1.543   4.134  17.940  0.00  0.00    +0.000 C 
ENDBRANCH  24  25
ENDBRANCH  22  24
ENDBRANCH  21  22
ENDBRANCH  17  21
ENDBRANCH   1  18
BRANCH  12  31
ATOM     31  C   UNL     1      -1.693  16.167  24.214  0.00  0.00    +0.000 C 
ATOM     32  C   UNL     1      -1.680  15.954  25.759  0.00  0.00    +0.000 C 
ATOM     33  C   UNL     1      -1.744  17.480  25.923  0.00  0.00    +0.000 C 
ATOM     34  C   UNL     1      -1.156  17.597  24.506  0.00  0.00    +0.000 C 
ENDBRANCH  12  31
TORSDOF 6
ENDMDL
MODEL 7
REMARK VINA RESULT:      -7.8      2.056     10.749
REMARK  Name = 
REMARK  7 active torsions:
REMARK  status: ('A' for Active; 'I' for Inactive)
REMARK    1  A    between atoms: C_1  and  N_2
REMARK    2  A    between atoms: N_2  and  C_3
REMARK    3  A    between atoms: N_2  and  C_27
REMARK    4  A    between atoms: C_3  and  C_4
REMARK    5  A    between atoms: C_4  and  N_5
REMARK    6  A    between atoms: C_6  and  C_8
REMARK    7  A    between atoms: C_19  and  C_21
REMARK                            x       y       z     vdW  Elec       q    Type
REMARK                         _______ _______ _______ _____ _____    ______ ____
ROOT
ATOM      1  C   UNL     1      -0.595  11.400  21.101  0.00  0.00    +0.000 A 
ATOM      2  C   UNL     1      -0.482  12.264  20.007  0.00  0.00    +0.000 A 
ATOM      3  C   UNL     1       0.200  11.871  18.853  0.00  0.00    +0.000 A 
ATOM      4  C   UNL     1       0.774  10.594  18.842  0.00  0.00    +0.000 A 
ATOM      5  N   UNL     1       1.514   9.975  17.860  0.00  0.00    +0.000 N 
ATOM      6  C   UNL     1       1.925   8.754  18.304  0.00  0.00    +0.000 A 
ATOM      7  C   UNL     1       1.400   8.530  19.563  0.00  0.00    +0.000 A 
ATOM      8  C   UNL     1       0.683   9.707  19.920  0.00  0.00    +0.000 A 
ATOM      9  C   UNL     1      -0.015  10.121  21.072  0.00  0.00    +0.000 A 
ATOM     10  C   UNL     1       1.654   7.274  20.347  0.00  0.00    +0.000 C 
ATOM     11  N   UNL     1       2.462   6.326  19.545  0.00  0.00    +0.000 N 
ATOM     12  C   UNL     1       2.287   4.957  19.769  0.00  0.00    +0.000 C 
ATOM     13  O   UNL     1       1.457   4.563  20.597  0.00  0.00    +0.000 OA
ATOM     14  C   UNL     1       3.482   6.912  18.654  0.00  0.00    +0.000 C 
ATOM     15  C   UNL     1       2.824   7.814  17.588  0.00  0.00    +0.000 C 
ATOM     16  H   UNL     1       1.746  10.389  16.969  0.00  0.00    +0.000 HD
ENDROOT
BRANCH   1  18
ATOM     17  N   UNL     1      -2.167  12.877  22.222  0.00  0.00    +0.000 N 
ATOM     18  C   UNL     1      -1.284  11.824  22.345  0.00  0.00    +0.000 C 
ATOM     19  O   UNL     1      -1.077  11.229  23.401  0.00  0.00    +0.000 OA
ATOM     20  H   UNL     1      -2.415  13.220  21.307  0.00  0.00    +0.000 HD
BRANCH  17  21
ATOM     21  C   UNL     1      -2.945  13.319  23.358  0.00  0.00    +0.000 C 
BRANCH  21  22
ATOM     22  C   UNL     1      -3.963  14.427  23.009  0.00  0.00    +0.000 C 
BRANCH  22  24
ATOM     23  C   UNL     1      -4.599  14.588  20.699  0.00  0.00    +0.000 C 
ATOM     24  N   UNL     1      -5.002  14.059  22.009  0.00  0.00    +0.000 NA
BRANCH  24  25
ATOM     25  C   UNL     1      -6.376  14.474  22.405  0.00  0.00    +0.000 C 
ATOM     26  C   UNL     1      -7.508  13.933  21.494  0.00  0.00    +0.000 C 
ATOM     27  C   UNL     1      -7.775  12.432  21.629  0.00  0.00    +0.000 C 
ATOM     28  C   UNL     1      -7.915  11.970  23.079  0.00  0.00    +0.000 C 
ATOM     29  C   UNL     1      -6.815  12.519  23.977  0.00  0.00    +0.000 C 
ATOM     30  C   UNL     1      -6.725  14.039  23.849  0.00  0.00    +0.000 C 
ENDBRANCH  24  25
ENDBRANCH  22  24
ENDBRANCH  21  22
ENDBRANCH  17  21
ENDBRANCH   1  18
BRANCH  12  31
ATOM     31  C   UNL     1       3.171   3.962  18.960  0.00  0.00    +0.000 C 
ATOM     32  C   UNL     1       3.206   2.481  19.447  0.00  0.00    +0.000 C 
ATOM     33  C   UNL     1       3.250   2.046  17.975  0.00  0.00    +0.000 C 
ATOM     34  C   UNL     1       2.620   3.404  17.617  0.00  0.00    +0.000 C 
ENDBRANCH  12  31
TORSDOF 6
ENDMDL
MODEL 8
REMARK VINA RESULT:      -7.7      4.058     11.243
REMARK  Name = 
REMARK  7 active torsions:
REMARK  status: ('A' for Active; 'I' for Inactive)
REMARK    1  A    between atoms: C_1  and  N_2
REMARK    2  A    between atoms: N_2  and  C_3
REMARK    3  A    between atoms: N_2  and  C_27
REMARK    4  A    between atoms: C_3  and  C_4
REMARK    5  A    between atoms: C_4  and  N_5
REMARK    6  A    between atoms: C_6  and  C_8
REMARK    7  A    between atoms: C_19  and  C_21
REMARK                            x       y       z     vdW  Elec       q    Type
REMARK                         _______ _______ _______ _____ _____    ______ ____
ROOT
ATOM      1  C   UNL     1       0.196  10.637  20.214  0.00  0.00    +0.000 A 
ATOM      2  C   UNL     1      -0.112  10.125  21.479  0.00  0.00    +0.000 A 
ATOM      3  C   UNL     1       0.383   8.884  21.889  0.00  0.00    +0.000 A 
ATOM      4  C   UNL     1       1.179   8.173  20.983  0.00  0.00    +0.000 A 
ATOM      5  N   UNL     1       1.763   6.934  21.115  0.00  0.00    +0.000 N 
ATOM      6  C   UNL     1       2.399   6.605  19.956  0.00  0.00    +0.000 A 
ATOM      7  C   UNL     1       2.296   7.660  19.069  0.00  0.00    +0.000 A 
ATOM      8  C   UNL     1       1.502   8.654  19.709  0.00  0.00    +0.000 A 
ATOM      9  C   UNL     1       0.999   9.911  19.318  0.00  0.00    +0.000 A 
ATOM     10  C   UNL     1       2.891   7.634  17.690  0.00  0.00    +0.000 C 
ATOM     11  N   UNL     1       3.639   6.373  17.479  0.00  0.00    +0.000 N 
ATOM     12  C   UNL     1       4.733   6.393  16.609  0.00  0.00    +0.000 C 
ATOM     13  O   UNL     1       5.071   7.448  16.058  0.00  0.00    +0.000 OA
ATOM     14  C   UNL     1       3.090   5.161  18.119  0.00  0.00    +0.000 C 
ATOM     15  C   UNL     1       3.068   5.314  19.654  0.00  0.00    +0.000 C 
ATOM     16  H   UNL     1       1.688   6.349  21.935  0.00  0.00    +0.000 HD
ENDROOT
BRANCH   1  18
ATOM     17  N   UNL     1       0.166  13.063  20.358  0.00  0.00    +0.000 N 
ATOM     18  C   UNL     1      -0.357  11.936  19.757  0.00  0.00    +0.000 C 
ATOM     19  O   UNL     1      -1.209  11.969  18.872  0.00  0.00    +0.000 OA
ATOM     20  H   UNL     1       0.972  12.985  20.958  0.00  0.00    +0.000 HD
BRANCH  17  21
ATOM     21  C   UNL     1      -0.250  14.381  19.931  0.00  0.00    +0.000 C 
BRANCH  21  22
ATOM     22  C   UNL     1       0.872  15.438  20.024  0.00  0.00    +0.000 C 
BRANCH  22  24
ATOM     23  C   UNL     1       2.514  15.518  18.273  0.00  0.00    +0.000 C 
ATOM     24  N   UNL     1       1.247  16.096  18.742  0.00  0.00    +0.000 NA
BRANCH  24  25
ATOM     25  C   UNL     1       1.283  17.581  18.829  0.00  0.00    +0.000 C 
ATOM     26  C   UNL     1       1.419  18.311  17.468  0.00  0.00    +0.000 C 
ATOM     27  C   UNL     1       0.171  18.256  16.585  0.00  0.00    +0.000 C 
ATOM     28  C   UNL     1      -1.112  18.631  17.327  0.00  0.00    +0.000 C 
ATOM     29  C   UNL     1      -1.235  17.930  18.674  0.00  0.00    +0.000 C 
ATOM     30  C   UNL     1       0.021  18.158  19.514  0.00  0.00    +0.000 C 
ENDBRANCH  24  25
ENDBRANCH  22  24
ENDBRANCH  21  22
ENDBRANCH  17  21
ENDBRANCH   1  18
BRANCH  12  31
ATOM     31  C   UNL     1       5.491   5.056  16.352  0.00  0.00    +0.000 C 
ATOM     32  C   UNL     1       5.247   4.352  14.983  0.00  0.00    +0.000 C 
ATOM     33  C   UNL     1       6.729   3.947  14.979  0.00  0.00    +0.000 C 
ATOM     34  C   UNL     1       6.989   5.121  15.941  0.00  0.00    +0.000 C 
ENDBRANCH  12  31
TORSDOF 6
ENDMDL
MODEL 9
REMARK VINA RESULT:      -7.7      2.096      2.354
REMARK  Name = 
REMARK  7 active torsions:
REMARK  status: ('A' for Active; 'I' for Inactive)
REMARK    1  A    between atoms: C_1  and  N_2
REMARK    2  A    between atoms: N_2  and  C_3
REMARK    3  A    between atoms: N_2  and  C_27
REMARK    4  A    between atoms: C_3  and  C_4
REMARK    5  A    between atoms: C_4  and  N_5
REMARK    6  A    between atoms: C_6  and  C_8
REMARK    7  A    between atoms: C_19  and  C_21
REMARK                            x       y       z     vdW  Elec       q    Type
REMARK                         _______ _______ _______ _____ _____    ______ ____
ROOT
ATOM      1  C   UNL     1       1.347   8.979  19.575  0.00  0.00    +0.000 A 
ATOM      2  C   UNL     1       0.964   8.048  20.547  0.00  0.00    +0.000 A 
ATOM      3  C   UNL     1       0.211   8.441  21.656  0.00  0.00    +0.000 A 
ATOM      4  C   UNL     1      -0.129   9.796  21.762  0.00  0.00    +0.000 A 
ATOM      5  N   UNL     1      -0.830  10.448  22.751  0.00  0.00    +0.000 N 
ATOM      6  C   UNL     1      -0.871  11.781  22.475  0.00  0.00    +0.000 A 
ATOM      7  C   UNL     1      -0.252  12.011  21.261  0.00  0.00    +0.000 A 
ATOM      8  C   UNL     1       0.241  10.752  20.811  0.00  0.00    +0.000 A 
ATOM      9  C   UNL     1       0.995  10.334  19.696  0.00  0.00    +0.000 A 
ATOM     10  C   UNL     1      -0.121  13.377  20.651  0.00  0.00    +0.000 C 
ATOM     11  N   UNL     1      -0.805  14.382  21.497  0.00  0.00    +0.000 N 
ATOM     12  C   UNL     1      -1.348  15.510  20.873  0.00  0.00    +0.000 C 
ATOM     13  O   UNL     1      -1.274  15.638  19.645  0.00  0.00    +0.000 OA
ATOM     14  C   UNL     1      -0.752  14.167  22.956  0.00  0.00    +0.000 C 
ATOM     15  C   UNL     1      -1.445  12.843  23.340  0.00  0.00    +0.000 C 
ATOM     16  H   UNL     1      -1.213  10.002  23.572  0.00  0.00    +0.000 HD
ENDROOT
BRANCH   1  18
ATOM     17  N   UNL     1       2.963   7.454  18.589  0.00  0.00    +0.000 N 
ATOM     18  C   UNL     1       2.180   8.578  18.415  0.00  0.00    +0.000 C 
ATOM     19  O   UNL     1       2.129   9.215  17.366  0.00  0.00    +0.000 OA
ATOM     20  H   UNL     1       2.844   6.882  19.410  0.00  0.00    +0.000 HD
BRANCH  17  21
ATOM     21  C   UNL     1       3.754   6.935  17.496  0.00  0.00    +0.000 C 
BRANCH  21  22
ATOM     22  C   UNL     1       3.774   5.392  17.433  0.00  0.00    +0.000 C 
BRANCH  22  24
ATOM     23  C   UNL     1       5.027   4.472  19.263  0.00  0.00    +0.000 C 
ATOM     24  N   UNL     1       3.671   4.690  18.742  0.00  0.00    +0.000 NA
BRANCH  24  25
ATOM     25  C   UNL     1       2.864   3.441  18.680  0.00  0.00    +0.000 C 
ATOM     26  C   UNL     1       3.222   2.380  19.752  0.00  0.00    +0.000 C 
ATOM     27  C   UNL     1       2.800   2.744  21.177  0.00  0.00    +0.000 C 
ATOM     28  C   UNL     1       1.351   3.216  21.279  0.00  0.00    +0.000 C 
ATOM     29  C   UNL     1       0.993   4.242  20.211  0.00  0.00    +0.000 C 
ATOM     30  C   UNL     1       1.347   3.717  18.821  0.00  0.00    +0.000 C 
ENDBRANCH  24  25
ENDBRANCH  22  24
ENDBRANCH  21  22
ENDBRANCH  17  21
ENDBRANCH   1  18
BRANCH  12  31
ATOM     31  C   UNL     1      -2.025  16.589  21.769  0.00  0.00    +0.000 C 
ATOM     32  C   UNL     1      -2.404  17.941  21.092  0.00  0.00    +0.000 C 
ATOM     33  C   UNL     1      -3.671  17.968  21.958  0.00  0.00    +0.000 C 
ATOM     34  C   UNL     1      -3.539  16.440  22.092  0.00  0.00    +0.000 C 
ENDBRANCH  12  31
TORSDOF 6
ENDMDL
