MODEL 1
REMARK VINA RESULT:      -7.9      0.000      0.000
REMARK  Name = 
REMARK  4 active torsions:
REMARK  status: ('A' for Active; 'I' for Inactive)
REMARK    1  A    between atoms: C_1  and  N_2
REMARK    2  A    between atoms: N_2  and  C_3
REMARK    3  A    between atoms: C_3  and  C_4
REMARK    4  A    between atoms: C_13  and  C_15
REMARK                            x       y       z     vdW  Elec       q    Type
REMARK                         _______ _______ _______ _____ _____    ______ ____
ROOT
ATOM      1  C   UNL     1       1.015   8.367  20.982  0.00  0.00    +0.000 C 
ATOM      2  N   UNL     1       1.731   7.785  19.857  0.00  0.00    +0.000 N 
ATOM      3  C   UNL     1       2.102   6.452  19.952  0.00  0.00    +0.000 C 
ATOM      4  O   UNL     1       1.854   5.794  20.969  0.00  0.00    +0.000 OA
ENDROOT
BRANCH   3   5
ATOM      5  C   UNL     1       2.804   5.787  18.770  0.00  0.00    +0.000 C 
ATOM      6  C   UNL     1       2.033   4.516  18.380  0.00  0.00    +0.000 C 
ATOM      7  C   UNL     1       2.596   3.842  17.131  0.00  0.00    +0.000 C 
ATOM      8  O   UNL     1       3.875   3.245  17.378  0.00  0.00    +0.000 OA
ATOM      9  C   UNL     1       4.886   4.131  17.115  0.00  0.00    +0.000 A 
ATOM     10  C   UNL     1       5.708   3.869  16.022  0.00  0.00    +0.000 A 
ATOM     11  C   UNL     1       6.735   4.755  15.703  0.00  0.00    +0.000 A 
ATOM     12  C   UNL     1       6.946   5.887  16.489  0.00  0.00    +0.000 A 
ATOM     13  C   UNL     1       6.144   6.124  17.607  0.00  0.00    +0.000 A 
ATOM     14  C   UNL     1       5.110   5.238  17.938  0.00  0.00    +0.000 A 
ATOM     15  C   UNL     1       4.257   5.477  19.157  0.00  0.00    +0.000 C 
ENDBRANCH   3   5
BRANCH   2  16
ATOM     16  C   UNL     1       1.908   8.633  18.679  0.00  0.00    +0.000 C 
BRANCH  16  17
ATOM     17  C   UNL     1       1.126   9.914  18.743  0.00  0.00    +0.000 A 
ATOM     18  N   UNL     1       1.689  10.949  19.396  0.00  0.00    +0.000 NA
ATOM     19  O   UNL     1       0.766  11.979  19.374  0.00  0.00    +0.000 OA
ATOM     20  C   UNL     1      -0.331  11.559  18.717  0.00  0.00    +0.000 A 
ATOM     21  C   UNL     1      -0.163  10.274  18.262  0.00  0.00    +0.000 A 
ATOM     22  C   UNL     1      -1.238   9.572  17.516  0.00  0.00    +0.000 C 
ATOM     23  C   UNL     1      -2.351  10.551  17.069  0.00  0.00    +0.000 C 
ATOM     24  C   UNL     1      -2.714  11.581  18.161  0.00  0.00    +0.000 C 
ATOM     25  C   UNL     1      -1.502  12.444  18.562  0.00  0.00    +0.000 C 
ENDBRANCH  16  17
ENDBRANCH   2  16
TORSDOF 3
ENDMDL
MODEL 2
REMARK VINA RESULT:      -7.8      2.149      3.590
REMARK  Name = 
REMARK  4 active torsions:
REMARK  status: ('A' for Active; 'I' for Inactive)
REMARK    1  A    between atoms: C_1  and  N_2
REMARK    2  A    between atoms: N_2  and  C_3
REMARK    3  A    between atoms: C_3  and  C_4
REMARK    4  A    between atoms: C_13  and  C_15
REMARK                            x       y       z     vdW  Elec       q    Type
REMARK                         _______ _______ _______ _____ _____    ______ ____
ROOT
ATOM      1  C   UNL     1       1.648   9.970  17.837  0.00  0.00    +0.000 C 
ATOM      2  N   UNL     1       1.939   8.754  18.579  0.00  0.00    +0.000 N 
ATOM      3  C   UNL     1       2.809   7.841  18.002  0.00  0.00    +0.000 C 
ATOM      4  O   UNL     1       3.297   8.047  16.884  0.00  0.00    +0.000 OA
ENDROOT
BRANCH   3   5
ATOM      5  C   UNL     1       3.186   6.578  18.774  0.00  0.00    +0.000 C 
ATOM      6  C   UNL     1       4.610   6.156  18.379  0.00  0.00    +0.000 C 
ATOM      7  C   UNL     1       5.119   4.964  19.187  0.00  0.00    +0.000 C 
ATOM      8  O   UNL     1       4.437   3.753  18.839  0.00  0.00    +0.000 OA
ATOM      9  C   UNL     1       3.336   3.568  19.632  0.00  0.00    +0.000 A 
ATOM     10  C   UNL     1       3.364   2.516  20.543  0.00  0.00    +0.000 A 
ATOM     11  C   UNL     1       2.275   2.304  21.387  0.00  0.00    +0.000 A 
ATOM     12  C   UNL     1       1.158   3.134  21.302  0.00  0.00    +0.000 A 
ATOM     13  C   UNL     1       1.119   4.162  20.359  0.00  0.00    +0.000 A 
ATOM     14  C   UNL     1       2.207   4.383  19.504  0.00  0.00    +0.000 A 
ATOM     15  C   UNL     1       2.159   5.478  18.470  0.00  0.00    +0.000 C 
ENDBRANCH   3   5
BRANCH   2  16
ATOM     16  C   UNL     1       1.363   8.646  19.920  0.00  0.00    +0.000 C 
BRANCH  16  17
ATOM     17  C   UNL     1       0.720   9.917  20.396  0.00  0.00    +0.000 A 
ATOM     18  N   UNL     1       1.279  10.531  21.456  0.00  0.00    +0.000 NA
ATOM     19  O   UNL     1       0.485  11.629  21.741  0.00  0.00    +0.000 OA
ATOM     20  C   UNL     1      -0.532  11.662  20.860  0.00  0.00    +0.000 A 
ATOM     21  C   UNL     1      -0.431  10.630  19.960  0.00  0.00    +0.000 A 
ATOM     22  C   UNL     1      -1.442  10.435  18.890  0.00  0.00    +0.000 C 
ATOM     23  C   UNL     1      -2.361  11.673  18.747  0.00  0.00    +0.000 C 
ATOM     24  C   UNL     1      -2.782  12.266  20.109  0.00  0.00    +0.000 C 
ATOM     25  C   UNL     1      -1.563  12.715  20.940  0.00  0.00    +0.000 C 
ENDBRANCH  16  17
ENDBRANCH   2  16
TORSDOF 3
ENDMDL
MODEL 3
REMARK VINA RESULT:      -7.8      2.436      4.177
REMARK  Name = 
REMARK  4 active torsions:
REMARK  status: ('A' for Active; 'I' for Inactive)
REMARK    1  A    between atoms: C_1  and  N_2
REMARK    2  A    between atoms: N_2  and  C_3
REMARK    3  A    between atoms: C_3  and  C_4
REMARK    4  A    between atoms: C_13  and  C_15
REMARK                            x       y       z     vdW  Elec       q    Type
REMARK                         _______ _______ _______ _____ _____    ______ ____
ROOT
ATOM      1  C   UNL     1       2.297   4.076  19.593  0.00  0.00    +0.000 C 
ATOM      2  N   UNL     1       3.473   4.366  18.789  0.00  0.00    +0.000 N 
ATOM      3  C   UNL     1       3.834   3.441  17.820  0.00  0.00    +0.000 C 
ATOM      4  O   UNL     1       3.190   2.396  17.667  0.00  0.00    +0.000 OA
ENDROOT
BRANCH   3   5
ATOM      5  C   UNL     1       5.029   3.735  16.915  0.00  0.00    +0.000 C 
ATOM      6  C   UNL     1       6.063   4.555  17.701  0.00  0.00    +0.000 C 
ATOM      7  C   UNL     1       7.347   4.801  16.912  0.00  0.00    +0.000 C 
ATOM      8  O   UNL     1       7.139   5.711  15.825  0.00  0.00    +0.000 OA
ATOM      9  C   UNL     1       6.800   5.037  14.682  0.00  0.00    +0.000 A 
ATOM     10  C   UNL     1       7.721   5.029  13.637  0.00  0.00    +0.000 A 
ATOM     11  C   UNL     1       7.427   4.336  12.464  0.00  0.00    +0.000 A 
ATOM     12  C   UNL     1       6.209   3.671  12.335  0.00  0.00    +0.000 A 
ATOM     13  C   UNL     1       5.274   3.715  13.370  0.00  0.00    +0.000 A 
ATOM     14  C   UNL     1       5.557   4.411  14.553  0.00  0.00    +0.000 A 
ATOM     15  C   UNL     1       4.540   4.480  15.664  0.00  0.00    +0.000 C 
ENDBRANCH   3   5
BRANCH   2  16
ATOM     16  C   UNL     1       4.117   5.661  19.006  0.00  0.00    +0.000 C 
BRANCH  16  17
ATOM     17  C   UNL     1       3.265   6.827  18.593  0.00  0.00    +0.000 A 
ATOM     18  N   UNL     1       3.405   7.276  17.331  0.00  0.00    +0.000 NA
ATOM     19  O   UNL     1       2.574   8.377  17.208  0.00  0.00    +0.000 OA
ATOM     20  C   UNL     1       1.951   8.576  18.385  0.00  0.00    +0.000 A 
ATOM     21  C   UNL     1       2.315   7.617  19.297  0.00  0.00    +0.000 A 
ATOM     22  C   UNL     1       1.777   7.622  20.681  0.00  0.00    +0.000 C 
ATOM     23  C   UNL     1       0.580   8.594  20.820  0.00  0.00    +0.000 C 
ATOM     24  C   UNL     1       0.801   9.926  20.072  0.00  0.00    +0.000 C 
ATOM     25  C   UNL     1       1.019   9.707  18.561  0.00  0.00    +0.000 C 
ENDBRANCH  16  17
ENDBRANCH   2  16
TORSDOF 3
ENDMDL
MODEL 4
REMARK VINA RESULT:      -7.6      7.967      9.894
REMARK  Name = 
REMARK  4 active torsions:
REMARK  status: ('A' for Active; 'I' for Inactive)
REMARK    1  A    between atoms: C_1  and  N_2
REMARK    2  A    between atoms: N_2  and  C_3
REMARK    3  A    between atoms: C_3  and  C_4
REMARK    4  A    between atoms: C_13  and  C_15
REMARK                            x       y       z     vdW  Elec       q    Type
REMARK                         _______ _______ _______ _____ _____    ______ ____
ROOT
ATOM      1  C   UNL     1       3.839  15.682  19.495  0.00  0.00    +0.000 C 
ATOM      2  N   UNL     1       5.258  15.411  19.663  0.00  0.00    +0.000 N 
ATOM      3  C   UNL     1       5.971  14.998  18.547  0.00  0.00    +0.000 C 
ATOM      4  O   UNL     1       5.409  14.842  17.456  0.00  0.00    +0.000 OA
ENDROOT
BRANCH   3   5
ATOM      5  C   UNL     1       7.474  14.758  18.668  0.00  0.00    +0.000 C 
ATOM      6  C   UNL     1       8.220  16.036  18.254  0.00  0.00    +0.000 C 
ATOM      7  C   UNL     1       9.730  15.930  18.450  0.00  0.00    +0.000 C 
ATOM      8  O   UNL     1      10.328  15.024  17.515  0.00  0.00    +0.000 OA
ATOM      9  C   UNL     1      10.371  13.754  18.024  0.00  0.00    +0.000 A 
ATOM     10  C   UNL     1      11.620  13.222  18.334  0.00  0.00    +0.000 A 
ATOM     11  C   UNL     1      11.711  11.941  18.875  0.00  0.00    +0.000 A 
ATOM     12  C   UNL     1      10.554  11.193  19.088  0.00  0.00    +0.000 A 
ATOM     13  C   UNL     1       9.307  11.715  18.738  0.00  0.00    +0.000 A 
ATOM     14  C   UNL     1       9.205  13.001  18.190  0.00  0.00    +0.000 A 
ATOM     15  C   UNL     1       7.863  13.559  17.790  0.00  0.00    +0.000 C 
ENDBRANCH   3   5
BRANCH   2  16
ATOM     16  C   UNL     1       5.832  15.695  20.979  0.00  0.00    +0.000 C 
BRANCH  16  17
ATOM     17  C   UNL     1       5.878  14.495  21.881  0.00  0.00    +0.000 A 
ATOM     18  N   UNL     1       4.739  14.158  22.517  0.00  0.00    +0.000 NA
ATOM     19  O   UNL     1       5.043  13.076  23.325  0.00  0.00    +0.000 OA
ATOM     20  C   UNL     1       6.346  12.777  23.169  0.00  0.00    +0.000 A 
ATOM     21  C   UNL     1       6.930  13.612  22.249  0.00  0.00    +0.000 A 
ATOM     22  C   UNL     1       8.371  13.499  21.907  0.00  0.00    +0.000 C 
ATOM     23  C   UNL     1       8.980  12.183  22.449  0.00  0.00    +0.000 C 
ATOM     24  C   UNL     1       8.495  11.842  23.875  0.00  0.00    +0.000 C 
ATOM     25  C   UNL     1       6.963  11.677  23.936  0.00  0.00    +0.000 C 
ENDBRANCH  16  17
ENDBRANCH   2  16
TORSDOF 3
ENDMDL
MODEL 5
REMARK VINA RESULT:      -7.6      1.156      1.752
REMARK  Name = 
REMARK  4 active torsions:
REMARK  status: ('A' for Active; 'I' for Inactive)
REMARK    1  A    between atoms: C_1  and  N_2
REMARK    2  A    between atoms: N_2  and  C_3
REMARK    3  A    between atoms: C_3  and  C_4
REMARK    4  A    between atoms: C_13  and  C_15
REMARK                            x       y       z     vdW  Elec       q    Type
REMARK                         _______ _______ _______ _____ _____    ______ ____
ROOT
ATOM      1  C   UNL     1       1.090   8.312  21.166  0.00  0.00    +0.000 C 
ATOM      2  N   UNL     1       1.809   7.767  20.026  0.00  0.00    +0.000 N 
ATOM      3  C   UNL     1       2.113   6.414  20.044  0.00  0.00    +0.000 C 
ATOM      4  O   UNL     1       1.804   5.706  21.010  0.00  0.00    +0.000 OA
ENDROOT
BRANCH   3   5
ATOM      5  C   UNL     1       2.817   5.790  18.841  0.00  0.00    +0.000 C 
ATOM      6  C   UNL     1       2.035   4.546  18.392  0.00  0.00    +0.000 C 
ATOM      7  C   UNL     1       2.600   3.918  17.120  0.00  0.00    +0.000 C 
ATOM      8  O   UNL     1       3.870   3.296  17.351  0.00  0.00    +0.000 OA
ATOM      9  C   UNL     1       4.893   4.180  17.134  0.00  0.00    +0.000 A 
ATOM     10  C   UNL     1       5.721   3.955  16.037  0.00  0.00    +0.000 A 
ATOM     11  C   UNL     1       6.761   4.841  15.764  0.00  0.00    +0.000 A 
ATOM     12  C   UNL     1       6.978   5.937  16.598  0.00  0.00    +0.000 A 
ATOM     13  C   UNL     1       6.170   6.136  17.719  0.00  0.00    +0.000 A 
ATOM     14  C   UNL     1       5.124   5.249  18.005  0.00  0.00    +0.000 A 
ATOM     15  C   UNL     1       4.263   5.447  19.226  0.00  0.00    +0.000 C 
ENDBRANCH   3   5
BRANCH   2  16
ATOM     16  C   UNL     1       2.062   8.678  18.909  0.00  0.00    +0.000 C 
BRANCH  16  17
ATOM     17  C   UNL     1       0.950   9.661  18.679  0.00  0.00    +0.000 A 
ATOM     18  N   UNL     1      -0.040   9.288  17.845  0.00  0.00    +0.000 NA
ATOM     19  O   UNL     1      -0.901  10.367  17.746  0.00  0.00    +0.000 OA
ATOM     20  C   UNL     1      -0.425  11.367  18.512  0.00  0.00    +0.000 A 
ATOM     21  C   UNL     1       0.725  10.982  19.156  0.00  0.00    +0.000 A 
ATOM     22  C   UNL     1       1.457  11.912  20.053  0.00  0.00    +0.000 C 
ATOM     23  C   UNL     1       0.608  13.161  20.389  0.00  0.00    +0.000 C 
ATOM     24  C   UNL     1      -0.159  13.710  19.166  0.00  0.00    +0.000 C 
ATOM     25  C   UNL     1      -1.127  12.664  18.578  0.00  0.00    +0.000 C 
ENDBRANCH  16  17
ENDBRANCH   2  16
TORSDOF 3
ENDMDL
MODEL 6
REMARK VINA RESULT:      -7.4      2.130      3.296
REMARK  Name = 
REMARK  4 active torsions:
REMARK  status: ('A' for Active; 'I' for Inactive)
REMARK    1  A    between atoms: C_1  and  N_2
REMARK    2  A    between atoms: N_2  and  C_3
REMARK    3  A    between atoms: C_3  and  C_4
REMARK    4  A    between atoms: C_13  and  C_15
REMARK                            x       y       z     vdW  Elec       q    Type
REMARK                         _______ _______ _______ _____ _____    ______ ____
ROOT
ATOM      1  C   UNL     1       2.038  10.780  17.936  0.00  0.00    +0.000 C 
ATOM      2  N   UNL     1       1.722   9.483  18.513  0.00  0.00    +0.000 N 
ATOM      3  C   UNL     1       2.397   8.377  18.019  0.00  0.00    +0.000 C 
ATOM      4  O   UNL     1       3.218   8.492  17.100  0.00  0.00    +0.000 OA
ENDROOT
BRANCH   3   5
ATOM      5  C   UNL     1       2.137   7.005  18.637  0.00  0.00    +0.000 C 
ATOM      6  C   UNL     1       2.033   7.155  20.163  0.00  0.00    +0.000 C 
ATOM      7  C   UNL     1       1.660   5.850  20.862  0.00  0.00    +0.000 C 
ATOM      8  O   UNL     1       2.728   4.897  20.817  0.00  0.00    +0.000 OA
ATOM      9  C   UNL     1       2.627   4.101  19.707  0.00  0.00    +0.000 A 
ATOM     10  C   UNL     1       2.314   2.758  19.899  0.00  0.00    +0.000 A 
ATOM     11  C   UNL     1       2.178   1.916  18.797  0.00  0.00    +0.000 A 
ATOM     12  C   UNL     1       2.372   2.418  17.511  0.00  0.00    +0.000 A 
ATOM     13  C   UNL     1       2.725   3.756  17.326  0.00  0.00    +0.000 A 
ATOM     14  C   UNL     1       2.867   4.610  18.427  0.00  0.00    +0.000 A 
ATOM     15  C   UNL     1       3.270   6.050  18.234  0.00  0.00    +0.000 C 
ENDBRANCH   3   5
BRANCH   2  16
ATOM     16  C   UNL     1       0.789   9.473  19.640  0.00  0.00    +0.000 C 
BRANCH  16  17
ATOM     17  C   UNL     1      -0.425  10.329  19.416  0.00  0.00    +0.000 A 
ATOM     18  N   UNL     1      -0.742  11.214  20.381  0.00  0.00    +0.000 NA
ATOM     19  O   UNL     1      -1.914  11.831  19.981  0.00  0.00    +0.000 OA
ATOM     20  C   UNL     1      -2.287  11.317  18.795  0.00  0.00    +0.000 A 
ATOM     21  C   UNL     1      -1.377  10.384  18.361  0.00  0.00    +0.000 A 
ATOM     22  C   UNL     1      -1.566   9.657  17.080  0.00  0.00    +0.000 C 
ATOM     23  C   UNL     1      -2.676  10.306  16.218  0.00  0.00    +0.000 C 
ATOM     24  C   UNL     1      -3.903  10.738  17.050  0.00  0.00    +0.000 C 
ATOM     25  C   UNL     1      -3.528  11.768  18.134  0.00  0.00    +0.000 C 
ENDBRANCH  16  17
ENDBRANCH   2  16
TORSDOF 3
ENDMDL
MODEL 7
REMARK VINA RESULT:      -7.4      5.358      9.364
REMARK  Name = 
REMARK  4 active torsions:
REMARK  status: ('A' for Active; 'I' for Inactive)
REMARK    1  A    between atoms: C_1  and  N_2
REMARK    2  A    between atoms: N_2  and  C_3
REMARK    3  A    between atoms: C_3  and  C_4
REMARK    4  A    between atoms: C_13  and  C_15
REMARK                            x       y       z     vdW  Elec       q    Type
REMARK                         _______ _______ _______ _____ _____    ______ ____
ROOT
ATOM      1  C   UNL     1       1.050   9.402  21.800  0.00  0.00    +0.000 C 
ATOM      2  N   UNL     1       0.244  10.580  21.519  0.00  0.00    +0.000 N 
ATOM      3  C   UNL     1      -0.630  11.011  22.506  0.00  0.00    +0.000 C 
ATOM      4  O   UNL     1      -0.735  10.396  23.575  0.00  0.00    +0.000 OA
ENDROOT
BRANCH   3   5
ATOM      5  C   UNL     1      -1.452  12.277  22.275  0.00  0.00    +0.000 C 
ATOM      6  C   UNL     1      -0.659  13.490  22.785  0.00  0.00    +0.000 C 
ATOM      7  C   UNL     1      -1.354  14.817  22.492  0.00  0.00    +0.000 C 
ATOM      8  O   UNL     1      -2.534  14.988  23.287  0.00  0.00    +0.000 OA
ATOM      9  C   UNL     1      -3.635  14.495  22.639  0.00  0.00    +0.000 A 
ATOM     10  C   UNL     1      -4.592  15.407  22.201  0.00  0.00    +0.000 A 
ATOM     11  C   UNL     1      -5.717  14.953  21.517  0.00  0.00    +0.000 A 
ATOM     12  C   UNL     1      -5.888  13.588  21.289  0.00  0.00    +0.000 A 
ATOM     13  C   UNL     1      -4.946  12.674  21.764  0.00  0.00    +0.000 A 
ATOM     14  C   UNL     1      -3.812  13.120  22.456  0.00  0.00    +0.000 A 
ATOM     15  C   UNL     1      -2.803  12.136  22.991  0.00  0.00    +0.000 C 
ENDBRANCH   3   5
BRANCH   2  16
ATOM     16  C   UNL     1       0.500  11.268  20.254  0.00  0.00    +0.000 C 
BRANCH  16  17
ATOM     17  C   UNL     1      -0.272  10.698  19.099  0.00  0.00    +0.000 A 
ATOM     18  N   UNL     1       0.360   9.804  18.315  0.00  0.00    +0.000 NA
ATOM     19  O   UNL     1      -0.521   9.476  17.299  0.00  0.00    +0.000 OA
ATOM     20  C   UNL     1      -1.660  10.168  17.479  0.00  0.00    +0.000 A 
ATOM     21  C   UNL     1      -1.588  10.938  18.615  0.00  0.00    +0.000 A 
ATOM     22  C   UNL     1      -2.715  11.811  19.030  0.00  0.00    +0.000 C 
ATOM     23  C   UNL     1      -4.006  11.485  18.240  0.00  0.00    +0.000 C 
ATOM     24  C   UNL     1      -3.740  11.227  16.741  0.00  0.00    +0.000 C 
ATOM     25  C   UNL     1      -2.778  10.042  16.524  0.00  0.00    +0.000 C 
ENDBRANCH  16  17
ENDBRANCH   2  16
TORSDOF 3
ENDMDL
MODEL 8
REMARK VINA RESULT:      -7.3      5.219      9.051
REMARK  Name = 
REMARK  4 active torsions:
REMARK  status: ('A' for Active; 'I' for Inactive)
REMARK    1  A    between atoms: C_1  and  N_2
REMARK    2  A    between atoms: N_2  and  C_3
REMARK    3  A    between atoms: C_3  and  C_4
REMARK    4  A    between atoms: C_13  and  C_15
REMARK                            x       y       z     vdW  Elec       q    Type
REMARK                         _______ _______ _______ _____ _____    ______ ____
ROOT
ATOM      1  C   UNL     1      -0.293   9.666  17.924  0.00  0.00    +0.000 C 
ATOM      2  N   UNL     1      -0.745  10.786  18.734  0.00  0.00    +0.000 N 
ATOM      3  C   UNL     1      -0.375  10.803  20.071  0.00  0.00    +0.000 C 
ATOM      4  O   UNL     1       0.293   9.883  20.558  0.00  0.00    +0.000 OA
ENDROOT
BRANCH   3   5
ATOM      5  C   UNL     1      -0.779  11.990  20.942  0.00  0.00    +0.000 C 
ATOM      6  C   UNL     1       0.344  13.038  20.915  0.00  0.00    +0.000 C 
ATOM      7  C   UNL     1      -0.019  14.315  21.669  0.00  0.00    +0.000 C 
ATOM      8  O   UNL     1      -0.073  14.102  23.084  0.00  0.00    +0.000 OA
ATOM      9  C   UNL     1      -1.336  13.747  23.476  0.00  0.00    +0.000 A 
ATOM     10  C   UNL     1      -2.055  14.657  24.248  0.00  0.00    +0.000 A 
ATOM     11  C   UNL     1      -3.353  14.348  24.650  0.00  0.00    +0.000 A 
ATOM     12  C   UNL     1      -3.918  13.124  24.293  0.00  0.00    +0.000 A 
ATOM     13  C   UNL     1      -3.180  12.199  23.554  0.00  0.00    +0.000 A 
ATOM     14  C   UNL     1      -1.872  12.499  23.147  0.00  0.00    +0.000 A 
ATOM     15  C   UNL     1      -1.063  11.494  22.367  0.00  0.00    +0.000 C 
ENDBRANCH   3   5
BRANCH   2  16
ATOM     16  C   UNL     1      -1.468  11.852  18.041  0.00  0.00    +0.000 C 
BRANCH  16  17
ATOM     17  C   UNL     1      -2.935  11.572  17.884  0.00  0.00    +0.000 A 
ATOM     18  N   UNL     1      -3.331  10.972  16.745  0.00  0.00    +0.000 NA
ATOM     19  O   UNL     1      -4.711  10.879  16.806  0.00  0.00    +0.000 OA
ATOM     20  C   UNL     1      -5.126  11.418  17.966  0.00  0.00    +0.000 A 
ATOM     21  C   UNL     1      -4.057  11.849  18.714  0.00  0.00    +0.000 A 
ATOM     22  C   UNL     1      -4.249  12.497  20.036  0.00  0.00    +0.000 C 
ATOM     23  C   UNL     1      -5.698  12.316  20.551  0.00  0.00    +0.000 C 
ATOM     24  C   UNL     1      -6.755  12.499  19.440  0.00  0.00    +0.000 C 
ATOM     25  C   UNL     1      -6.564  11.485  18.294  0.00  0.00    +0.000 C 
ENDBRANCH  16  17
ENDBRANCH   2  16
TORSDOF 3
ENDMDL
MODEL 9
REMARK VINA RESULT:      -7.2      2.216      3.527
REMARK  Name = 
REMARK  4 active torsions:
REMARK  status: ('A' for Active; 'I' for Inactive)
REMARK    1  A    between atoms: C_1  and  N_2
REMARK    2  A    between atoms: N_2  and  C_3
REMARK    3  A    between atoms: C_3  and  C_4
REMARK    4  A    between atoms: C_13  and  C_15
REMARK                            x       y       z     vdW  Elec       q    Type
REMARK                         _______ _______ _______ _____ _____    ______ ____
ROOT
ATOM      1  C   UNL     1       1.246   4.306  20.275  0.00  0.00    +0.000 C 
ATOM      2  N   UNL     1       2.538   4.554  19.654  0.00  0.00    +0.000 N 
ATOM      3  C   UNL     1       2.998   3.625  18.732  0.00  0.00    +0.000 C 
ATOM      4  O   UNL     1       2.341   2.610  18.472  0.00  0.00    +0.000 OA
ENDROOT
BRANCH   3   5
ATOM      5  C   UNL     1       4.322   3.878  18.015  0.00  0.00    +0.000 C 
ATOM      6  C   UNL     1       5.297   4.560  18.987  0.00  0.00    +0.000 C 
ATOM      7  C   UNL     1       6.690   4.750  18.392  0.00  0.00    +0.000 C 
ATOM      8  O   UNL     1       6.697   5.741  17.357  0.00  0.00    +0.000 OA
ATOM      9  C   UNL     1       6.468   5.171  16.133  0.00  0.00    +0.000 A 
ATOM     10  C   UNL     1       7.518   5.154  15.219  0.00  0.00    +0.000 A 
ATOM     11  C   UNL     1       7.337   4.564  13.970  0.00  0.00    +0.000 A 
ATOM     12  C   UNL     1       6.103   4.009  13.635  0.00  0.00    +0.000 A 
ATOM     13  C   UNL     1       5.042   4.063  14.540  0.00  0.00    +0.000 A 
ATOM     14  C   UNL     1       5.212   4.657  15.798  0.00  0.00    +0.000 A 
ATOM     15  C   UNL     1       4.062   4.738  16.769  0.00  0.00    +0.000 C 
ENDBRANCH   3   5
BRANCH   2  16
ATOM     16  C   UNL     1       3.195   5.819  19.983  0.00  0.00    +0.000 C 
BRANCH  16  17
ATOM     17  C   UNL     1       2.489   7.020  19.422  0.00  0.00    +0.000 A 
ATOM     18  N   UNL     1       2.620   7.252  18.101  0.00  0.00    +0.000 NA
ATOM     19  O   UNL     1       1.943   8.430  17.837  0.00  0.00    +0.000 OA
ATOM     20  C   UNL     1       1.418   8.890  18.988  0.00  0.00    +0.000 A 
ATOM     21  C   UNL     1       1.696   8.035  20.026  0.00  0.00    +0.000 A 
ATOM     22  C   UNL     1       1.239   8.324  21.409  0.00  0.00    +0.000 C 
ATOM     23  C   UNL     1       0.196   9.467  21.434  0.00  0.00    +0.000 C 
ATOM     24  C   UNL     1       0.557  10.627  20.482  0.00  0.00    +0.000 C 
ATOM     25  C   UNL     1       0.661  10.156  19.017  0.00  0.00    +0.000 C 
ENDBRANCH  16  17
ENDBRANCH   2  16
TORSDOF 3
ENDMDL
