MODEL 1
REMARK VINA RESULT:      -8.3      0.000      0.000
REMARK  Name = 
REMARK  6 active torsions:
REMARK  status: ('A' for Active; 'I' for Inactive)
REMARK    1  A    between atoms: C_2  and  C_19
REMARK    2  A    between atoms: N_3  and  C_4
REMARK    3  A    between atoms: C_9  and  O_10
REMARK    4  A    between atoms: O_10  and  C_11
REMARK    5  A    between atoms: C_11  and  C_12
REMARK    6  A    between atoms: N_22  and  C_23
REMARK                            x       y       z     vdW  Elec       q    Type
REMARK                         _______ _______ _______ _____ _____    ______ ____
ROOT
ATOM      1  O   UNL     1       1.383   5.312  17.680  0.00  0.00    +0.000 OA
ATOM      2  C   UNL     1       2.595   5.481  17.844  0.00  0.00    +0.000 C 
ATOM      3  N   UNL     1       3.459   4.699  17.115  0.00  0.00    +0.000 N 
ATOM      4  H   UNL     1       2.960   4.231  16.370  0.00  0.00    +0.000 HD
ENDROOT
BRANCH   3   5
ATOM      5  C   UNL     1       4.867   4.750  17.009  0.00  0.00    +0.000 A 
ATOM      6  C   UNL     1       5.335   5.025  15.708  0.00  0.00    +0.000 A 
ATOM      7  C   UNL     1       6.702   5.117  15.432  0.00  0.00    +0.000 A 
ATOM      8  C   UNL     1       7.622   4.847  16.430  0.00  0.00    +0.000 A 
ATOM      9  C   UNL     1       7.174   4.505  17.702  0.00  0.00    +0.000 A 
ATOM     10  C   UNL     1       5.803   4.500  18.037  0.00  0.00    +0.000 A 
BRANCH  10  11
ATOM     11  O   UNL     1       5.378   4.182  19.321  0.00  0.00    +0.000 OA
BRANCH  11  12
ATOM     12  C   UNL     1       4.832   2.852  19.405  0.00  0.00    +0.000 C 
BRANCH  12  13
ATOM     13  C   UNL     1       3.423   2.703  19.932  0.00  0.00    +0.000 A 
ATOM     14  C   UNL     1       3.042   3.048  21.232  0.00  0.00    +0.000 A 
ATOM     15  C   UNL     1       1.691   2.989  21.607  0.00  0.00    +0.000 A 
ATOM     16  C   UNL     1       0.715   2.595  20.691  0.00  0.00    +0.000 A 
ATOM     17  C   UNL     1       1.091   2.271  19.394  0.00  0.00    +0.000 A 
ATOM     18  F   UNL     1       0.161   1.924  18.497  0.00  0.00    +0.000 F 
ATOM     19  C   UNL     1       2.424   2.326  19.014  0.00  0.00    +0.000 A 
ENDBRANCH  12  13
ENDBRANCH  11  12
ENDBRANCH  10  11
ENDBRANCH   3   5
BRANCH   2  20
ATOM     20  C   UNL     1       3.121   6.629  18.684  0.00  0.00    +0.000 C 
ATOM     21  C   UNL     1       2.815   6.449  20.173  0.00  0.00    +0.000 C 
ATOM     22  C   UNL     1       1.536   7.125  20.649  0.00  0.00    +0.000 C 
ATOM     23  N   UNL     1       1.521   8.510  20.160  0.00  0.00    +0.000 N 
ATOM     24  C   UNL     1       1.457   8.605  18.702  0.00  0.00    +0.000 C 
ATOM     25  C   UNL     1       2.711   7.985  18.094  0.00  0.00    +0.000 C 
BRANCH  23  26
ATOM     26  C   UNL     1       0.921   9.490  20.953  0.00  0.00    +0.000 A 
ATOM     27  C   UNL     1       0.836  10.816  20.509  0.00  0.00    +0.000 A 
ATOM     28  C   UNL     1       0.154  11.762  21.265  0.00  0.00    +0.000 A 
ATOM     29  N   UNL     1      -0.451  11.495  22.437  0.00  0.00    +0.000 NA
ATOM     30  C   UNL     1      -0.364  10.222  22.864  0.00  0.00    +0.000 A 
ATOM     31  C   UNL     1       0.299   9.213  22.176  0.00  0.00    +0.000 A 
ENDBRANCH  23  26
ENDBRANCH   2  20
TORSDOF 6
ENDMDL
MODEL 2
REMARK VINA RESULT:      -8.0      2.910      7.837
REMARK  Name = 
REMARK  6 active torsions:
REMARK  status: ('A' for Active; 'I' for Inactive)
REMARK    1  A    between atoms: C_2  and  C_19
REMARK    2  A    between atoms: N_3  and  C_4
REMARK    3  A    between atoms: C_9  and  O_10
REMARK    4  A    between atoms: O_10  and  C_11
REMARK    5  A    between atoms: C_11  and  C_12
REMARK    6  A    between atoms: N_22  and  C_23
REMARK                            x       y       z     vdW  Elec       q    Type
REMARK                         _______ _______ _______ _____ _____    ______ ____
ROOT
ATOM      1  O   UNL     1       6.561   5.171  19.874  0.00  0.00    +0.000 OA
ATOM      2  C   UNL     1       5.449   4.882  19.421  0.00  0.00    +0.000 C 
ATOM      3  N   UNL     1       4.595   4.162  20.223  0.00  0.00    +0.000 N 
ATOM      4  H   UNL     1       4.934   4.158  21.176  0.00  0.00    +0.000 HD
ENDROOT
BRANCH   3   5
ATOM      5  C   UNL     1       3.246   3.796  20.022  0.00  0.00    +0.000 A 
ATOM      6  C   UNL     1       3.078   2.525  19.435  0.00  0.00    +0.000 A 
ATOM      7  C   UNL     1       1.806   2.008  19.175  0.00  0.00    +0.000 A 
ATOM      8  C   UNL     1       0.688   2.786  19.412  0.00  0.00    +0.000 A 
ATOM      9  C   UNL     1       0.842   4.071  19.926  0.00  0.00    +0.000 A 
ATOM     10  C   UNL     1       2.105   4.585  20.290  0.00  0.00    +0.000 A 
BRANCH  10  11
ATOM     11  O   UNL     1       2.235   5.859  20.827  0.00  0.00    +0.000 OA
BRANCH  11  12
ATOM     12  C   UNL     1       2.242   6.883  19.814  0.00  0.00    +0.000 C 
BRANCH  12  13
ATOM     13  C   UNL     1       1.488   8.161  20.101  0.00  0.00    +0.000 A 
ATOM     14  C   UNL     1       1.293   9.173  19.156  0.00  0.00    +0.000 A 
ATOM     15  C   UNL     1       0.481  10.275  19.465  0.00  0.00    +0.000 A 
ATOM     16  C   UNL     1      -0.144  10.372  20.709  0.00  0.00    +0.000 A 
ATOM     17  C   UNL     1       0.034   9.357  21.640  0.00  0.00    +0.000 A 
ATOM     18  F   UNL     1      -0.586   9.422  22.823  0.00  0.00    +0.000 F 
ATOM     19  C   UNL     1       0.835   8.263  21.343  0.00  0.00    +0.000 A 
ENDBRANCH  12  13
ENDBRANCH  11  12
ENDBRANCH  10  11
ENDBRANCH   3   5
BRANCH   2  20
ATOM     20  C   UNL     1       4.967   5.447  18.099  0.00  0.00    +0.000 C 
ATOM     21  C   UNL     1       4.344   4.376  17.200  0.00  0.00    +0.000 C 
ATOM     22  C   UNL     1       5.303   3.744  16.200  0.00  0.00    +0.000 C 
ATOM     23  N   UNL     1       6.035   4.810  15.504  0.00  0.00    +0.000 N 
ATOM     24  C   UNL     1       6.900   5.588  16.391  0.00  0.00    +0.000 C 
ATOM     25  C   UNL     1       6.049   6.307  17.433  0.00  0.00    +0.000 C 
BRANCH  23  26
ATOM     26  C   UNL     1       6.396   4.609  14.171  0.00  0.00    +0.000 A 
ATOM     27  C   UNL     1       7.433   5.353  13.592  0.00  0.00    +0.000 A 
ATOM     28  C   UNL     1       7.846   5.080  12.293  0.00  0.00    +0.000 A 
ATOM     29  N   UNL     1       7.307   4.121  11.518  0.00  0.00    +0.000 NA
ATOM     30  C   UNL     1       6.308   3.411  12.075  0.00  0.00    +0.000 A 
ATOM     31  C   UNL     1       5.828   3.618  13.363  0.00  0.00    +0.000 A 
ENDBRANCH  23  26
ENDBRANCH   2  20
TORSDOF 6
ENDMDL
MODEL 3
REMARK VINA RESULT:      -7.8      0.776      1.446
REMARK  Name = 
REMARK  6 active torsions:
REMARK  status: ('A' for Active; 'I' for Inactive)
REMARK    1  A    between atoms: C_2  and  C_19
REMARK    2  A    between atoms: N_3  and  C_4
REMARK    3  A    between atoms: C_9  and  O_10
REMARK    4  A    between atoms: O_10  and  C_11
REMARK    5  A    between atoms: C_11  and  C_12
REMARK    6  A    between atoms: N_22  and  C_23
REMARK                            x       y       z     vdW  Elec       q    Type
REMARK                         _______ _______ _______ _____ _____    ______ ____
ROOT
ATOM      1  O   UNL     1       1.424   5.254  17.670  0.00  0.00    +0.000 OA
ATOM      2  C   UNL     1       2.631   5.458  17.833  0.00  0.00    +0.000 C 
ATOM      3  N   UNL     1       3.516   4.682  17.123  0.00  0.00    +0.000 N 
ATOM      4  H   UNL     1       3.032   4.186  16.388  0.00  0.00    +0.000 HD
ENDROOT
BRANCH   3   5
ATOM      5  C   UNL     1       4.923   4.766  17.020  0.00  0.00    +0.000 A 
ATOM      6  C   UNL     1       5.387   5.039  15.717  0.00  0.00    +0.000 A 
ATOM      7  C   UNL     1       6.753   5.161  15.443  0.00  0.00    +0.000 A 
ATOM      8  C   UNL     1       7.676   4.925  16.446  0.00  0.00    +0.000 A 
ATOM      9  C   UNL     1       7.233   4.585  17.720  0.00  0.00    +0.000 A 
ATOM     10  C   UNL     1       5.862   4.549  18.053  0.00  0.00    +0.000 A 
BRANCH  10  11
ATOM     11  O   UNL     1       5.442   4.235  19.339  0.00  0.00    +0.000 OA
BRANCH  11  12
ATOM     12  C   UNL     1       4.978   2.876  19.447  0.00  0.00    +0.000 C 
BRANCH  12  13
ATOM     13  C   UNL     1       3.487   2.647  19.538  0.00  0.00    +0.000 A 
ATOM     14  C   UNL     1       2.733   2.048  18.524  0.00  0.00    +0.000 A 
ATOM     15  C   UNL     1       1.374   1.765  18.734  0.00  0.00    +0.000 A 
ATOM     16  C   UNL     1       0.764   2.069  19.950  0.00  0.00    +0.000 A 
ATOM     17  C   UNL     1       1.517   2.646  20.964  0.00  0.00    +0.000 A 
ATOM     18  F   UNL     1       0.952   2.911  22.147  0.00  0.00    +0.000 F 
ATOM     19  C   UNL     1       2.862   2.929  20.767  0.00  0.00    +0.000 A 
ENDBRANCH  12  13
ENDBRANCH  11  12
ENDBRANCH  10  11
ENDBRANCH   3   5
BRANCH   2  20
ATOM     20  C   UNL     1       3.126   6.637  18.650  0.00  0.00    +0.000 C 
ATOM     21  C   UNL     1       2.762   6.512  20.132  0.00  0.00    +0.000 C 
ATOM     22  C   UNL     1       1.466   7.205  20.532  0.00  0.00    +0.000 C 
ATOM     23  N   UNL     1       1.471   8.571  19.991  0.00  0.00    +0.000 N 
ATOM     24  C   UNL     1       1.464   8.611  18.529  0.00  0.00    +0.000 C 
ATOM     25  C   UNL     1       2.740   7.969  17.994  0.00  0.00    +0.000 C 
BRANCH  23  26
ATOM     26  C   UNL     1       0.842   9.579  20.724  0.00  0.00    +0.000 A 
ATOM     27  C   UNL     1       0.204   9.289  21.937  0.00  0.00    +0.000 A 
ATOM     28  C   UNL     1      -0.337  10.315  22.703  0.00  0.00    +0.000 A 
ATOM     29  N   UNL     1      -0.296  11.615  22.356  0.00  0.00    +0.000 NA
ATOM     30  C   UNL     1       0.313  11.891  21.188  0.00  0.00    +0.000 A 
ATOM     31  C   UNL     1       0.877  10.929  20.358  0.00  0.00    +0.000 A 
ENDBRANCH  23  26
ENDBRANCH   2  20
TORSDOF 6
ENDMDL
MODEL 4
REMARK VINA RESULT:      -7.8      3.097      7.867
REMARK  Name = 
REMARK  6 active torsions:
REMARK  status: ('A' for Active; 'I' for Inactive)
REMARK    1  A    between atoms: C_2  and  C_19
REMARK    2  A    between atoms: N_3  and  C_4
REMARK    3  A    between atoms: C_9  and  O_10
REMARK    4  A    between atoms: O_10  and  C_11
REMARK    5  A    between atoms: C_11  and  C_12
REMARK    6  A    between atoms: N_22  and  C_23
REMARK                            x       y       z     vdW  Elec       q    Type
REMARK                         _______ _______ _______ _____ _____    ______ ____
ROOT
ATOM      1  O   UNL     1       6.635   5.206  19.788  0.00  0.00    +0.000 OA
ATOM      2  C   UNL     1       5.501   4.902  19.405  0.00  0.00    +0.000 C 
ATOM      3  N   UNL     1       4.683   4.231  20.282  0.00  0.00    +0.000 N 
ATOM      4  H   UNL     1       5.066   4.272  21.216  0.00  0.00    +0.000 HD
ENDROOT
BRANCH   3   5
ATOM      5  C   UNL     1       3.324   3.865  20.164  0.00  0.00    +0.000 A 
ATOM      6  C   UNL     1       3.116   2.626  19.525  0.00  0.00    +0.000 A 
ATOM      7  C   UNL     1       1.830   2.113  19.333  0.00  0.00    +0.000 A 
ATOM      8  C   UNL     1       0.730   2.869  19.696  0.00  0.00    +0.000 A 
ATOM      9  C   UNL     1       0.919   4.125  20.264  0.00  0.00    +0.000 A 
ATOM     10  C   UNL     1       2.203   4.629  20.560  0.00  0.00    +0.000 A 
BRANCH  10  11
ATOM     11  O   UNL     1       2.368   5.874  21.153  0.00  0.00    +0.000 OA
BRANCH  11  12
ATOM     12  C   UNL     1       1.300   6.784  20.825  0.00  0.00    +0.000 C 
BRANCH  12  13
ATOM     13  C   UNL     1       1.594   7.884  19.830  0.00  0.00    +0.000 A 
ATOM     14  C   UNL     1       2.275   7.678  18.628  0.00  0.00    +0.000 A 
ATOM     15  C   UNL     1       2.403   8.728  17.705  0.00  0.00    +0.000 A 
ATOM     16  C   UNL     1       1.850   9.980  17.971  0.00  0.00    +0.000 A 
ATOM     17  C   UNL     1       1.156  10.179  19.157  0.00  0.00    +0.000 A 
ATOM     18  F   UNL     1       0.592  11.365  19.409  0.00  0.00    +0.000 F 
ATOM     19  C   UNL     1       1.024   9.147  20.076  0.00  0.00    +0.000 A 
ENDBRANCH  12  13
ENDBRANCH  11  12
ENDBRANCH  10  11
ENDBRANCH   3   5
BRANCH   2  20
ATOM     20  C   UNL     1       4.959   5.403  18.080  0.00  0.00    +0.000 C 
ATOM     21  C   UNL     1       4.413   4.270  17.208  0.00  0.00    +0.000 C 
ATOM     22  C   UNL     1       5.407   3.698  16.205  0.00  0.00    +0.000 C 
ATOM     23  N   UNL     1       6.042   4.807  15.482  0.00  0.00    +0.000 N 
ATOM     24  C   UNL     1       6.854   5.667  16.343  0.00  0.00    +0.000 C 
ATOM     25  C   UNL     1       5.961   6.334  17.384  0.00  0.00    +0.000 C 
BRANCH  23  26
ATOM     26  C   UNL     1       6.402   4.611  14.147  0.00  0.00    +0.000 A 
ATOM     27  C   UNL     1       7.469   5.323  13.583  0.00  0.00    +0.000 A 
ATOM     28  C   UNL     1       7.878   5.052  12.283  0.00  0.00    +0.000 A 
ATOM     29  N   UNL     1       7.306   4.126  11.491  0.00  0.00    +0.000 NA
ATOM     30  C   UNL     1       6.278   3.447  12.033  0.00  0.00    +0.000 A 
ATOM     31  C   UNL     1       5.800   3.654  13.322  0.00  0.00    +0.000 A 
ENDBRANCH  23  26
ENDBRANCH   2  20
TORSDOF 6
ENDMDL
MODEL 5
REMARK VINA RESULT:      -7.7      1.519      1.694
REMARK  Name = 
REMARK  6 active torsions:
REMARK  status: ('A' for Active; 'I' for Inactive)
REMARK    1  A    between atoms: C_2  and  C_19
REMARK    2  A    between atoms: N_3  and  C_4
REMARK    3  A    between atoms: C_9  and  O_10
REMARK    4  A    between atoms: O_10  and  C_11
REMARK    5  A    between atoms: C_11  and  C_12
REMARK    6  A    between atoms: N_22  and  C_23
REMARK                            x       y       z     vdW  Elec       q    Type
REMARK                         _______ _______ _______ _____ _____    ______ ____
ROOT
ATOM      1  O   UNL     1       1.550   5.918  17.850  0.00  0.00    +0.000 OA
ATOM      2  C   UNL     1       2.648   6.345  18.220  0.00  0.00    +0.000 C 
ATOM      3  N   UNL     1       3.769   5.641  17.852  0.00  0.00    +0.000 N 
ATOM      4  H   UNL     1       3.539   4.972  17.130  0.00  0.00    +0.000 HD
ENDROOT
BRANCH   3   5
ATOM      5  C   UNL     1       5.137   5.948  18.027  0.00  0.00    +0.000 A 
ATOM      6  C   UNL     1       5.651   6.845  17.069  0.00  0.00    +0.000 A 
ATOM      7  C   UNL     1       6.986   7.259  17.103  0.00  0.00    +0.000 A 
ATOM      8  C   UNL     1       7.848   6.715  18.038  0.00  0.00    +0.000 A 
ATOM      9  C   UNL     1       7.370   5.775  18.946  0.00  0.00    +0.000 A 
ATOM     10  C   UNL     1       6.008   5.410  19.000  0.00  0.00    +0.000 A 
BRANCH  10  11
ATOM     11  O   UNL     1       5.548   4.490  19.933  0.00  0.00    +0.000 OA
BRANCH  11  12
ATOM     12  C   UNL     1       4.801   3.419  19.324  0.00  0.00    +0.000 C 
BRANCH  12  13
ATOM     13  C   UNL     1       3.361   3.237  19.745  0.00  0.00    +0.000 A 
ATOM     14  C   UNL     1       2.800   3.850  20.869  0.00  0.00    +0.000 A 
ATOM     15  C   UNL     1       1.425   3.724  21.124  0.00  0.00    +0.000 A 
ATOM     16  C   UNL     1       0.605   2.997  20.262  0.00  0.00    +0.000 A 
ATOM     17  C   UNL     1       1.159   2.405  19.134  0.00  0.00    +0.000 A 
ATOM     18  F   UNL     1       0.377   1.734  18.281  0.00  0.00    +0.000 F 
ATOM     19  C   UNL     1       2.517   2.524  18.873  0.00  0.00    +0.000 A 
ENDBRANCH  12  13
ENDBRANCH  11  12
ENDBRANCH  10  11
ENDBRANCH   3   5
BRANCH   2  20
ATOM     20  C   UNL     1       2.777   7.693  18.903  0.00  0.00    +0.000 C 
ATOM     21  C   UNL     1       2.018   7.747  20.232  0.00  0.00    +0.000 C 
ATOM     22  C   UNL     1       0.603   8.303  20.139  0.00  0.00    +0.000 C 
ATOM     23  N   UNL     1       0.635   9.556  19.373  0.00  0.00    +0.000 N 
ATOM     24  C   UNL     1       1.042   9.371  17.981  0.00  0.00    +0.000 C 
ATOM     25  C   UNL     1       2.472   8.842  17.933  0.00  0.00    +0.000 C 
BRANCH  23  26
ATOM     26  C   UNL     1      -0.267  10.566  19.712  0.00  0.00    +0.000 A 
ATOM     27  C   UNL     1      -1.296  10.929  18.832  0.00  0.00    +0.000 A 
ATOM     28  C   UNL     1      -2.244  11.869  19.218  0.00  0.00    +0.000 A 
ATOM     29  N   UNL     1      -2.251  12.484  20.415  0.00  0.00    +0.000 NA
ATOM     30  C   UNL     1      -1.259  12.137  21.256  0.00  0.00    +0.000 A 
ATOM     31  C   UNL     1      -0.268  11.211  20.953  0.00  0.00    +0.000 A 
ENDBRANCH  23  26
ENDBRANCH   2  20
TORSDOF 6
ENDMDL
MODEL 6
REMARK VINA RESULT:      -7.6      2.899      7.725
REMARK  Name = 
REMARK  6 active torsions:
REMARK  status: ('A' for Active; 'I' for Inactive)
REMARK    1  A    between atoms: C_2  and  C_19
REMARK    2  A    between atoms: N_3  and  C_4
REMARK    3  A    between atoms: C_9  and  O_10
REMARK    4  A    between atoms: O_10  and  C_11
REMARK    5  A    between atoms: C_11  and  C_12
REMARK    6  A    between atoms: N_22  and  C_23
REMARK                            x       y       z     vdW  Elec       q    Type
REMARK                         _______ _______ _______ _____ _____    ______ ____
ROOT
ATOM      1  O   UNL     1       6.599   5.091  19.830  0.00  0.00    +0.000 OA
ATOM      2  C   UNL     1       5.464   4.813  19.429  0.00  0.00    +0.000 C 
ATOM      3  N   UNL     1       4.626   4.139  20.285  0.00  0.00    +0.000 N 
ATOM      4  H   UNL     1       5.000   4.157  21.224  0.00  0.00    +0.000 HD
ENDROOT
BRANCH   3   5
ATOM      5  C   UNL     1       3.262   3.799  20.147  0.00  0.00    +0.000 A 
ATOM      6  C   UNL     1       3.041   2.580  19.473  0.00  0.00    +0.000 A 
ATOM      7  C   UNL     1       1.748   2.093  19.258  0.00  0.00    +0.000 A 
ATOM      8  C   UNL     1       0.657   2.857  19.632  0.00  0.00    +0.000 A 
ATOM      9  C   UNL     1       0.861   4.094  20.235  0.00  0.00    +0.000 A 
ATOM     10  C   UNL     1       2.150   4.569  20.554  0.00  0.00    +0.000 A 
BRANCH  10  11
ATOM     11  O   UNL     1       2.330   5.795  21.182  0.00  0.00    +0.000 OA
BRANCH  11  12
ATOM     12  C   UNL     1       1.235   6.700  20.943  0.00  0.00    +0.000 C 
BRANCH  12  13
ATOM     13  C   UNL     1       1.416   7.758  19.878  0.00  0.00    +0.000 A 
ATOM     14  C   UNL     1       0.929   9.063  19.993  0.00  0.00    +0.000 A 
ATOM     15  C   UNL     1       1.241  10.017  19.012  0.00  0.00    +0.000 A 
ATOM     16  C   UNL     1       2.041   9.680  17.920  0.00  0.00    +0.000 A 
ATOM     17  C   UNL     1       2.541   8.389  17.817  0.00  0.00    +0.000 A 
ATOM     18  F   UNL     1       3.337   8.062  16.793  0.00  0.00    +0.000 F 
ATOM     19  C   UNL     1       2.239   7.438  18.781  0.00  0.00    +0.000 A 
ENDBRANCH  12  13
ENDBRANCH  11  12
ENDBRANCH  10  11
ENDBRANCH   3   5
BRANCH   2  20
ATOM     20  C   UNL     1       4.944   5.348  18.108  0.00  0.00    +0.000 C 
ATOM     21  C   UNL     1       4.395   4.239  17.207  0.00  0.00    +0.000 C 
ATOM     22  C   UNL     1       5.394   3.675  16.205  0.00  0.00    +0.000 C 
ATOM     23  N   UNL     1       6.052   4.791  15.512  0.00  0.00    +0.000 N 
ATOM     24  C   UNL     1       6.863   5.623  16.400  0.00  0.00    +0.000 C 
ATOM     25  C   UNL     1       5.965   6.281  17.444  0.00  0.00    +0.000 C 
BRANCH  23  26
ATOM     26  C   UNL     1       6.426   4.618  14.178  0.00  0.00    +0.000 A 
ATOM     27  C   UNL     1       7.461   5.381  13.621  0.00  0.00    +0.000 A 
ATOM     28  C   UNL     1       7.887   5.135  12.322  0.00  0.00    +0.000 A 
ATOM     29  N   UNL     1       7.361   4.187  11.524  0.00  0.00    +0.000 NA
ATOM     30  C   UNL     1       6.364   3.459  12.059  0.00  0.00    +0.000 A 
ATOM     31  C   UNL     1       5.872   3.638  13.347  0.00  0.00    +0.000 A 
ENDBRANCH  23  26
ENDBRANCH   2  20
TORSDOF 6
ENDMDL
MODEL 7
REMARK VINA RESULT:      -7.6      1.669      2.046
REMARK  Name = 
REMARK  6 active torsions:
REMARK  status: ('A' for Active; 'I' for Inactive)
REMARK    1  A    between atoms: C_2  and  C_19
REMARK    2  A    between atoms: N_3  and  C_4
REMARK    3  A    between atoms: C_9  and  O_10
REMARK    4  A    between atoms: O_10  and  C_11
REMARK    5  A    between atoms: C_11  and  C_12
REMARK    6  A    between atoms: N_22  and  C_23
REMARK                            x       y       z     vdW  Elec       q    Type
REMARK                         _______ _______ _______ _____ _____    ______ ____
ROOT
ATOM      1  O   UNL     1       1.495   6.072  17.728  0.00  0.00    +0.000 OA
ATOM      2  C   UNL     1       2.591   6.459  18.147  0.00  0.00    +0.000 C 
ATOM      3  N   UNL     1       3.703   5.722  17.815  0.00  0.00    +0.000 N 
ATOM      4  H   UNL     1       3.480   5.068  17.077  0.00  0.00    +0.000 HD
ENDROOT
BRANCH   3   5
ATOM      5  C   UNL     1       5.072   5.981  18.048  0.00  0.00    +0.000 A 
ATOM      6  C   UNL     1       5.646   6.894  17.140  0.00  0.00    +0.000 A 
ATOM      7  C   UNL     1       6.990   7.266  17.234  0.00  0.00    +0.000 A 
ATOM      8  C   UNL     1       7.802   6.666  18.180  0.00  0.00    +0.000 A 
ATOM      9  C   UNL     1       7.265   5.711  19.038  0.00  0.00    +0.000 A 
ATOM     10  C   UNL     1       5.892   5.386  19.033  0.00  0.00    +0.000 A 
BRANCH  10  11
ATOM     11  O   UNL     1       5.371   4.450  19.917  0.00  0.00    +0.000 OA
BRANCH  11  12
ATOM     12  C   UNL     1       4.839   3.294  19.242  0.00  0.00    +0.000 C 
BRANCH  12  13
ATOM     13  C   UNL     1       3.358   3.022  19.373  0.00  0.00    +0.000 A 
ATOM     14  C   UNL     1       2.547   2.625  18.306  0.00  0.00    +0.000 A 
ATOM     15  C   UNL     1       1.206   2.279  18.534  0.00  0.00    +0.000 A 
ATOM     16  C   UNL     1       0.670   2.321  19.822  0.00  0.00    +0.000 A 
ATOM     17  C   UNL     1       1.481   2.697  20.884  0.00  0.00    +0.000 A 
ATOM     18  F   UNL     1       0.988   2.708  22.128  0.00  0.00    +0.000 F 
ATOM     19  C   UNL     1       2.808   3.040  20.668  0.00  0.00    +0.000 A 
ENDBRANCH  12  13
ENDBRANCH  11  12
ENDBRANCH  10  11
ENDBRANCH   3   5
BRANCH   2  20
ATOM     20  C   UNL     1       2.737   7.794  18.851  0.00  0.00    +0.000 C 
ATOM     21  C   UNL     1       2.017   7.820  20.203  0.00  0.00    +0.000 C 
ATOM     22  C   UNL     1       0.599   8.373  20.162  0.00  0.00    +0.000 C 
ATOM     23  N   UNL     1       0.605   9.641  19.419  0.00  0.00    +0.000 N 
ATOM     24  C   UNL     1       0.971   9.483  18.012  0.00  0.00    +0.000 C 
ATOM     25  C   UNL     1       2.400   8.959  17.912  0.00  0.00    +0.000 C 
BRANCH  23  26
ATOM     26  C   UNL     1      -0.290  10.641  19.803  0.00  0.00    +0.000 A 
ATOM     27  C   UNL     1      -1.372  10.985  18.982  0.00  0.00    +0.000 A 
ATOM     28  C   UNL     1      -2.309  11.915  19.416  0.00  0.00    +0.000 A 
ATOM     29  N   UNL     1      -2.256  12.537  20.608  0.00  0.00    +0.000 NA
ATOM     30  C   UNL     1      -1.213  12.209  21.393  0.00  0.00    +0.000 A 
ATOM     31  C   UNL     1      -0.228  11.294  21.039  0.00  0.00    +0.000 A 
ENDBRANCH  23  26
ENDBRANCH   2  20
TORSDOF 6
ENDMDL
MODEL 8
REMARK VINA RESULT:      -7.6      3.036      8.054
REMARK  Name = 
REMARK  6 active torsions:
REMARK  status: ('A' for Active; 'I' for Inactive)
REMARK    1  A    between atoms: C_2  and  C_19
REMARK    2  A    between atoms: N_3  and  C_4
REMARK    3  A    between atoms: C_9  and  O_10
REMARK    4  A    between atoms: O_10  and  C_11
REMARK    5  A    between atoms: C_11  and  C_12
REMARK    6  A    between atoms: N_22  and  C_23
REMARK                            x       y       z     vdW  Elec       q    Type
REMARK                         _______ _______ _______ _____ _____    ______ ____
ROOT
ATOM      1  O   UNL     1       6.646   5.305  19.790  0.00  0.00    +0.000 OA
ATOM      2  C   UNL     1       5.524   5.013  19.364  0.00  0.00    +0.000 C 
ATOM      3  N   UNL     1       4.659   4.371  20.218  0.00  0.00    +0.000 N 
ATOM      4  H   UNL     1       5.004   4.424  21.167  0.00  0.00    +0.000 HD
ENDROOT
BRANCH   3   5
ATOM      5  C   UNL     1       3.300   4.026  20.049  0.00  0.00    +0.000 A 
ATOM      6  C   UNL     1       3.075   2.644  19.884  0.00  0.00    +0.000 A 
ATOM      7  C   UNL     1       1.785   2.133  19.713  0.00  0.00    +0.000 A 
ATOM      8  C   UNL     1       0.712   3.000  19.614  0.00  0.00    +0.000 A 
ATOM      9  C   UNL     1       0.929   4.372  19.705  0.00  0.00    +0.000 A 
ATOM     10  C   UNL     1       2.203   4.913  19.976  0.00  0.00    +0.000 A 
BRANCH  10  11
ATOM     11  O   UNL     1       2.392   6.285  20.090  0.00  0.00    +0.000 OA
BRANCH  11  12
ATOM     12  C   UNL     1       1.512   6.880  21.062  0.00  0.00    +0.000 C 
BRANCH  12  13
ATOM     13  C   UNL     1       1.152   8.338  20.885  0.00  0.00    +0.000 A 
ATOM     14  C   UNL     1       1.270   9.023  19.672  0.00  0.00    +0.000 A 
ATOM     15  C   UNL     1       0.804  10.342  19.563  0.00  0.00    +0.000 A 
ATOM     16  C   UNL     1       0.215  10.982  20.654  0.00  0.00    +0.000 A 
ATOM     17  C   UNL     1       0.080  10.294  21.853  0.00  0.00    +0.000 A 
ATOM     18  F   UNL     1      -0.514  10.884  22.897  0.00  0.00    +0.000 F 
ATOM     19  C   UNL     1       0.537   8.989  21.971  0.00  0.00    +0.000 A 
ENDBRANCH  12  13
ENDBRANCH  11  12
ENDBRANCH  10  11
ENDBRANCH   3   5
BRANCH   2  20
ATOM     20  C   UNL     1       5.047   5.499  18.009  0.00  0.00    +0.000 C 
ATOM     21  C   UNL     1       4.515   4.359  17.136  0.00  0.00    +0.000 C 
ATOM     22  C   UNL     1       5.538   3.750  16.186  0.00  0.00    +0.000 C 
ATOM     23  N   UNL     1       6.224   4.833  15.469  0.00  0.00    +0.000 N 
ATOM     24  C   UNL     1       7.016   5.694  16.347  0.00  0.00    +0.000 C 
ATOM     25  C   UNL     1       6.094   6.398  17.339  0.00  0.00    +0.000 C 
BRANCH  23  26
ATOM     26  C   UNL     1       6.634   4.605  14.154  0.00  0.00    +0.000 A 
ATOM     27  C   UNL     1       6.041   3.595  13.386  0.00  0.00    +0.000 A 
ATOM     28  C   UNL     1       6.391   3.439  12.050  0.00  0.00    +0.000 A 
ATOM     29  N   UNL     1       7.291   4.210  11.413  0.00  0.00    +0.000 NA
ATOM     30  C   UNL     1       7.863   5.176  12.154  0.00  0.00    +0.000 A 
ATOM     31  C   UNL     1       7.577   5.402  13.496  0.00  0.00    +0.000 A 
ENDBRANCH  23  26
ENDBRANCH   2  20
TORSDOF 6
ENDMDL
MODEL 9
REMARK VINA RESULT:      -7.5      1.103      1.402
REMARK  Name = 
REMARK  6 active torsions:
REMARK  status: ('A' for Active; 'I' for Inactive)
REMARK    1  A    between atoms: C_2  and  C_19
REMARK    2  A    between atoms: N_3  and  C_4
REMARK    3  A    between atoms: C_9  and  O_10
REMARK    4  A    between atoms: O_10  and  C_11
REMARK    5  A    between atoms: C_11  and  C_12
REMARK    6  A    between atoms: N_22  and  C_23
REMARK                            x       y       z     vdW  Elec       q    Type
REMARK                         _______ _______ _______ _____ _____    ______ ____
ROOT
ATOM      1  O   UNL     1       1.249   5.988  17.672  0.00  0.00    +0.000 OA
ATOM      2  C   UNL     1       2.408   6.228  18.025  0.00  0.00    +0.000 C 
ATOM      3  N   UNL     1       3.416   5.466  17.485  0.00  0.00    +0.000 N 
ATOM      4  H   UNL     1       3.071   4.944  16.691  0.00  0.00    +0.000 HD
ENDROOT
BRANCH   3   5
ATOM      5  C   UNL     1       4.818   5.586  17.611  0.00  0.00    +0.000 A 
ATOM      6  C   UNL     1       5.318   6.857  17.261  0.00  0.00    +0.000 A 
ATOM      7  C   UNL     1       6.684   7.147  17.337  0.00  0.00    +0.000 A 
ATOM      8  C   UNL     1       7.578   6.148  17.676  0.00  0.00    +0.000 A 
ATOM      9  C   UNL     1       7.105   4.869  17.955  0.00  0.00    +0.000 A 
ATOM     10  C   UNL     1       5.726   4.570  17.983  0.00  0.00    +0.000 A 
BRANCH  10  11
ATOM     11  O   UNL     1       5.274   3.294  18.292  0.00  0.00    +0.000 OA
BRANCH  11  12
ATOM     12  C   UNL     1       4.873   3.173  19.670  0.00  0.00    +0.000 C 
BRANCH  12  13
ATOM     13  C   UNL     1       3.391   3.137  19.972  0.00  0.00    +0.000 A 
ATOM     14  C   UNL     1       2.795   3.860  21.009  0.00  0.00    +0.000 A 
ATOM     15  C   UNL     1       1.398   3.865  21.148  0.00  0.00    +0.000 A 
ATOM     16  C   UNL     1       0.592   3.159  20.256  0.00  0.00    +0.000 A 
ATOM     17  C   UNL     1       1.183   2.457  19.214  0.00  0.00    +0.000 A 
ATOM     18  F   UNL     1       0.419   1.804  18.331  0.00  0.00    +0.000 F 
ATOM     19  C   UNL     1       2.563   2.446  19.067  0.00  0.00    +0.000 A 
ENDBRANCH  12  13
ENDBRANCH  11  12
ENDBRANCH  10  11
ENDBRANCH   3   5
BRANCH   2  20
ATOM     20  C   UNL     1       2.733   7.434  18.886  0.00  0.00    +0.000 C 
ATOM     21  C   UNL     1       2.218   7.281  20.320  0.00  0.00    +0.000 C 
ATOM     22  C   UNL     1       0.844   7.888  20.573  0.00  0.00    +0.000 C 
ATOM     23  N   UNL     1       0.820   9.253  20.031  0.00  0.00    +0.000 N 
ATOM     24  C   UNL     1       0.971   9.298  18.577  0.00  0.00    +0.000 C 
ATOM     25  C   UNL     1       2.337   8.741  18.187  0.00  0.00    +0.000 C 
BRANCH  23  26
ATOM     26  C   UNL     1       0.051  10.216  20.686  0.00  0.00    +0.000 A 
ATOM     27  C   UNL     1      -0.077  10.201  22.081  0.00  0.00    +0.000 A 
ATOM     28  C   UNL     1      -0.767  11.218  22.730  0.00  0.00    +0.000 A 
ATOM     29  N   UNL     1      -1.346  12.256  22.098  0.00  0.00    +0.000 NA
ATOM     30  C   UNL     1      -1.226  12.266  20.758  0.00  0.00    +0.000 A 
ATOM     31  C   UNL     1      -0.558  11.290  20.027  0.00  0.00    +0.000 A 
ENDBRANCH  23  26
ENDBRANCH   2  20
TORSDOF 6
ENDMDL
