MODEL 1
REMARK VINA RESULT:      -6.6      0.000      0.000
REMARK  Name = 
REMARK  7 active torsions:
REMARK  status: ('A' for Active; 'I' for Inactive)
REMARK    1  A    between atoms: C_1  and  C_2
REMARK    2  A    between atoms: N_4  and  C_5
REMARK    3  A    between atoms: C_7  and  C_8
REMARK    4  A    between atoms: C_7  and  C_9
REMARK    5  A    between atoms: N_10  and  O_11
REMARK    6  A    between atoms: C_12  and  C_13
REMARK    7  A    between atoms: C_12  and  C_14
REMARK                            x       y       z     vdW  Elec       q    Type
REMARK                         _______ _______ _______ _____ _____    ______ ____
ROOT
ATOM      1  C   UNL     1       4.650   6.591  16.695  0.00  0.00    +0.000 C 
ATOM      2  C   UNL     1       5.295   6.010  15.433  0.00  0.00    +0.000 C 
ATOM      3  C   UNL     1       6.374   4.930  15.709  0.00  0.00    +0.000 C 
ATOM      4  C   UNL     1       5.720   3.549  15.934  0.00  0.00    +0.000 C 
ATOM      5  C   UNL     1       7.230   4.812  14.419  0.00  0.00    +0.000 C 
ATOM      6  N   UNL     1       7.313   5.340  16.768  0.00  0.00    +0.000 NA
ATOM      7  C   UNL     1       6.851   6.094  17.954  0.00  0.00    +0.000 C 
ATOM      8  C   UNL     1       8.081   6.888  18.461  0.00  0.00    +0.000 C 
ATOM      9  C   UNL     1       6.377   5.221  19.136  0.00  0.00    +0.000 C 
ATOM     10  C   UNL     1       5.773   7.138  17.582  0.00  0.00    +0.000 C 
ENDROOT
BRANCH   1  14
ATOM     11  C   UNL     1       2.023   4.783  18.749  0.00  0.00    +0.000 C 
ATOM     12  C   UNL     1       2.722   5.987  18.178  0.00  0.00    +0.000 C 
ATOM     13  O   UNL     1       2.406   7.127  18.456  0.00  0.00    +0.000 OA
ATOM     14  N   UNL     1       3.762   5.636  17.343  0.00  0.00    +0.000 N 
ATOM     15  H   UNL     1       3.753   4.689  16.993  0.00  0.00    +0.000 HD
ENDBRANCH   1  14
BRANCH   6  16
ATOM     16  O   UNL     1       8.084   4.189  17.204  0.00  0.00    +0.000 OA
ATOM     17  H   UNL     1       7.862   3.518  16.533  0.00  0.00    +0.000 HD
ENDBRANCH   6  16
TORSDOF 2
ENDMDL
MODEL 2
REMARK VINA RESULT:      -6.1      2.037      5.014
REMARK  Name = 
REMARK  7 active torsions:
REMARK  status: ('A' for Active; 'I' for Inactive)
REMARK    1  A    between atoms: C_1  and  C_2
REMARK    2  A    between atoms: N_4  and  C_5
REMARK    3  A    between atoms: C_7  and  C_8
REMARK    4  A    between atoms: C_7  and  C_9
REMARK    5  A    between atoms: N_10  and  O_11
REMARK    6  A    between atoms: C_12  and  C_13
REMARK    7  A    between atoms: C_12  and  C_14
REMARK                            x       y       z     vdW  Elec       q    Type
REMARK                         _______ _______ _______ _____ _____    ______ ____
ROOT
ATOM      1  C   UNL     1       5.134   4.021  19.131  0.00  0.00    +0.000 C 
ATOM      2  C   UNL     1       4.116   2.882  19.248  0.00  0.00    +0.000 C 
ATOM      3  C   UNL     1       2.785   3.138  18.494  0.00  0.00    +0.000 C 
ATOM      4  C   UNL     1       2.925   2.775  17.000  0.00  0.00    +0.000 C 
ATOM      5  C   UNL     1       1.736   2.163  19.093  0.00  0.00    +0.000 C 
ATOM      6  N   UNL     1       2.254   4.490  18.746  0.00  0.00    +0.000 NA
ATOM      7  C   UNL     1       3.153   5.658  18.862  0.00  0.00    +0.000 C 
ATOM      8  C   UNL     1       2.399   6.692  19.736  0.00  0.00    +0.000 C 
ATOM      9  C   UNL     1       3.476   6.366  17.528  0.00  0.00    +0.000 C 
ATOM     10  C   UNL     1       4.455   5.305  19.619  0.00  0.00    +0.000 C 
ENDROOT
BRANCH   1  14
ATOM     11  C   UNL     1       7.307   4.528  16.064  0.00  0.00    +0.000 C 
ATOM     12  C   UNL     1       7.014   4.481  17.539  0.00  0.00    +0.000 C 
ATOM     13  O   UNL     1       7.835   4.776  18.385  0.00  0.00    +0.000 OA
ATOM     14  N   UNL     1       5.714   4.099  17.798  0.00  0.00    +0.000 N 
ATOM     15  H   UNL     1       5.228   3.636  17.044  0.00  0.00    +0.000 HD
ENDBRANCH   1  14
BRANCH   6  16
ATOM     16  O   UNL     1       1.207   4.785  17.784  0.00  0.00    +0.000 OA
ATOM     17  H   UNL     1       0.396   4.698  18.318  0.00  0.00    +0.000 HD
ENDBRANCH   6  16
TORSDOF 2
ENDMDL
MODEL 3
REMARK VINA RESULT:      -6.1      2.023      3.937
REMARK  Name = 
REMARK  7 active torsions:
REMARK  status: ('A' for Active; 'I' for Inactive)
REMARK    1  A    between atoms: C_1  and  C_2
REMARK    2  A    between atoms: N_4  and  C_5
REMARK    3  A    between atoms: C_7  and  C_8
REMARK    4  A    between atoms: C_7  and  C_9
REMARK    5  A    between atoms: N_10  and  O_11
REMARK    6  A    between atoms: C_12  and  C_13
REMARK    7  A    between atoms: C_12  and  C_14
REMARK                            x       y       z     vdW  Elec       q    Type
REMARK                         _______ _______ _______ _____ _____    ______ ____
ROOT
ATOM      1  C   UNL     1       5.442   6.422  16.104  0.00  0.00    +0.000 C 
ATOM      2  C   UNL     1       6.733   6.622  16.906  0.00  0.00    +0.000 C 
ATOM      3  C   UNL     1       6.927   5.606  18.063  0.00  0.00    +0.000 C 
ATOM      4  C   UNL     1       7.532   4.287  17.536  0.00  0.00    +0.000 C 
ATOM      5  C   UNL     1       7.974   6.222  19.028  0.00  0.00    +0.000 C 
ATOM      6  N   UNL     1       5.702   5.438  18.866  0.00  0.00    +0.000 NA
ATOM      7  C   UNL     1       4.365   5.434  18.235  0.00  0.00    +0.000 C 
ATOM      8  C   UNL     1       3.374   5.895  19.333  0.00  0.00    +0.000 C 
ATOM      9  C   UNL     1       3.875   4.049  17.758  0.00  0.00    +0.000 C 
ATOM     10  C   UNL     1       4.270   6.469  17.090  0.00  0.00    +0.000 C 
ENDROOT
BRANCH   1  14
ATOM     11  C   UNL     1       6.291   3.666  13.642  0.00  0.00    +0.000 C 
ATOM     12  C   UNL     1       6.544   4.926  14.424  0.00  0.00    +0.000 C 
ATOM     13  O   UNL     1       7.550   5.595  14.289  0.00  0.00    +0.000 OA
ATOM     14  N   UNL     1       5.498   5.231  15.269  0.00  0.00    +0.000 N 
ATOM     15  H   UNL     1       4.861   4.478  15.479  0.00  0.00    +0.000 HD
ENDBRANCH   1  14
BRANCH   6  16
ATOM     16  O   UNL     1       5.836   4.265  19.712  0.00  0.00    +0.000 OA
ATOM     17  H   UNL     1       6.155   4.643  20.552  0.00  0.00    +0.000 HD
ENDBRANCH   6  16
TORSDOF 2
ENDMDL
MODEL 4
REMARK VINA RESULT:      -5.8      2.463      3.708
REMARK  Name = 
REMARK  7 active torsions:
REMARK  status: ('A' for Active; 'I' for Inactive)
REMARK    1  A    between atoms: C_1  and  C_2
REMARK    2  A    between atoms: N_4  and  C_5
REMARK    3  A    between atoms: C_7  and  C_8
REMARK    4  A    between atoms: C_7  and  C_9
REMARK    5  A    between atoms: N_10  and  O_11
REMARK    6  A    between atoms: C_12  and  C_13
REMARK    7  A    between atoms: C_12  and  C_14
REMARK                            x       y       z     vdW  Elec       q    Type
REMARK                         _______ _______ _______ _____ _____    ______ ____
ROOT
ATOM      1  C   UNL     1       5.250   4.600  19.634  0.00  0.00    +0.000 C 
ATOM      2  C   UNL     1       4.055   5.552  19.512  0.00  0.00    +0.000 C 
ATOM      3  C   UNL     1       3.808   6.081  18.075  0.00  0.00    +0.000 C 
ATOM      4  C   UNL     1       2.998   5.059  17.249  0.00  0.00    +0.000 C 
ATOM      5  C   UNL     1       2.920   7.347  18.211  0.00  0.00    +0.000 C 
ATOM      6  N   UNL     1       5.051   6.540  17.430  0.00  0.00    +0.000 NA
ATOM      7  C   UNL     1       6.330   5.825  17.632  0.00  0.00    +0.000 C 
ATOM      8  C   UNL     1       7.446   6.874  17.401  0.00  0.00    +0.000 C 
ATOM      9  C   UNL     1       6.598   4.676  16.635  0.00  0.00    +0.000 C 
ATOM     10  C   UNL     1       6.483   5.328  19.088  0.00  0.00    +0.000 C 
ENDROOT
BRANCH   1  14
ATOM     11  C   UNL     1       4.071   1.111  18.731  0.00  0.00    +0.000 C 
ATOM     12  C   UNL     1       4.090   2.382  19.537  0.00  0.00    +0.000 C 
ATOM     13  O   UNL     1       3.412   2.542  20.532  0.00  0.00    +0.000 OA
ATOM     14  N   UNL     1       4.980   3.305  19.028  0.00  0.00    +0.000 N 
ATOM     15  H   UNL     1       5.275   3.160  18.074  0.00  0.00    +0.000 HD
ENDBRANCH   1  14
BRANCH   6  16
ATOM     16  O   UNL     1       4.821   6.716  16.006  0.00  0.00    +0.000 OA
ATOM     17  H   UNL     1       5.594   7.239  15.728  0.00  0.00    +0.000 HD
ENDBRANCH   6  16
TORSDOF 2
ENDMDL
MODEL 5
REMARK VINA RESULT:      -5.8      2.355      3.689
REMARK  Name = 
REMARK  7 active torsions:
REMARK  status: ('A' for Active; 'I' for Inactive)
REMARK    1  A    between atoms: C_1  and  C_2
REMARK    2  A    between atoms: N_4  and  C_5
REMARK    3  A    between atoms: C_7  and  C_8
REMARK    4  A    between atoms: C_7  and  C_9
REMARK    5  A    between atoms: N_10  and  O_11
REMARK    6  A    between atoms: C_12  and  C_13
REMARK    7  A    between atoms: C_12  and  C_14
REMARK                            x       y       z     vdW  Elec       q    Type
REMARK                         _______ _______ _______ _____ _____    ______ ____
ROOT
ATOM      1  C   UNL     1       2.499   5.390  17.842  0.00  0.00    +0.000 C 
ATOM      2  C   UNL     1       2.107   3.911  17.930  0.00  0.00    +0.000 C 
ATOM      3  C   UNL     1       3.060   3.051  18.800  0.00  0.00    +0.000 C 
ATOM      4  C   UNL     1       2.695   3.172  20.295  0.00  0.00    +0.000 C 
ATOM      5  C   UNL     1       2.816   1.571  18.402  0.00  0.00    +0.000 C 
ATOM      6  N   UNL     1       4.478   3.312  18.495  0.00  0.00    +0.000 NA
ATOM      7  C   UNL     1       4.959   4.676  18.186  0.00  0.00    +0.000 C 
ATOM      8  C   UNL     1       6.228   4.494  17.317  0.00  0.00    +0.000 C 
ATOM      9  C   UNL     1       5.386   5.510  19.414  0.00  0.00    +0.000 C 
ATOM     10  C   UNL     1       3.940   5.458  17.325  0.00  0.00    +0.000 C 
ENDROOT
BRANCH   1  14
ATOM     11  C   UNL     1       1.903   7.904  20.618  0.00  0.00    +0.000 C 
ATOM     12  C   UNL     1       2.062   7.456  19.190  0.00  0.00    +0.000 C 
ATOM     13  O   UNL     1       2.045   8.227  18.251  0.00  0.00    +0.000 OA
ATOM     14  N   UNL     1       2.258   6.094  19.093  0.00  0.00    +0.000 N 
ATOM     15  H   UNL     1       1.993   5.547  19.898  0.00  0.00    +0.000 HD
ENDBRANCH   1  14
BRANCH   6  16
ATOM     16  O   UNL     1       5.311   2.736  19.537  0.00  0.00    +0.000 OA
ATOM     17  H   UNL     1       5.960   3.443  19.707  0.00  0.00    +0.000 HD
ENDBRANCH   6  16
TORSDOF 2
ENDMDL
MODEL 6
REMARK VINA RESULT:      -5.7      2.053      2.496
REMARK  Name = 
REMARK  7 active torsions:
REMARK  status: ('A' for Active; 'I' for Inactive)
REMARK    1  A    between atoms: C_1  and  C_2
REMARK    2  A    between atoms: N_4  and  C_5
REMARK    3  A    between atoms: C_7  and  C_8
REMARK    4  A    between atoms: C_7  and  C_9
REMARK    5  A    between atoms: N_10  and  O_11
REMARK    6  A    between atoms: C_12  and  C_13
REMARK    7  A    between atoms: C_12  and  C_14
REMARK                            x       y       z     vdW  Elec       q    Type
REMARK                         _______ _______ _______ _____ _____    ______ ____
ROOT
ATOM      1  C   UNL     1       4.626   5.012  18.590  0.00  0.00    +0.000 C 
ATOM      2  C   UNL     1       4.168   5.742  17.323  0.00  0.00    +0.000 C 
ATOM      3  C   UNL     1       5.242   5.811  16.206  0.00  0.00    +0.000 C 
ATOM      4  C   UNL     1       5.252   4.509  15.376  0.00  0.00    +0.000 C 
ATOM      5  C   UNL     1       4.812   6.949  15.241  0.00  0.00    +0.000 C 
ATOM      6  N   UNL     1       6.561   6.213  16.726  0.00  0.00    +0.000 NA
ATOM      7  C   UNL     1       7.044   5.742  18.042  0.00  0.00    +0.000 C 
ATOM      8  C   UNL     1       8.054   6.808  18.533  0.00  0.00    +0.000 C 
ATOM      9  C   UNL     1       7.806   4.398  18.012  0.00  0.00    +0.000 C 
ATOM     10  C   UNL     1       5.904   5.698  19.086  0.00  0.00    +0.000 C 
ENDROOT
BRANCH   1  14
ATOM     11  C   UNL     1       4.117   1.267  18.288  0.00  0.00    +0.000 C 
ATOM     12  C   UNL     1       3.685   2.692  18.495  0.00  0.00    +0.000 C 
ATOM     13  O   UNL     1       2.539   3.003  18.758  0.00  0.00    +0.000 OA
ATOM     14  N   UNL     1       4.738   3.576  18.382  0.00  0.00    +0.000 N 
ATOM     15  H   UNL     1       5.561   3.230  17.912  0.00  0.00    +0.000 HD
ENDBRANCH   1  14
BRANCH   6  16
ATOM     16  O   UNL     1       7.577   5.952  15.722  0.00  0.00    +0.000 OA
ATOM     17  H   UNL     1       7.049   5.675  14.951  0.00  0.00    +0.000 HD
ENDBRANCH   6  16
TORSDOF 2
ENDMDL
MODEL 7
REMARK VINA RESULT:      -5.7      1.360      3.171
REMARK  Name = 
REMARK  7 active torsions:
REMARK  status: ('A' for Active; 'I' for Inactive)
REMARK    1  A    between atoms: C_1  and  C_2
REMARK    2  A    between atoms: N_4  and  C_5
REMARK    3  A    between atoms: C_7  and  C_8
REMARK    4  A    between atoms: C_7  and  C_9
REMARK    5  A    between atoms: N_10  and  O_11
REMARK    6  A    between atoms: C_12  and  C_13
REMARK    7  A    between atoms: C_12  and  C_14
REMARK                            x       y       z     vdW  Elec       q    Type
REMARK                         _______ _______ _______ _____ _____    ______ ____
ROOT
ATOM      1  C   UNL     1       4.149   5.336  18.082  0.00  0.00    +0.000 C 
ATOM      2  C   UNL     1       5.447   5.519  18.875  0.00  0.00    +0.000 C 
ATOM      3  C   UNL     1       6.654   5.989  18.021  0.00  0.00    +0.000 C 
ATOM      4  C   UNL     1       6.627   7.520  17.833  0.00  0.00    +0.000 C 
ATOM      5  C   UNL     1       7.933   5.664  18.838  0.00  0.00    +0.000 C 
ATOM      6  N   UNL     1       6.781   5.222  16.769  0.00  0.00    +0.000 NA
ATOM      7  C   UNL     1       5.588   4.798  16.004  0.00  0.00    +0.000 C 
ATOM      8  C   UNL     1       6.017   3.541  15.206  0.00  0.00    +0.000 C 
ATOM      9  C   UNL     1       5.083   5.824  14.966  0.00  0.00    +0.000 C 
ATOM     10  C   UNL     1       4.437   4.357  16.938  0.00  0.00    +0.000 C 
ENDROOT
BRANCH   1  14
ATOM     11  C   UNL     1       2.239   8.594  17.741  0.00  0.00    +0.000 C 
ATOM     12  C   UNL     1       2.719   7.359  18.454  0.00  0.00    +0.000 C 
ATOM     13  O   UNL     1       2.359   7.063  19.576  0.00  0.00    +0.000 OA
ATOM     14  N   UNL     1       3.575   6.609  17.674  0.00  0.00    +0.000 N 
ATOM     15  H   UNL     1       3.992   7.084  16.888  0.00  0.00    +0.000 HD
ENDBRANCH   1  14
BRANCH   6  16
ATOM     16  O   UNL     1       7.705   5.900  15.878  0.00  0.00    +0.000 OA
ATOM     17  H   UNL     1       7.238   6.733  15.680  0.00  0.00    +0.000 HD
ENDBRANCH   6  16
TORSDOF 2
ENDMDL
MODEL 8
REMARK VINA RESULT:      -5.7      2.362      3.825
REMARK  Name = 
REMARK  7 active torsions:
REMARK  status: ('A' for Active; 'I' for Inactive)
REMARK    1  A    between atoms: C_1  and  C_2
REMARK    2  A    between atoms: N_4  and  C_5
REMARK    3  A    between atoms: C_7  and  C_8
REMARK    4  A    between atoms: C_7  and  C_9
REMARK    5  A    between atoms: N_10  and  O_11
REMARK    6  A    between atoms: C_12  and  C_13
REMARK    7  A    between atoms: C_12  and  C_14
REMARK                            x       y       z     vdW  Elec       q    Type
REMARK                         _______ _______ _______ _____ _____    ______ ____
ROOT
ATOM      1  C   UNL     1       2.257   3.706  17.988  0.00  0.00    +0.000 C 
ATOM      2  C   UNL     1       3.401   3.568  16.978  0.00  0.00    +0.000 C 
ATOM      3  C   UNL     1       4.543   4.600  17.165  0.00  0.00    +0.000 C 
ATOM      4  C   UNL     1       5.532   4.129  18.254  0.00  0.00    +0.000 C 
ATOM      5  C   UNL     1       5.335   4.638  15.831  0.00  0.00    +0.000 C 
ATOM      6  N   UNL     1       4.030   5.968  17.357  0.00  0.00    +0.000 NA
ATOM      7  C   UNL     1       2.806   6.226  18.147  0.00  0.00    +0.000 C 
ATOM      8  C   UNL     1       2.225   7.557  17.610  0.00  0.00    +0.000 C 
ATOM      9  C   UNL     1       3.038   6.428  19.660  0.00  0.00    +0.000 C 
ATOM     10  C   UNL     1       1.730   5.142  17.901  0.00  0.00    +0.000 C 
ENDROOT
BRANCH   1  14
ATOM     11  C   UNL     1       2.465   2.622  21.616  0.00  0.00    +0.000 C 
ATOM     12  C   UNL     1       1.763   2.980  20.335  0.00  0.00    +0.000 C 
ATOM     13  O   UNL     1       0.553   3.025  20.236  0.00  0.00    +0.000 OA
ATOM     14  N   UNL     1       2.651   3.272  19.321  0.00  0.00    +0.000 N 
ATOM     15  H   UNL     1       3.598   2.948  19.450  0.00  0.00    +0.000 HD
ENDBRANCH   1  14
BRANCH   6  16
ATOM     16  O   UNL     1       5.100   6.822  17.842  0.00  0.00    +0.000 OA
ATOM     17  H   UNL     1       5.630   6.977  17.038  0.00  0.00    +0.000 HD
ENDBRANCH   6  16
TORSDOF 2
ENDMDL
MODEL 9
REMARK VINA RESULT:      -5.7      2.091      3.428
REMARK  Name = 
REMARK  7 active torsions:
REMARK  status: ('A' for Active; 'I' for Inactive)
REMARK    1  A    between atoms: C_1  and  C_2
REMARK    2  A    between atoms: N_4  and  C_5
REMARK    3  A    between atoms: C_7  and  C_8
REMARK    4  A    between atoms: C_7  and  C_9
REMARK    5  A    between atoms: N_10  and  O_11
REMARK    6  A    between atoms: C_12  and  C_13
REMARK    7  A    between atoms: C_12  and  C_14
REMARK                            x       y       z     vdW  Elec       q    Type
REMARK                         _______ _______ _______ _____ _____    ______ ____
ROOT
ATOM      1  C   UNL     1       4.179   5.645  19.434  0.00  0.00    +0.000 C 
ATOM      2  C   UNL     1       5.675   5.610  19.101  0.00  0.00    +0.000 C 
ATOM      3  C   UNL     1       6.009   4.925  17.750  0.00  0.00    +0.000 C 
ATOM      4  C   UNL     1       5.835   5.915  16.578  0.00  0.00    +0.000 C 
ATOM      5  C   UNL     1       7.516   4.553  17.798  0.00  0.00    +0.000 C 
ATOM      6  N   UNL     1       5.294   3.648  17.582  0.00  0.00    +0.000 NA
ATOM      7  C   UNL     1       3.901   3.481  18.050  0.00  0.00    +0.000 C 
ATOM      8  C   UNL     1       3.721   1.966  18.322  0.00  0.00    +0.000 C 
ATOM      9  C   UNL     1       2.817   3.872  17.022  0.00  0.00    +0.000 C 
ATOM     10  C   UNL     1       3.661   4.203  19.396  0.00  0.00    +0.000 C 
ENDROOT
BRANCH   1  14
ATOM     11  C   UNL     1       1.833   8.213  17.925  0.00  0.00    +0.000 C 
ATOM     12  C   UNL     1       2.434   7.397  19.038  0.00  0.00    +0.000 C 
ATOM     13  O   UNL     1       2.032   7.447  20.183  0.00  0.00    +0.000 OA
ATOM     14  N   UNL     1       3.454   6.584  18.591  0.00  0.00    +0.000 N 
ATOM     15  H   UNL     1       3.858   6.825  17.699  0.00  0.00    +0.000 HD
ENDBRANCH   1  14
BRANCH   6  16
ATOM     16  O   UNL     1       5.388   3.220  16.197  0.00  0.00    +0.000 OA
ATOM     17  H   UNL     1       5.657   2.287  16.280  0.00  0.00    +0.000 HD
ENDBRANCH   6  16
TORSDOF 2
ENDMDL
