MODEL 1
REMARK VINA RESULT:      -8.5      0.000      0.000
REMARK  Name = 
REMARK  10 active torsions:
REMARK  status: ('A' for Active; 'I' for Inactive)
REMARK    1  A    between atoms: C_1  and  O_2
REMARK    2  A    between atoms: O_2  and  C_3
REMARK    3  A    between atoms: C_7  and  C_8
REMARK    4  A    between atoms: C_9  and  C_10
REMARK    5  A    between atoms: C_9  and  C_11
REMARK    6  A    between atoms: C_11  and  C_13
REMARK    7  A    between atoms: C_15  and  O_16
REMARK    8  A    between atoms: O_16  and  C_17
REMARK    9  A    between atoms: C_19  and  O_20
REMARK   10  A    between atoms: O_20  and  C_21
REMARK                            x       y       z     vdW  Elec       q    Type
REMARK                         _______ _______ _______ _____ _____    ______ ____
ROOT
ATOM      1  C   UNL     1       3.511   5.460  18.783  0.00  0.00    +0.000 C 
ATOM      2  C   UNL     1       3.064   4.487  17.956  0.00  0.00    +0.000 C 
ATOM      3  C   UNL     1       1.605   4.336  17.624  0.00  0.00    +0.000 C 
ENDROOT
BRANCH   1   8
ATOM      4  C   UNL     1       1.073  10.244  18.861  0.00  0.00    +0.000 A 
ATOM      5  C   UNL     1       1.835   9.735  17.812  0.00  0.00    +0.000 A 
ATOM      6  C   UNL     1       2.412   8.456  17.897  0.00  0.00    +0.000 A 
ATOM      7  C   UNL     1       2.228   7.675  19.056  0.00  0.00    +0.000 A 
ATOM      8  C   UNL     1       2.661   6.383  19.479  0.00  0.00    +0.000 A 
ATOM      9  C   UNL     1       2.143   6.166  20.739  0.00  0.00    +0.000 A 
ATOM     10  N   UNL     1       1.445   7.287  21.107  0.00  0.00    +0.000 N 
ATOM     11  C   UNL     1       1.478   8.224  20.100  0.00  0.00    +0.000 A 
ATOM     12  C   UNL     1       0.905   9.504  20.037  0.00  0.00    +0.000 A 
ATOM     13  H   UNL     1       0.975   7.416  21.994  0.00  0.00    +0.000 HD
BRANCH   4  15
ATOM     14  C   UNL     1      -0.906  11.478  18.500  0.00  0.00    +0.000 C 
ATOM     15  O   UNL     1       0.474  11.480  18.855  0.00  0.00    +0.000 OA
ENDBRANCH   4  15
ENDBRANCH   1   8
BRANCH   2  16
ATOM     16  C   UNL     1       4.079   3.584  17.283  0.00  0.00    +0.000 C 
ATOM     17  O   UNL     1       3.957   2.361  17.285  0.00  0.00    +0.000 OA
BRANCH  16  18
ATOM     18  C   UNL     1       5.291   4.198  16.657  0.00  0.00    +0.000 A 
ATOM     19  C   UNL     1       6.092   5.084  17.386  0.00  0.00    +0.000 A 
ATOM     20  C   UNL     1       7.106   5.745  16.709  0.00  0.00    +0.000 A 
ATOM     21  N   UNL     1       7.370   5.557  15.403  0.00  0.00    +0.000 NA
ATOM     22  C   UNL     1       6.627   4.657  14.742  0.00  0.00    +0.000 A 
ATOM     23  C   UNL     1       5.609   3.932  15.326  0.00  0.00    +0.000 A 
BRANCH  20  24
ATOM     24  O   UNL     1       7.858   6.676  17.397  0.00  0.00    +0.000 OA
ATOM     25  C   UNL     1       7.935   6.381  18.797  0.00  0.00    +0.000 C 
ENDBRANCH  20  24
BRANCH  22  26
ATOM     26  O   UNL     1       6.833   4.474  13.391  0.00  0.00    +0.000 OA
ATOM     27  C   UNL     1       5.958   3.491  12.836  0.00  0.00    +0.000 C 
ENDBRANCH  22  26
ENDBRANCH  16  18
ENDBRANCH   2  16
TORSDOF 6
ENDMDL
MODEL 2
REMARK VINA RESULT:      -8.5      0.866      2.564
REMARK  Name = 
REMARK  10 active torsions:
REMARK  status: ('A' for Active; 'I' for Inactive)
REMARK    1  A    between atoms: C_1  and  O_2
REMARK    2  A    between atoms: O_2  and  C_3
REMARK    3  A    between atoms: C_7  and  C_8
REMARK    4  A    between atoms: C_9  and  C_10
REMARK    5  A    between atoms: C_9  and  C_11
REMARK    6  A    between atoms: C_11  and  C_13
REMARK    7  A    between atoms: C_15  and  O_16
REMARK    8  A    between atoms: O_16  and  C_17
REMARK    9  A    between atoms: C_19  and  O_20
REMARK   10  A    between atoms: O_20  and  C_21
REMARK                            x       y       z     vdW  Elec       q    Type
REMARK                         _______ _______ _______ _____ _____    ______ ____
ROOT
ATOM      1  C   UNL     1       3.270   5.477  18.970  0.00  0.00    +0.000 C 
ATOM      2  C   UNL     1       2.790   4.527  18.135  0.00  0.00    +0.000 C 
ATOM      3  C   UNL     1       1.340   4.474  17.743  0.00  0.00    +0.000 C 
ENDROOT
BRANCH   1   8
ATOM      4  C   UNL     1       1.126  10.399  18.863  0.00  0.00    +0.000 A 
ATOM      5  C   UNL     1       1.883   9.818  17.849  0.00  0.00    +0.000 A 
ATOM      6  C   UNL     1       2.379   8.509  17.981  0.00  0.00    +0.000 A 
ATOM      7  C   UNL     1       2.117   7.771  19.154  0.00  0.00    +0.000 A 
ATOM      8  C   UNL     1       2.460   6.467  19.619  0.00  0.00    +0.000 A 
ATOM      9  C   UNL     1       1.896   6.314  20.869  0.00  0.00    +0.000 A 
ATOM     10  N   UNL     1       1.258   7.485  21.191  0.00  0.00    +0.000 N 
ATOM     11  C   UNL     1       1.374   8.391  20.161  0.00  0.00    +0.000 A 
ATOM     12  C   UNL     1       0.882   9.701  20.052  0.00  0.00    +0.000 A 
ATOM     13  H   UNL     1       0.773   7.664  22.061  0.00  0.00    +0.000 HD
BRANCH   4  15
ATOM     14  C   UNL     1       0.760  12.433  20.003  0.00  0.00    +0.000 C 
ATOM     15  O   UNL     1       0.604  11.667  18.811  0.00  0.00    +0.000 OA
ENDBRANCH   4  15
ENDBRANCH   1   8
BRANCH   2  16
ATOM     16  C   UNL     1       3.765   3.545  17.516  0.00  0.00    +0.000 C 
ATOM     17  O   UNL     1       3.508   2.346  17.429  0.00  0.00    +0.000 OA
BRANCH  16  18
ATOM     18  C   UNL     1       5.100   4.042  17.058  0.00  0.00    +0.000 A 
ATOM     19  C   UNL     1       5.354   4.234  15.695  0.00  0.00    +0.000 A 
ATOM     20  C   UNL     1       6.653   4.540  15.317  0.00  0.00    +0.000 A 
ATOM     21  N   UNL     1       7.664   4.686  16.192  0.00  0.00    +0.000 NA
ATOM     22  C   UNL     1       7.381   4.558  17.496  0.00  0.00    +0.000 A 
ATOM     23  C   UNL     1       6.121   4.275  17.979  0.00  0.00    +0.000 A 
BRANCH  20  24
ATOM     24  O   UNL     1       6.935   4.660  13.971  0.00  0.00    +0.000 OA
ATOM     25  C   UNL     1       6.267   3.663  13.187  0.00  0.00    +0.000 C 
ENDBRANCH  20  24
BRANCH  22  26
ATOM     26  O   UNL     1       8.401   4.649  18.420  0.00  0.00    +0.000 OA
ATOM     27  C   UNL     1       8.120   5.600  19.447  0.00  0.00    +0.000 C 
ENDBRANCH  22  26
ENDBRANCH  16  18
ENDBRANCH   2  16
TORSDOF 6
ENDMDL
MODEL 3
REMARK VINA RESULT:      -8.3      0.552      2.425
REMARK  Name = 
REMARK  10 active torsions:
REMARK  status: ('A' for Active; 'I' for Inactive)
REMARK    1  A    between atoms: C_1  and  O_2
REMARK    2  A    between atoms: O_2  and  C_3
REMARK    3  A    between atoms: C_7  and  C_8
REMARK    4  A    between atoms: C_9  and  C_10
REMARK    5  A    between atoms: C_9  and  C_11
REMARK    6  A    between atoms: C_11  and  C_13
REMARK    7  A    between atoms: C_15  and  O_16
REMARK    8  A    between atoms: O_16  and  C_17
REMARK    9  A    between atoms: C_19  and  O_20
REMARK   10  A    between atoms: O_20  and  C_21
REMARK                            x       y       z     vdW  Elec       q    Type
REMARK                         _______ _______ _______ _____ _____    ______ ____
ROOT
ATOM      1  C   UNL     1       3.413   5.675  18.747  0.00  0.00    +0.000 C 
ATOM      2  C   UNL     1       2.960   4.683  17.946  0.00  0.00    +0.000 C 
ATOM      3  C   UNL     1       1.494   4.485  17.680  0.00  0.00    +0.000 C 
ENDROOT
BRANCH   1   8
ATOM      4  C   UNL     1       0.957  10.446  18.957  0.00  0.00    +0.000 A 
ATOM      5  C   UNL     1       1.710   9.963  17.889  0.00  0.00    +0.000 A 
ATOM      6  C   UNL     1       2.293   8.685  17.939  0.00  0.00    +0.000 A 
ATOM      7  C   UNL     1       2.124   7.877  19.083  0.00  0.00    +0.000 A 
ATOM      8  C   UNL     1       2.566   6.578  19.472  0.00  0.00    +0.000 A 
ATOM      9  C   UNL     1       2.063   6.331  20.732  0.00  0.00    +0.000 A 
ATOM     10  N   UNL     1       1.364   7.441  21.133  0.00  0.00    +0.000 N 
ATOM     11  C   UNL     1       1.382   8.400  20.146  0.00  0.00    +0.000 A 
ATOM     12  C   UNL     1       0.803   9.678  20.118  0.00  0.00    +0.000 A 
ATOM     13  H   UNL     1       0.903   7.547  22.027  0.00  0.00    +0.000 HD
BRANCH   4  15
ATOM     14  C   UNL     1      -0.984  11.705  18.492  0.00  0.00    +0.000 C 
ATOM     15  O   UNL     1       0.352  11.678  18.986  0.00  0.00    +0.000 OA
ENDBRANCH   4  15
ENDBRANCH   1   8
BRANCH   2  16
ATOM     16  C   UNL     1       3.972   3.804  17.237  0.00  0.00    +0.000 C 
ATOM     17  O   UNL     1       3.959   2.580  17.353  0.00  0.00    +0.000 OA
BRANCH  16  18
ATOM     18  C   UNL     1       5.050   4.451  16.427  0.00  0.00    +0.000 A 
ATOM     19  C   UNL     1       5.306   4.022  15.119  0.00  0.00    +0.000 A 
ATOM     20  C   UNL     1       6.417   4.544  14.474  0.00  0.00    +0.000 A 
ATOM     21  N   UNL     1       7.237   5.454  15.030  0.00  0.00    +0.000 NA
ATOM     22  C   UNL     1       6.935   5.893  16.261  0.00  0.00    +0.000 A 
ATOM     23  C   UNL     1       5.843   5.455  16.981  0.00  0.00    +0.000 A 
BRANCH  20  24
ATOM     24  O   UNL     1       6.724   4.078  13.212  0.00  0.00    +0.000 OA
ATOM     25  C   UNL     1       7.619   4.953  12.514  0.00  0.00    +0.000 C 
ENDBRANCH  20  24
BRANCH  22  26
ATOM     26  O   UNL     1       7.780   6.787  16.884  0.00  0.00    +0.000 OA
ATOM     27  C   UNL     1       7.724   6.685  18.308  0.00  0.00    +0.000 C 
ENDBRANCH  22  26
ENDBRANCH  16  18
ENDBRANCH   2  16
TORSDOF 6
ENDMDL
MODEL 4
REMARK VINA RESULT:      -8.0      4.022      6.042
REMARK  Name = 
REMARK  10 active torsions:
REMARK  status: ('A' for Active; 'I' for Inactive)
REMARK    1  A    between atoms: C_1  and  O_2
REMARK    2  A    between atoms: O_2  and  C_3
REMARK    3  A    between atoms: C_7  and  C_8
REMARK    4  A    between atoms: C_9  and  C_10
REMARK    5  A    between atoms: C_9  and  C_11
REMARK    6  A    between atoms: C_11  and  C_13
REMARK    7  A    between atoms: C_15  and  O_16
REMARK    8  A    between atoms: O_16  and  C_17
REMARK    9  A    between atoms: C_19  and  O_20
REMARK   10  A    between atoms: O_20  and  C_21
REMARK                            x       y       z     vdW  Elec       q    Type
REMARK                         _______ _______ _______ _____ _____    ______ ____
ROOT
ATOM      1  C   UNL     1       6.460   4.106  15.838  0.00  0.00    +0.000 C 
ATOM      2  C   UNL     1       6.181   4.970  14.835  0.00  0.00    +0.000 C 
ATOM      3  C   UNL     1       5.313   6.180  15.049  0.00  0.00    +0.000 C 
ENDROOT
BRANCH   1   8
ATOM      4  C   UNL     1       2.185   3.621  19.051  0.00  0.00    +0.000 A 
ATOM      5  C   UNL     1       2.216   3.334  17.689  0.00  0.00    +0.000 A 
ATOM      6  C   UNL     1       3.404   3.481  16.950  0.00  0.00    +0.000 A 
ATOM      7  C   UNL     1       4.579   3.931  17.586  0.00  0.00    +0.000 A 
ATOM      8  C   UNL     1       5.914   4.199  17.161  0.00  0.00    +0.000 A 
ATOM      9  C   UNL     1       6.623   4.620  18.267  0.00  0.00    +0.000 A 
ATOM     10  N   UNL     1       5.761   4.651  19.334  0.00  0.00    +0.000 N 
ATOM     11  C   UNL     1       4.507   4.233  18.949  0.00  0.00    +0.000 A 
ATOM     12  C   UNL     1       3.328   4.103  19.699  0.00  0.00    +0.000 A 
ATOM     13  H   UNL     1       6.005   4.942  20.272  0.00  0.00    +0.000 HD
BRANCH   4  15
ATOM     14  C   UNL     1       1.299   2.905  21.118  0.00  0.00    +0.000 C 
ATOM     15  O   UNL     1       1.070   3.501  19.843  0.00  0.00    +0.000 OA
ENDBRANCH   4  15
ENDBRANCH   1   8
BRANCH   2  16
ATOM     16  C   UNL     1       6.835   4.751  13.485  0.00  0.00    +0.000 C 
ATOM     17  O   UNL     1       7.835   5.378  13.143  0.00  0.00    +0.000 OA
BRANCH  16  18
ATOM     18  C   UNL     1       6.206   3.793  12.524  0.00  0.00    +0.000 A 
ATOM     19  C   UNL     1       4.910   4.020  12.045  0.00  0.00    +0.000 A 
ATOM     20  C   UNL     1       4.318   3.021  11.286  0.00  0.00    +0.000 A 
ATOM     21  N   UNL     1       4.934   1.868  10.969  0.00  0.00    +0.000 NA
ATOM     22  C   UNL     1       6.197   1.702  11.388  0.00  0.00    +0.000 A 
ATOM     23  C   UNL     1       6.884   2.640  12.131  0.00  0.00    +0.000 A 
BRANCH  20  24
ATOM     24  O   UNL     1       3.015   3.198  10.868  0.00  0.00    +0.000 OA
ATOM     25  C   UNL     1       2.924   4.071   9.735  0.00  0.00    +0.000 C 
ENDBRANCH  20  24
BRANCH  22  26
ATOM     26  O   UNL     1       6.844   0.513  11.128  0.00  0.00    +0.000 OA
ATOM     27  C   UNL     1       6.000  -0.621  11.329  0.00  0.00    +0.000 C 
ENDBRANCH  22  26
ENDBRANCH  16  18
ENDBRANCH   2  16
TORSDOF 6
ENDMDL
MODEL 5
REMARK VINA RESULT:      -7.9      1.707      2.277
REMARK  Name = 
REMARK  10 active torsions:
REMARK  status: ('A' for Active; 'I' for Inactive)
REMARK    1  A    between atoms: C_1  and  O_2
REMARK    2  A    between atoms: O_2  and  C_3
REMARK    3  A    between atoms: C_7  and  C_8
REMARK    4  A    between atoms: C_9  and  C_10
REMARK    5  A    between atoms: C_9  and  C_11
REMARK    6  A    between atoms: C_11  and  C_13
REMARK    7  A    between atoms: C_15  and  O_16
REMARK    8  A    between atoms: O_16  and  C_17
REMARK    9  A    between atoms: C_19  and  O_20
REMARK   10  A    between atoms: O_20  and  C_21
REMARK                            x       y       z     vdW  Elec       q    Type
REMARK                         _______ _______ _______ _____ _____    ______ ____
ROOT
ATOM      1  C   UNL     1       3.251   6.967  18.603  0.00  0.00    +0.000 C 
ATOM      2  C   UNL     1       2.936   5.687  18.299  0.00  0.00    +0.000 C 
ATOM      3  C   UNL     1       1.544   5.287  17.893  0.00  0.00    +0.000 C 
ENDROOT
BRANCH   1   8
ATOM      4  C   UNL     1      -0.189   9.899  21.503  0.00  0.00    +0.000 A 
ATOM      5  C   UNL     1       0.626   8.880  21.991  0.00  0.00    +0.000 A 
ATOM      6  C   UNL     1       1.505   8.191  21.137  0.00  0.00    +0.000 A 
ATOM      7  C   UNL     1       1.565   8.524  19.768  0.00  0.00    +0.000 A 
ATOM      8  C   UNL     1       2.305   8.044  18.647  0.00  0.00    +0.000 A 
ATOM      9  C   UNL     1       1.921   8.787  17.550  0.00  0.00    +0.000 A 
ATOM     10  N   UNL     1       0.954   9.671  17.957  0.00  0.00    +0.000 N 
ATOM     11  C   UNL     1       0.718   9.535  19.306  0.00  0.00    +0.000 A 
ATOM     12  C   UNL     1      -0.174  10.225  20.141  0.00  0.00    +0.000 A 
ATOM     13  H   UNL     1       0.476  10.330  17.355  0.00  0.00    +0.000 HD
BRANCH   4  15
ATOM     14  C   UNL     1      -0.777  12.012  22.371  0.00  0.00    +0.000 C 
ATOM     15  O   UNL     1      -1.070  10.621  22.268  0.00  0.00    +0.000 OA
ENDBRANCH   4  15
ENDBRANCH   1   8
BRANCH   2  16
ATOM     16  C   UNL     1       4.042   4.650  18.287  0.00  0.00    +0.000 C 
ATOM     17  O   UNL     1       4.055   3.710  19.079  0.00  0.00    +0.000 OA
BRANCH  16  18
ATOM     18  C   UNL     1       5.177   4.814  17.327  0.00  0.00    +0.000 A 
ATOM     19  C   UNL     1       6.082   5.872  17.475  0.00  0.00    +0.000 A 
ATOM     20  C   UNL     1       7.016   6.069  16.469  0.00  0.00    +0.000 A 
ATOM     21  N   UNL     1       7.109   5.284  15.381  0.00  0.00    +0.000 NA
ATOM     22  C   UNL     1       6.270   4.242  15.292  0.00  0.00    +0.000 A 
ATOM     23  C   UNL     1       5.319   3.944  16.246  0.00  0.00    +0.000 A 
BRANCH  20  24
ATOM     24  O   UNL     1       7.867   7.151  16.565  0.00  0.00    +0.000 OA
ATOM     25  C   UNL     1       7.797   7.782  17.850  0.00  0.00    +0.000 C 
ENDBRANCH  20  24
BRANCH  22  26
ATOM     26  O   UNL     1       6.300   3.445  14.167  0.00  0.00    +0.000 OA
ATOM     27  C   UNL     1       6.646   4.177  12.991  0.00  0.00    +0.000 C 
ENDBRANCH  22  26
ENDBRANCH  16  18
ENDBRANCH   2  16
TORSDOF 6
ENDMDL
MODEL 6
REMARK VINA RESULT:      -7.9      1.664      2.285
REMARK  Name = 
REMARK  10 active torsions:
REMARK  status: ('A' for Active; 'I' for Inactive)
REMARK    1  A    between atoms: C_1  and  O_2
REMARK    2  A    between atoms: O_2  and  C_3
REMARK    3  A    between atoms: C_7  and  C_8
REMARK    4  A    between atoms: C_9  and  C_10
REMARK    5  A    between atoms: C_9  and  C_11
REMARK    6  A    between atoms: C_11  and  C_13
REMARK    7  A    between atoms: C_15  and  O_16
REMARK    8  A    between atoms: O_16  and  C_17
REMARK    9  A    between atoms: C_19  and  O_20
REMARK   10  A    between atoms: O_20  and  C_21
REMARK                            x       y       z     vdW  Elec       q    Type
REMARK                         _______ _______ _______ _____ _____    ______ ____
ROOT
ATOM      1  C   UNL     1       3.276   6.517  18.518  0.00  0.00    +0.000 C 
ATOM      2  C   UNL     1       2.734   5.298  18.294  0.00  0.00    +0.000 C 
ATOM      3  C   UNL     1       1.285   5.129  17.929  0.00  0.00    +0.000 C 
ENDROOT
BRANCH   1   8
ATOM      4  C   UNL     1       0.029   9.901  21.133  0.00  0.00    +0.000 A 
ATOM      5  C   UNL     1       0.577   8.732  21.654  0.00  0.00    +0.000 A 
ATOM      6  C   UNL     1       1.433   7.930  20.878  0.00  0.00    +0.000 A 
ATOM      7  C   UNL     1       1.741   8.305  19.554  0.00  0.00    +0.000 A 
ATOM      8  C   UNL     1       2.536   7.745  18.509  0.00  0.00    +0.000 A 
ATOM      9  C   UNL     1       2.444   8.591  17.424  0.00  0.00    +0.000 A 
ATOM     10  N   UNL     1       1.599   9.618  17.759  0.00  0.00    +0.000 N 
ATOM     11  C   UNL     1       1.157   9.471  19.053  0.00  0.00    +0.000 A 
ATOM     12  C   UNL     1       0.290  10.276  19.809  0.00  0.00    +0.000 A 
ATOM     13  H   UNL     1       1.332  10.377  17.145  0.00  0.00    +0.000 HD
BRANCH   4  15
ATOM     14  C   UNL     1      -0.952  10.441  23.210  0.00  0.00    +0.000 C 
ATOM     15  O   UNL     1      -0.811  10.739  21.823  0.00  0.00    +0.000 OA
ENDBRANCH   4  15
ENDBRANCH   1   8
BRANCH   2  16
ATOM     16  C   UNL     1       3.640   4.083  18.330  0.00  0.00    +0.000 C 
ATOM     17  O   UNL     1       3.334   3.067  18.951  0.00  0.00    +0.000 OA
BRANCH  16  18
ATOM     18  C   UNL     1       4.967   4.149  17.643  0.00  0.00    +0.000 A 
ATOM     19  C   UNL     1       6.115   4.514  18.357  0.00  0.00    +0.000 A 
ATOM     20  C   UNL     1       7.285   4.715  17.638  0.00  0.00    +0.000 A 
ATOM     21  N   UNL     1       7.374   4.552  16.306  0.00  0.00    +0.000 NA
ATOM     22  C   UNL     1       6.275   4.143  15.655  0.00  0.00    +0.000 A 
ATOM     23  C   UNL     1       5.068   3.895  16.276  0.00  0.00    +0.000 A 
BRANCH  20  24
ATOM     24  O   UNL     1       8.407   5.145  18.317  0.00  0.00    +0.000 OA
ATOM     25  C   UNL     1       8.073   5.884  19.500  0.00  0.00    +0.000 C 
ENDBRANCH  20  24
BRANCH  22  26
ATOM     26  O   UNL     1       6.312   4.014  14.283  0.00  0.00    +0.000 OA
ATOM     27  C   UNL     1       7.323   4.827  13.688  0.00  0.00    +0.000 C 
ENDBRANCH  22  26
ENDBRANCH  16  18
ENDBRANCH   2  16
TORSDOF 6
ENDMDL
MODEL 7
REMARK VINA RESULT:      -7.9      1.779      3.359
REMARK  Name = 
REMARK  10 active torsions:
REMARK  status: ('A' for Active; 'I' for Inactive)
REMARK    1  A    between atoms: C_1  and  O_2
REMARK    2  A    between atoms: O_2  and  C_3
REMARK    3  A    between atoms: C_7  and  C_8
REMARK    4  A    between atoms: C_9  and  C_10
REMARK    5  A    between atoms: C_9  and  C_11
REMARK    6  A    between atoms: C_11  and  C_13
REMARK    7  A    between atoms: C_15  and  O_16
REMARK    8  A    between atoms: O_16  and  C_17
REMARK    9  A    between atoms: C_19  and  O_20
REMARK   10  A    between atoms: O_20  and  C_21
REMARK                            x       y       z     vdW  Elec       q    Type
REMARK                         _______ _______ _______ _____ _____    ______ ____
ROOT
ATOM      1  C   UNL     1       3.074   6.738  18.669  0.00  0.00    +0.000 C 
ATOM      2  C   UNL     1       2.625   5.518  18.293  0.00  0.00    +0.000 C 
ATOM      3  C   UNL     1       1.255   5.323  17.705  0.00  0.00    +0.000 C 
ENDROOT
BRANCH   1   8
ATOM      4  C   UNL     1      -0.215  10.139  21.210  0.00  0.00    +0.000 A 
ATOM      5  C   UNL     1       0.390   9.017  21.772  0.00  0.00    +0.000 A 
ATOM      6  C   UNL     1       1.252   8.207  21.011  0.00  0.00    +0.000 A 
ATOM      7  C   UNL     1       1.506   8.523  19.661  0.00  0.00    +0.000 A 
ATOM      8  C   UNL     1       2.289   7.938  18.621  0.00  0.00    +0.000 A 
ATOM      9  C   UNL     1       2.134   8.723  17.497  0.00  0.00    +0.000 A 
ATOM     10  N   UNL     1       1.263   9.736  17.806  0.00  0.00    +0.000 N 
ATOM     11  C   UNL     1       0.865   9.641  19.120  0.00  0.00    +0.000 A 
ATOM     12  C   UNL     1      -0.007  10.453  19.862  0.00  0.00    +0.000 A 
ATOM     13  H   UNL     1       0.950  10.452  17.163  0.00  0.00    +0.000 HD
BRANCH   4  15
ATOM     14  C   UNL     1      -1.229  10.689  23.268  0.00  0.00    +0.000 C 
ATOM     15  O   UNL     1      -1.064  10.981  21.884  0.00  0.00    +0.000 OA
ENDBRANCH   4  15
ENDBRANCH   1   8
BRANCH   2  16
ATOM     16  C   UNL     1       3.569   4.336  18.393  0.00  0.00    +0.000 C 
ATOM     17  O   UNL     1       3.284   3.336  19.050  0.00  0.00    +0.000 OA
BRANCH  16  18
ATOM     18  C   UNL     1       4.905   4.418  17.726  0.00  0.00    +0.000 A 
ATOM     19  C   UNL     1       5.027   4.169  16.354  0.00  0.00    +0.000 A 
ATOM     20  C   UNL     1       6.306   4.101  15.822  0.00  0.00    +0.000 A 
ATOM     21  N   UNL     1       7.422   4.286  16.549  0.00  0.00    +0.000 NA
ATOM     22  C   UNL     1       7.276   4.583  17.849  0.00  0.00    +0.000 A 
ATOM     23  C   UNL     1       6.050   4.695  18.472  0.00  0.00    +0.000 A 
BRANCH  20  24
ATOM     24  O   UNL     1       6.446   3.785  14.486  0.00  0.00    +0.000 OA
ATOM     25  C   UNL     1       7.119   4.816  13.753  0.00  0.00    +0.000 C 
ENDBRANCH  20  24
BRANCH  22  26
ATOM     26  O   UNL     1       8.396   4.729  18.638  0.00  0.00    +0.000 OA
ATOM     27  C   UNL     1       8.181   5.626  19.728  0.00  0.00    +0.000 C 
ENDBRANCH  22  26
ENDBRANCH  16  18
ENDBRANCH   2  16
TORSDOF 6
ENDMDL
MODEL 8
REMARK VINA RESULT:      -7.8      1.168      1.235
REMARK  Name = 
REMARK  10 active torsions:
REMARK  status: ('A' for Active; 'I' for Inactive)
REMARK    1  A    between atoms: C_1  and  O_2
REMARK    2  A    between atoms: O_2  and  C_3
REMARK    3  A    between atoms: C_7  and  C_8
REMARK    4  A    between atoms: C_9  and  C_10
REMARK    5  A    between atoms: C_9  and  C_11
REMARK    6  A    between atoms: C_11  and  C_13
REMARK    7  A    between atoms: C_15  and  O_16
REMARK    8  A    between atoms: O_16  and  C_17
REMARK    9  A    between atoms: C_19  and  O_20
REMARK   10  A    between atoms: O_20  and  C_21
REMARK                            x       y       z     vdW  Elec       q    Type
REMARK                         _______ _______ _______ _____ _____    ______ ____
ROOT
ATOM      1  C   UNL     1       2.678   6.175  18.345  0.00  0.00    +0.000 C 
ATOM      2  C   UNL     1       2.597   4.827  18.425  0.00  0.00    +0.000 C 
ATOM      3  C   UNL     1       1.846   4.142  19.534  0.00  0.00    +0.000 C 
ENDROOT
BRANCH   1   8
ATOM      4  C   UNL     1       0.513  10.971  19.416  0.00  0.00    +0.000 A 
ATOM      5  C   UNL     1       0.857  10.496  18.152  0.00  0.00    +0.000 A 
ATOM      6  C   UNL     1       1.402   9.210  17.991  0.00  0.00    +0.000 A 
ATOM      7  C   UNL     1       1.613   8.387  19.117  0.00  0.00    +0.000 A 
ATOM      8  C   UNL     1       2.139   7.077  19.321  0.00  0.00    +0.000 A 
ATOM      9  C   UNL     1       2.082   6.816  20.674  0.00  0.00    +0.000 A 
ATOM     10  N   UNL     1       1.577   7.928  21.298  0.00  0.00    +0.000 N 
ATOM     11  C   UNL     1       1.278   8.902  20.372  0.00  0.00    +0.000 A 
ATOM     12  C   UNL     1       0.745  10.188  20.553  0.00  0.00    +0.000 A 
ATOM     13  H   UNL     1       1.443   8.027  22.296  0.00  0.00    +0.000 HD
BRANCH   4  15
ATOM     14  C   UNL     1       0.545  13.274  18.902  0.00  0.00    +0.000 C 
ATOM     15  O   UNL     1      -0.027  12.210  19.658  0.00  0.00    +0.000 OA
ENDBRANCH   4  15
ENDBRANCH   1   8
BRANCH   2  16
ATOM     16  C   UNL     1       3.210   3.996  17.316  0.00  0.00    +0.000 C 
ATOM     17  O   UNL     1       2.563   3.141  16.715  0.00  0.00    +0.000 OA
BRANCH  16  18
ATOM     18  C   UNL     1       4.659   4.179  16.991  0.00  0.00    +0.000 A 
ATOM     19  C   UNL     1       5.617   4.198  18.012  0.00  0.00    +0.000 A 
ATOM     20  C   UNL     1       6.918   4.532  17.670  0.00  0.00    +0.000 A 
ATOM     21  N   UNL     1       7.306   4.809  16.412  0.00  0.00    +0.000 NA
ATOM     22  C   UNL     1       6.382   4.725  15.444  0.00  0.00    +0.000 A 
ATOM     23  C   UNL     1       5.066   4.382  15.673  0.00  0.00    +0.000 A 
BRANCH  20  24
ATOM     24  O   UNL     1       7.859   4.625  18.676  0.00  0.00    +0.000 OA
ATOM     25  C   UNL     1       7.923   5.943  19.235  0.00  0.00    +0.000 C 
ENDBRANCH  20  24
BRANCH  22  26
ATOM     26  O   UNL     1       6.729   5.052  14.150  0.00  0.00    +0.000 OA
ATOM     27  C   UNL     1       6.499   3.978  13.237  0.00  0.00    +0.000 C 
ENDBRANCH  22  26
ENDBRANCH  16  18
ENDBRANCH   2  16
TORSDOF 6
ENDMDL
MODEL 9
REMARK VINA RESULT:      -7.7      3.717      5.996
REMARK  Name = 
REMARK  10 active torsions:
REMARK  status: ('A' for Active; 'I' for Inactive)
REMARK    1  A    between atoms: C_1  and  O_2
REMARK    2  A    between atoms: O_2  and  C_3
REMARK    3  A    between atoms: C_7  and  C_8
REMARK    4  A    between atoms: C_9  and  C_10
REMARK    5  A    between atoms: C_9  and  C_11
REMARK    6  A    between atoms: C_11  and  C_13
REMARK    7  A    between atoms: C_15  and  O_16
REMARK    8  A    between atoms: O_16  and  C_17
REMARK    9  A    between atoms: C_19  and  O_20
REMARK   10  A    between atoms: O_20  and  C_21
REMARK                            x       y       z     vdW  Elec       q    Type
REMARK                         _______ _______ _______ _____ _____    ______ ____
ROOT
ATOM      1  C   UNL     1       5.189   5.351  15.301  0.00  0.00    +0.000 C 
ATOM      2  C   UNL     1       6.402   4.807  15.048  0.00  0.00    +0.000 C 
ATOM      3  C   UNL     1       7.220   4.156  16.129  0.00  0.00    +0.000 C 
ENDROOT
BRANCH   1   8
ATOM      4  C   UNL     1       2.237   3.006  19.125  0.00  0.00    +0.000 A 
ATOM      5  C   UNL     1       2.623   2.422  17.921  0.00  0.00    +0.000 A 
ATOM      6  C   UNL     1       3.416   3.129  17.000  0.00  0.00    +0.000 A 
ATOM      7  C   UNL     1       3.824   4.448  17.288  0.00  0.00    +0.000 A 
ATOM      8  C   UNL     1       4.596   5.434  16.605  0.00  0.00    +0.000 A 
ATOM      9  C   UNL     1       4.652   6.549  17.415  0.00  0.00    +0.000 A 
ATOM     10  N   UNL     1       3.917   6.288  18.543  0.00  0.00    +0.000 N 
ATOM     11  C   UNL     1       3.402   5.013  18.494  0.00  0.00    +0.000 A 
ATOM     12  C   UNL     1       2.600   4.326  19.420  0.00  0.00    +0.000 A 
ATOM     13  H   UNL     1       3.767   6.938  19.304  0.00  0.00    +0.000 HD
BRANCH   4  15
ATOM     14  C   UNL     1       1.588   2.921  21.393  0.00  0.00    +0.000 C 
ATOM     15  O   UNL     1       1.469   2.384  20.078  0.00  0.00    +0.000 OA
ENDBRANCH   4  15
ENDBRANCH   1   8
BRANCH   2  16
ATOM     16  C   UNL     1       6.903   4.784  13.618  0.00  0.00    +0.000 C 
ATOM     17  O   UNL     1       7.775   5.556  13.226  0.00  0.00    +0.000 OA
BRANCH  16  18
ATOM     18  C   UNL     1       6.272   3.838  12.646  0.00  0.00    +0.000 A 
ATOM     19  C   UNL     1       4.984   4.083  12.155  0.00  0.00    +0.000 A 
ATOM     20  C   UNL     1       4.388   3.095  11.385  0.00  0.00    +0.000 A 
ATOM     21  N   UNL     1       4.993   1.935  11.069  0.00  0.00    +0.000 NA
ATOM     22  C   UNL     1       6.249   1.751  11.502  0.00  0.00    +0.000 A 
ATOM     23  C   UNL     1       6.940   2.678  12.255  0.00  0.00    +0.000 A 
BRANCH  20  24
ATOM     24  O   UNL     1       3.091   3.290  10.954  0.00  0.00    +0.000 OA
ATOM     25  C   UNL     1       3.030   4.091   9.767  0.00  0.00    +0.000 C 
ENDBRANCH  20  24
BRANCH  22  26
ATOM     26  O   UNL     1       6.883   0.555  11.242  0.00  0.00    +0.000 OA
ATOM     27  C   UNL     1       5.979  -0.550  11.234  0.00  0.00    +0.000 C 
ENDBRANCH  22  26
ENDBRANCH  16  18
ENDBRANCH   2  16
TORSDOF 6
ENDMDL
