MODEL 1
REMARK VINA RESULT:      -7.0      0.000      0.000
REMARK  Name = 
REMARK  13 active torsions:
REMARK  status: ('A' for Active; 'I' for Inactive)
REMARK    1  A    between atoms: C_1  and  C_2
REMARK    2  A    between atoms: C_2  and  O_3
REMARK    3  A    between atoms: O_3  and  C_4
REMARK    4  A    between atoms: C_4  and  C_6
REMARK    5  A    between atoms: C_7  and  C_8
REMARK    6  A    between atoms: C_13  and  C_14
REMARK    7  A    between atoms: C_17  and  O_18
REMARK    8  A    between atoms: C_24  and  C_25
REMARK    9  A    between atoms: C_28  and  O_29
REMARK   10  A    between atoms: O_29  and  C_30
REMARK   11  A    between atoms: C_31  and  O_32
REMARK   12  A    between atoms: O_32  and  C_33
REMARK   13  A    between atoms: C_33  and  C_34
REMARK                            x       y       z     vdW  Elec       q    Type
REMARK                         _______ _______ _______ _____ _____    ______ ____
ROOT
ATOM      1  C   UNL     1      -0.494  11.745  20.907  0.00  0.00    +0.000 C 
ATOM      2  C   UNL     1      -0.590  10.807  21.877  0.00  0.00    +0.000 C 
ATOM      3  C   UNL     1      -1.280  10.939  23.213  0.00  0.00    +0.000 C 
ATOM      4  N   UNL     1      -0.029   9.555  21.737  0.00  0.00    +0.000 NA
ATOM      5  C   UNL     1       0.651   9.300  20.679  0.00  0.00    +0.000 A 
ATOM      6  S   UNL     1       1.391   7.750  20.425  0.00  0.00    +0.000 S 
ATOM      7  C   UNL     1       2.068   8.253  18.927  0.00  0.00    +0.000 A 
ATOM      8  C   UNL     1       2.879   7.553  18.123  0.00  0.00    +0.000 C 
ATOM      9  C   UNL     1       1.607   9.636  18.598  0.00  0.00    +0.000 A 
ATOM     10  O   UNL     1       1.824  10.177  17.525  0.00  0.00    +0.000 OA
ATOM     11  N   UNL     1       0.886  10.154  19.651  0.00  0.00    +0.000 N 
ATOM     12  C   UNL     1       0.297  11.492  19.629  0.00  0.00    +0.000 C 
ENDROOT
BRANCH   8  13
ATOM     13  C   UNL     1       3.277   6.159  18.342  0.00  0.00    +0.000 A 
ATOM     14  C   UNL     1       4.512   5.895  18.949  0.00  0.00    +0.000 A 
ATOM     15  C   UNL     1       4.932   4.579  19.160  0.00  0.00    +0.000 A 
ATOM     16  C   UNL     1       4.111   3.530  18.760  0.00  0.00    +0.000 A 
ATOM     17  C   UNL     1       2.882   3.776  18.158  0.00  0.00    +0.000 A 
ATOM     18  C   UNL     1       2.462   5.093  17.946  0.00  0.00    +0.000 A 
BRANCH  16  19
ATOM     19  O   UNL     1       4.484   2.232  18.944  0.00  0.00    +0.000 OA
ATOM     20  H   UNL     1       5.270   2.057  18.401  0.00  0.00    +0.000 HD
ENDBRANCH  16  19
ENDBRANCH   8  13
BRANCH  12  21
ATOM     21  C   UNL     1       1.381  12.546  19.417  0.00  0.00    +0.000 A 
ATOM     22  C   UNL     1       1.528  13.176  18.180  0.00  0.00    +0.000 A 
ATOM     23  C   UNL     1       2.532  14.124  17.986  0.00  0.00    +0.000 A 
ATOM     24  C   UNL     1       3.420  14.469  19.017  0.00  0.00    +0.000 A 
ATOM     25  C   UNL     1       3.283  13.849  20.271  0.00  0.00    +0.000 A 
ATOM     26  C   UNL     1       2.260  12.901  20.457  0.00  0.00    +0.000 A 
BRANCH  24  27
ATOM     27  O   UNL     1       4.425  15.382  18.842  0.00  0.00    +0.000 OA
ATOM     28  C   UNL     1       5.633  14.948  18.234  0.00  0.00    +0.000 C 
ENDBRANCH  24  27
BRANCH  25  29
ATOM     29  O   UNL     1       4.048  14.030  21.402  0.00  0.00    +0.000 OA
BRANCH  29  30
ATOM     30  C   UNL     1       3.673  15.058  22.317  0.00  0.00    +0.000 C 
ATOM     31  C   UNL     1       4.668  16.203  22.223  0.00  0.00    +0.000 C 
ENDBRANCH  29  30
ENDBRANCH  25  29
ENDBRANCH  12  21
BRANCH   1  32
ATOM     32  C   UNL     1      -1.090  13.097  21.078  0.00  0.00    +0.000 C 
ATOM     33  O   UNL     1      -0.779  13.892  21.949  0.00  0.00    +0.000 OA
BRANCH  32  34
ATOM     34  O   UNL     1      -2.020  13.330  20.115  0.00  0.00    +0.000 OA
BRANCH  34  36
ATOM     35  C   UNL     1      -3.992  12.971  21.533  0.00  0.00    +0.000 C 
ATOM     36  C   UNL     1      -3.252  12.602  20.256  0.00  0.00    +0.000 C 
ENDBRANCH  34  36
ENDBRANCH  32  34
ENDBRANCH   1  32
TORSDOF 9
ENDMDL
MODEL 2
REMARK VINA RESULT:      -6.8      0.697      1.241
REMARK  Name = 
REMARK  13 active torsions:
REMARK  status: ('A' for Active; 'I' for Inactive)
REMARK    1  A    between atoms: C_1  and  C_2
REMARK    2  A    between atoms: C_2  and  O_3
REMARK    3  A    between atoms: O_3  and  C_4
REMARK    4  A    between atoms: C_4  and  C_6
REMARK    5  A    between atoms: C_7  and  C_8
REMARK    6  A    between atoms: C_13  and  C_14
REMARK    7  A    between atoms: C_17  and  O_18
REMARK    8  A    between atoms: C_24  and  C_25
REMARK    9  A    between atoms: C_28  and  O_29
REMARK   10  A    between atoms: O_29  and  C_30
REMARK   11  A    between atoms: C_31  and  O_32
REMARK   12  A    between atoms: O_32  and  C_33
REMARK   13  A    between atoms: C_33  and  C_34
REMARK                            x       y       z     vdW  Elec       q    Type
REMARK                         _______ _______ _______ _____ _____    ______ ____
ROOT
ATOM      1  C   UNL     1      -0.560  11.567  20.917  0.00  0.00    +0.000 C 
ATOM      2  C   UNL     1      -0.607  10.646  21.907  0.00  0.00    +0.000 C 
ATOM      3  C   UNL     1      -1.293  10.774  23.244  0.00  0.00    +0.000 C 
ATOM      4  N   UNL     1       0.011   9.418  21.788  0.00  0.00    +0.000 NA
ATOM      5  C   UNL     1       0.696   9.174  20.731  0.00  0.00    +0.000 A 
ATOM      6  S   UNL     1       1.506   7.654  20.504  0.00  0.00    +0.000 S 
ATOM      7  C   UNL     1       2.149   8.157  18.991  0.00  0.00    +0.000 A 
ATOM      8  C   UNL     1       2.987   7.479  18.195  0.00  0.00    +0.000 C 
ATOM      9  C   UNL     1       1.622   9.510  18.637  0.00  0.00    +0.000 A 
ATOM     10  O   UNL     1       1.807  10.038  17.551  0.00  0.00    +0.000 OA
ATOM     11  N   UNL     1       0.884  10.016  19.684  0.00  0.00    +0.000 N 
ATOM     12  C   UNL     1       0.233  11.324  19.638  0.00  0.00    +0.000 C 
ENDROOT
BRANCH   8  13
ATOM     13  C   UNL     1       3.451   6.110  18.441  0.00  0.00    +0.000 A 
ATOM     14  C   UNL     1       4.716   5.916  19.011  0.00  0.00    +0.000 A 
ATOM     15  C   UNL     1       5.198   4.625  19.245  0.00  0.00    +0.000 A 
ATOM     16  C   UNL     1       4.410   3.531  18.905  0.00  0.00    +0.000 A 
ATOM     17  C   UNL     1       3.151   3.708  18.339  0.00  0.00    +0.000 A 
ATOM     18  C   UNL     1       2.669   4.999  18.104  0.00  0.00    +0.000 A 
BRANCH  16  19
ATOM     19  O   UNL     1       4.843   2.256  19.113  0.00  0.00    +0.000 OA
ATOM     20  H   UNL     1       5.716   2.155  18.698  0.00  0.00    +0.000 HD
ENDBRANCH  16  19
ENDBRANCH   8  13
BRANCH  12  21
ATOM     21  C   UNL     1       1.265  12.423  19.396  0.00  0.00    +0.000 A 
ATOM     22  C   UNL     1       1.324  13.085  18.169  0.00  0.00    +0.000 A 
ATOM     23  C   UNL     1       2.282  14.075  17.948  0.00  0.00    +0.000 A 
ATOM     24  C   UNL     1       3.209  14.430  18.939  0.00  0.00    +0.000 A 
ATOM     25  C   UNL     1       3.161  13.777  20.183  0.00  0.00    +0.000 A 
ATOM     26  C   UNL     1       2.184  12.787  20.398  0.00  0.00    +0.000 A 
BRANCH  24  27
ATOM     27  O   UNL     1       4.169  15.383  18.735  0.00  0.00    +0.000 OA
ATOM     28  C   UNL     1       5.328  15.028  17.993  0.00  0.00    +0.000 C 
ENDBRANCH  24  27
BRANCH  25  29
ATOM     29  O   UNL     1       3.976  13.961  21.278  0.00  0.00    +0.000 OA
BRANCH  29  30
ATOM     30  C   UNL     1       3.657  15.007  22.193  0.00  0.00    +0.000 C 
ATOM     31  C   UNL     1       4.752  15.111  23.242  0.00  0.00    +0.000 C 
ENDBRANCH  29  30
ENDBRANCH  25  29
ENDBRANCH  12  21
BRANCH   1  32
ATOM     32  C   UNL     1      -1.219  12.893  21.064  0.00  0.00    +0.000 C 
ATOM     33  O   UNL     1      -2.208  13.252  20.449  0.00  0.00    +0.000 OA
BRANCH  32  34
ATOM     34  O   UNL     1      -0.573  13.642  21.995  0.00  0.00    +0.000 OA
BRANCH  34  36
ATOM     35  C   UNL     1       0.119  15.761  20.966  0.00  0.00    +0.000 C 
ATOM     36  C   UNL     1      -0.822  15.057  21.931  0.00  0.00    +0.000 C 
ENDBRANCH  34  36
ENDBRANCH  32  34
ENDBRANCH   1  32
TORSDOF 9
ENDMDL
MODEL 3
REMARK VINA RESULT:      -6.8      0.606      1.011
REMARK  Name = 
REMARK  13 active torsions:
REMARK  status: ('A' for Active; 'I' for Inactive)
REMARK    1  A    between atoms: C_1  and  C_2
REMARK    2  A    between atoms: C_2  and  O_3
REMARK    3  A    between atoms: O_3  and  C_4
REMARK    4  A    between atoms: C_4  and  C_6
REMARK    5  A    between atoms: C_7  and  C_8
REMARK    6  A    between atoms: C_13  and  C_14
REMARK    7  A    between atoms: C_17  and  O_18
REMARK    8  A    between atoms: C_24  and  C_25
REMARK    9  A    between atoms: C_28  and  O_29
REMARK   10  A    between atoms: O_29  and  C_30
REMARK   11  A    between atoms: C_31  and  O_32
REMARK   12  A    between atoms: O_32  and  C_33
REMARK   13  A    between atoms: C_33  and  C_34
REMARK                            x       y       z     vdW  Elec       q    Type
REMARK                         _______ _______ _______ _____ _____    ______ ____
ROOT
ATOM      1  C   UNL     1      -0.533  11.443  20.890  0.00  0.00    +0.000 C 
ATOM      2  C   UNL     1      -0.548  10.539  21.897  0.00  0.00    +0.000 C 
ATOM      3  C   UNL     1      -1.219  10.678  23.241  0.00  0.00    +0.000 C 
ATOM      4  N   UNL     1       0.092   9.322  21.792  0.00  0.00    +0.000 NA
ATOM      5  C   UNL     1       0.767   9.072  20.730  0.00  0.00    +0.000 A 
ATOM      6  S   UNL     1       1.604   7.564  20.518  0.00  0.00    +0.000 S 
ATOM      7  C   UNL     1       2.217   8.052  18.989  0.00  0.00    +0.000 A 
ATOM      8  C   UNL     1       3.057   7.376  18.194  0.00  0.00    +0.000 C 
ATOM      9  C   UNL     1       1.659   9.388  18.618  0.00  0.00    +0.000 A 
ATOM     10  O   UNL     1       1.819   9.899  17.520  0.00  0.00    +0.000 OA
ATOM     11  N   UNL     1       0.925   9.898  19.665  0.00  0.00    +0.000 N 
ATOM     12  C   UNL     1       0.249  11.192  19.605  0.00  0.00    +0.000 C 
ENDROOT
BRANCH   8  13
ATOM     13  C   UNL     1       3.551   6.020  18.457  0.00  0.00    +0.000 A 
ATOM     14  C   UNL     1       2.669   4.940  18.323  0.00  0.00    +0.000 A 
ATOM     15  C   UNL     1       3.101   3.636  18.581  0.00  0.00    +0.000 A 
ATOM     16  C   UNL     1       4.417   3.419  18.974  0.00  0.00    +0.000 A 
ATOM     17  C   UNL     1       5.305   4.481  19.110  0.00  0.00    +0.000 A 
ATOM     18  C   UNL     1       4.873   5.786  18.852  0.00  0.00    +0.000 A 
BRANCH  16  19
ATOM     19  O   UNL     1       4.878   2.164  19.238  0.00  0.00    +0.000 OA
ATOM     20  H   UNL     1       4.600   1.916  20.136  0.00  0.00    +0.000 HD
ENDBRANCH  16  19
ENDBRANCH   8  13
BRANCH  12  21
ATOM     21  C   UNL     1       1.256  12.306  19.330  0.00  0.00    +0.000 A 
ATOM     22  C   UNL     1       1.317  12.915  18.075  0.00  0.00    +0.000 A 
ATOM     23  C   UNL     1       2.252  13.919  17.824  0.00  0.00    +0.000 A 
ATOM     24  C   UNL     1       3.154  14.342  18.813  0.00  0.00    +0.000 A 
ATOM     25  C   UNL     1       3.103  13.743  20.083  0.00  0.00    +0.000 A 
ATOM     26  C   UNL     1       2.149  12.739  20.328  0.00  0.00    +0.000 A 
BRANCH  24  27
ATOM     27  O   UNL     1       4.093  15.310  18.581  0.00  0.00    +0.000 OA
ATOM     28  C   UNL     1       3.754  16.661  18.862  0.00  0.00    +0.000 C 
ENDBRANCH  24  27
BRANCH  25  29
ATOM     29  O   UNL     1       3.896  13.997  21.181  0.00  0.00    +0.000 OA
BRANCH  29  30
ATOM     30  C   UNL     1       3.453  14.965  22.129  0.00  0.00    +0.000 C 
ATOM     31  C   UNL     1       4.659  15.632  22.770  0.00  0.00    +0.000 C 
ENDBRANCH  29  30
ENDBRANCH  25  29
ENDBRANCH  12  21
BRANCH   1  32
ATOM     32  C   UNL     1      -1.214  12.759  21.022  0.00  0.00    +0.000 C 
ATOM     33  O   UNL     1      -0.794  13.699  21.676  0.00  0.00    +0.000 OA
BRANCH  32  34
ATOM     34  O   UNL     1      -2.363  12.773  20.297  0.00  0.00    +0.000 OA
BRANCH  34  36
ATOM     35  C   UNL     1      -4.335  12.842  21.758  0.00  0.00    +0.000 C 
ATOM     36  C   UNL     1      -3.414  13.605  20.820  0.00  0.00    +0.000 C 
ENDBRANCH  34  36
ENDBRANCH  32  34
ENDBRANCH   1  32
TORSDOF 9
ENDMDL
MODEL 4
REMARK VINA RESULT:      -6.5      1.698      2.129
REMARK  Name = 
REMARK  13 active torsions:
REMARK  status: ('A' for Active; 'I' for Inactive)
REMARK    1  A    between atoms: C_1  and  C_2
REMARK    2  A    between atoms: C_2  and  O_3
REMARK    3  A    between atoms: O_3  and  C_4
REMARK    4  A    between atoms: C_4  and  C_6
REMARK    5  A    between atoms: C_7  and  C_8
REMARK    6  A    between atoms: C_13  and  C_14
REMARK    7  A    between atoms: C_17  and  O_18
REMARK    8  A    between atoms: C_24  and  C_25
REMARK    9  A    between atoms: C_28  and  O_29
REMARK   10  A    between atoms: O_29  and  C_30
REMARK   11  A    between atoms: C_31  and  O_32
REMARK   12  A    between atoms: O_32  and  C_33
REMARK   13  A    between atoms: C_33  and  C_34
REMARK                            x       y       z     vdW  Elec       q    Type
REMARK                         _______ _______ _______ _____ _____    ______ ____
ROOT
ATOM      1  C   UNL     1      -0.482  10.641  21.739  0.00  0.00    +0.000 C 
ATOM      2  C   UNL     1       0.065   9.681  22.520  0.00  0.00    +0.000 C 
ATOM      3  C   UNL     1      -0.098   9.512  24.010  0.00  0.00    +0.000 C 
ATOM      4  N   UNL     1       0.882   8.699  22.001  0.00  0.00    +0.000 NA
ATOM      5  C   UNL     1       1.173   8.737  20.752  0.00  0.00    +0.000 A 
ATOM      6  S   UNL     1       2.195   7.539  20.020  0.00  0.00    +0.000 S 
ATOM      7  C   UNL     1       2.099   8.310  18.486  0.00  0.00    +0.000 A 
ATOM      8  C   UNL     1       2.731   7.961  17.358  0.00  0.00    +0.000 C 
ATOM      9  C   UNL     1       1.162   9.471  18.557  0.00  0.00    +0.000 A 
ATOM     10  O   UNL     1       0.802  10.103  17.576  0.00  0.00    +0.000 OA
ATOM     11  N   UNL     1       0.753   9.667  19.858  0.00  0.00    +0.000 N 
ATOM     12  C   UNL     1      -0.172  10.728  20.248  0.00  0.00    +0.000 C 
ENDROOT
BRANCH   8  13
ATOM     13  C   UNL     1       3.577   6.773  17.204  0.00  0.00    +0.000 A 
ATOM     14  C   UNL     1       4.817   6.903  16.564  0.00  0.00    +0.000 A 
ATOM     15  C   UNL     1       5.642   5.789  16.385  0.00  0.00    +0.000 A 
ATOM     16  C   UNL     1       5.222   4.548  16.849  0.00  0.00    +0.000 A 
ATOM     17  C   UNL     1       3.995   4.403  17.488  0.00  0.00    +0.000 A 
ATOM     18  C   UNL     1       3.168   5.517  17.666  0.00  0.00    +0.000 A 
BRANCH  16  19
ATOM     19  O   UNL     1       5.995   3.436  16.693  0.00  0.00    +0.000 OA
ATOM     20  H   UNL     1       6.503   3.527  15.870  0.00  0.00    +0.000 HD
ENDBRANCH  16  19
ENDBRANCH   8  13
BRANCH  12  21
ATOM     21  C   UNL     1       0.394  12.094  19.868  0.00  0.00    +0.000 A 
ATOM     22  C   UNL     1      -0.326  12.957  19.039  0.00  0.00    +0.000 A 
ATOM     23  C   UNL     1       0.205  14.196  18.680  0.00  0.00    +0.000 A 
ATOM     24  C   UNL     1       1.468  14.608  19.131  0.00  0.00    +0.000 A 
ATOM     25  C   UNL     1       2.205  13.754  19.969  0.00  0.00    +0.000 A 
ATOM     26  C   UNL     1       1.654  12.511  20.334  0.00  0.00    +0.000 A 
BRANCH  24  27
ATOM     27  O   UNL     1       2.016  15.810  18.773  0.00  0.00    +0.000 OA
ATOM     28  C   UNL     1       1.186  16.963  18.787  0.00  0.00    +0.000 C 
ENDBRANCH  24  27
BRANCH  25  29
ATOM     29  O   UNL     1       3.457  13.956  20.508  0.00  0.00    +0.000 OA
BRANCH  29  30
ATOM     30  C   UNL     1       3.553  14.592  21.781  0.00  0.00    +0.000 C 
ATOM     31  C   UNL     1       4.928  14.330  22.373  0.00  0.00    +0.000 C 
ENDBRANCH  29  30
ENDBRANCH  25  29
ENDBRANCH  12  21
BRANCH   1  32
ATOM     32  C   UNL     1      -1.348  11.705  22.314  0.00  0.00    +0.000 C 
ATOM     33  O   UNL     1      -2.538  11.838  22.079  0.00  0.00    +0.000 OA
BRANCH  32  34
ATOM     34  O   UNL     1      -0.633  12.498  23.153  0.00  0.00    +0.000 OA
BRANCH  34  36
ATOM     35  C   UNL     1      -0.385  14.837  22.451  0.00  0.00    +0.000 C 
ATOM     36  C   UNL     1      -1.134  13.836  23.317  0.00  0.00    +0.000 C 
ENDBRANCH  34  36
ENDBRANCH  32  34
ENDBRANCH   1  32
TORSDOF 9
ENDMDL
MODEL 5
REMARK VINA RESULT:      -6.4      1.950      2.694
REMARK  Name = 
REMARK  13 active torsions:
REMARK  status: ('A' for Active; 'I' for Inactive)
REMARK    1  A    between atoms: C_1  and  C_2
REMARK    2  A    between atoms: C_2  and  O_3
REMARK    3  A    between atoms: O_3  and  C_4
REMARK    4  A    between atoms: C_4  and  C_6
REMARK    5  A    between atoms: C_7  and  C_8
REMARK    6  A    between atoms: C_13  and  C_14
REMARK    7  A    between atoms: C_17  and  O_18
REMARK    8  A    between atoms: C_24  and  C_25
REMARK    9  A    between atoms: C_28  and  O_29
REMARK   10  A    between atoms: O_29  and  C_30
REMARK   11  A    between atoms: C_31  and  O_32
REMARK   12  A    between atoms: O_32  and  C_33
REMARK   13  A    between atoms: C_33  and  C_34
REMARK                            x       y       z     vdW  Elec       q    Type
REMARK                         _______ _______ _______ _____ _____    ______ ____
ROOT
ATOM      1  C   UNL     1      -0.471  10.787  21.674  0.00  0.00    +0.000 C 
ATOM      2  C   UNL     1      -0.062   9.745  22.434  0.00  0.00    +0.000 C 
ATOM      3  C   UNL     1      -0.351   9.509  23.896  0.00  0.00    +0.000 C 
ATOM      4  N   UNL     1       0.714   8.728  21.917  0.00  0.00    +0.000 NA
ATOM      5  C   UNL     1       1.103   8.810  20.697  0.00  0.00    +0.000 A 
ATOM      6  S   UNL     1       2.082   7.574  19.970  0.00  0.00    +0.000 S 
ATOM      7  C   UNL     1       2.164   8.432  18.482  0.00  0.00    +0.000 A 
ATOM      8  C   UNL     1       2.851   8.095  17.383  0.00  0.00    +0.000 C 
ATOM      9  C   UNL     1       1.316   9.660  18.555  0.00  0.00    +0.000 A 
ATOM     10  O   UNL     1       1.082  10.371  17.590  0.00  0.00    +0.000 OA
ATOM     11  N   UNL     1       0.826   9.818  19.832  0.00  0.00    +0.000 N 
ATOM     12  C   UNL     1      -0.043  10.929  20.218  0.00  0.00    +0.000 C 
ENDROOT
BRANCH   8  13
ATOM     13  C   UNL     1       3.612   6.852  17.220  0.00  0.00    +0.000 A 
ATOM     14  C   UNL     1       4.882   6.908  16.630  0.00  0.00    +0.000 A 
ATOM     15  C   UNL     1       5.629   5.741  16.443  0.00  0.00    +0.000 A 
ATOM     16  C   UNL     1       5.100   4.521  16.849  0.00  0.00    +0.000 A 
ATOM     17  C   UNL     1       3.842   4.449  17.438  0.00  0.00    +0.000 A 
ATOM     18  C   UNL     1       3.094   5.616  17.624  0.00  0.00    +0.000 A 
BRANCH  16  19
ATOM     19  O   UNL     1       5.795   3.360  16.683  0.00  0.00    +0.000 OA
ATOM     20  H   UNL     1       6.160   3.345  15.783  0.00  0.00    +0.000 HD
ENDBRANCH  16  19
ENDBRANCH   8  13
BRANCH  12  21
ATOM     21  C   UNL     1       0.655  12.262  19.962  0.00  0.00    +0.000 A 
ATOM     22  C   UNL     1       1.950  12.490  20.432  0.00  0.00    +0.000 A 
ATOM     23  C   UNL     1       2.574  13.717  20.211  0.00  0.00    +0.000 A 
ATOM     24  C   UNL     1       1.928  14.753  19.520  0.00  0.00    +0.000 A 
ATOM     25  C   UNL     1       0.626  14.540  19.035  0.00  0.00    +0.000 A 
ATOM     26  C   UNL     1       0.009  13.294  19.255  0.00  0.00    +0.000 A 
BRANCH  24  27
ATOM     27  O   UNL     1       2.515  15.971  19.311  0.00  0.00    +0.000 OA
ATOM     28  C   UNL     1       3.563  16.061  18.357  0.00  0.00    +0.000 C 
ENDBRANCH  24  27
BRANCH  25  29
ATOM     29  O   UNL     1      -0.186  15.417  18.350  0.00  0.00    +0.000 OA
BRANCH  29  30
ATOM     30  C   UNL     1      -0.811  16.472  19.077  0.00  0.00    +0.000 C 
ATOM     31  C   UNL     1      -0.952  17.690  18.179  0.00  0.00    +0.000 C 
ENDBRANCH  29  30
ENDBRANCH  25  29
ENDBRANCH  12  21
BRANCH   1  32
ATOM     32  C   UNL     1      -1.294  11.885  22.248  0.00  0.00    +0.000 C 
ATOM     33  O   UNL     1      -2.459  12.106  21.961  0.00  0.00    +0.000 OA
BRANCH  32  34
ATOM     34  O   UNL     1      -0.572  12.596  23.152  0.00  0.00    +0.000 OA
BRANCH  34  36
ATOM     35  C   UNL     1      -0.222  14.966  22.613  0.00  0.00    +0.000 C 
ATOM     36  C   UNL     1      -1.031  13.939  23.391  0.00  0.00    +0.000 C 
ENDBRANCH  34  36
ENDBRANCH  32  34
ENDBRANCH   1  32
TORSDOF 9
ENDMDL
MODEL 6
REMARK VINA RESULT:      -6.3      1.633      2.521
REMARK  Name = 
REMARK  13 active torsions:
REMARK  status: ('A' for Active; 'I' for Inactive)
REMARK    1  A    between atoms: C_1  and  C_2
REMARK    2  A    between atoms: C_2  and  O_3
REMARK    3  A    between atoms: O_3  and  C_4
REMARK    4  A    between atoms: C_4  and  C_6
REMARK    5  A    between atoms: C_7  and  C_8
REMARK    6  A    between atoms: C_13  and  C_14
REMARK    7  A    between atoms: C_17  and  O_18
REMARK    8  A    between atoms: C_24  and  C_25
REMARK    9  A    between atoms: C_28  and  O_29
REMARK   10  A    between atoms: O_29  and  C_30
REMARK   11  A    between atoms: C_31  and  O_32
REMARK   12  A    between atoms: O_32  and  C_33
REMARK   13  A    between atoms: C_33  and  C_34
REMARK                            x       y       z     vdW  Elec       q    Type
REMARK                         _______ _______ _______ _____ _____    ______ ____
ROOT
ATOM      1  C   UNL     1      -0.700  11.866  21.248  0.00  0.00    +0.000 C 
ATOM      2  C   UNL     1      -0.699  10.800  22.081  0.00  0.00    +0.000 C 
ATOM      3  C   UNL     1      -1.340  10.703  23.444  0.00  0.00    +0.000 C 
ATOM      4  N   UNL     1      -0.070   9.618  21.750  0.00  0.00    +0.000 NA
ATOM      5  C   UNL     1       0.580   9.556  20.645  0.00  0.00    +0.000 A 
ATOM      6  S   UNL     1       1.401   8.106  20.154  0.00  0.00    +0.000 S 
ATOM      7  C   UNL     1       1.984   8.854  18.720  0.00  0.00    +0.000 A 
ATOM      8  C   UNL     1       2.801   8.325  17.800  0.00  0.00    +0.000 C 
ATOM      9  C   UNL     1       1.427  10.235  18.601  0.00  0.00    +0.000 A 
ATOM     10  O   UNL     1       1.566  10.931  17.607  0.00  0.00    +0.000 OA
ATOM     11  N   UNL     1       0.720  10.556  19.739  0.00  0.00    +0.000 N 
ATOM     12  C   UNL     1       0.051  11.843  19.922  0.00  0.00    +0.000 C 
ENDROOT
BRANCH   8  13
ATOM     13  C   UNL     1       3.291   6.943  17.810  0.00  0.00    +0.000 A 
ATOM     14  C   UNL     1       4.663   6.709  17.646  0.00  0.00    +0.000 A 
ATOM     15  C   UNL     1       5.165   5.405  17.635  0.00  0.00    +0.000 A 
ATOM     16  C   UNL     1       4.288   4.337  17.787  0.00  0.00    +0.000 A 
ATOM     17  C   UNL     1       2.923   4.552  17.952  0.00  0.00    +0.000 A 
ATOM     18  C   UNL     1       2.421   5.857  17.963  0.00  0.00    +0.000 A 
BRANCH  16  19
ATOM     19  O   UNL     1       4.734   3.049  17.779  0.00  0.00    +0.000 OA
ATOM     20  H   UNL     1       4.922   2.794  16.860  0.00  0.00    +0.000 HD
ENDBRANCH  16  19
ENDBRANCH   8  13
BRANCH  12  21
ATOM     21  C   UNL     1       1.060  12.984  19.824  0.00  0.00    +0.000 A 
ATOM     22  C   UNL     1       2.259  12.938  20.538  0.00  0.00    +0.000 A 
ATOM     23  C   UNL     1       3.168  13.993  20.459  0.00  0.00    +0.000 A 
ATOM     24  C   UNL     1       2.908  15.125  19.671  0.00  0.00    +0.000 A 
ATOM     25  C   UNL     1       1.708  15.186  18.941  0.00  0.00    +0.000 A 
ATOM     26  C   UNL     1       0.803  14.111  19.020  0.00  0.00    +0.000 A 
BRANCH  24  27
ATOM     27  O   UNL     1       3.776  16.179  19.596  0.00  0.00    +0.000 OA
ATOM     28  C   UNL     1       3.707  17.184  20.598  0.00  0.00    +0.000 C 
ENDBRANCH  24  27
BRANCH  25  29
ATOM     29  O   UNL     1       1.254  16.199  18.125  0.00  0.00    +0.000 OA
BRANCH  29  30
ATOM     30  C   UNL     1      -0.025  16.767  18.396  0.00  0.00    +0.000 C 
ATOM     31  C   UNL     1      -0.305  17.879  17.399  0.00  0.00    +0.000 C 
ENDBRANCH  29  30
ENDBRANCH  25  29
ENDBRANCH  12  21
BRANCH   1  32
ATOM     32  C   UNL     1      -1.369  13.140  21.625  0.00  0.00    +0.000 C 
ATOM     33  O   UNL     1      -2.409  13.552  21.139  0.00  0.00    +0.000 OA
BRANCH  32  34
ATOM     34  O   UNL     1      -0.669  13.773  22.602  0.00  0.00    +0.000 OA
BRANCH  34  36
ATOM     35  C   UNL     1       0.507  15.916  22.366  0.00  0.00    +0.000 C 
ATOM     36  C   UNL     1      -0.810  15.205  22.635  0.00  0.00    +0.000 C 
ENDBRANCH  34  36
ENDBRANCH  32  34
ENDBRANCH   1  32
TORSDOF 9
ENDMDL
MODEL 7
REMARK VINA RESULT:      -6.3      1.618      2.037
REMARK  Name = 
REMARK  13 active torsions:
REMARK  status: ('A' for Active; 'I' for Inactive)
REMARK    1  A    between atoms: C_1  and  C_2
REMARK    2  A    between atoms: C_2  and  O_3
REMARK    3  A    between atoms: O_3  and  C_4
REMARK    4  A    between atoms: C_4  and  C_6
REMARK    5  A    between atoms: C_7  and  C_8
REMARK    6  A    between atoms: C_13  and  C_14
REMARK    7  A    between atoms: C_17  and  O_18
REMARK    8  A    between atoms: C_24  and  C_25
REMARK    9  A    between atoms: C_28  and  O_29
REMARK   10  A    between atoms: O_29  and  C_30
REMARK   11  A    between atoms: C_31  and  O_32
REMARK   12  A    between atoms: O_32  and  C_33
REMARK   13  A    between atoms: C_33  and  C_34
REMARK                            x       y       z     vdW  Elec       q    Type
REMARK                         _______ _______ _______ _____ _____    ______ ____
ROOT
ATOM      1  C   UNL     1      -0.454  10.689  21.765  0.00  0.00    +0.000 C 
ATOM      2  C   UNL     1       0.071   9.708  22.534  0.00  0.00    +0.000 C 
ATOM      3  C   UNL     1      -0.101   9.519  24.021  0.00  0.00    +0.000 C 
ATOM      4  N   UNL     1       0.872   8.718  22.003  0.00  0.00    +0.000 NA
ATOM      5  C   UNL     1       1.169   8.770  20.756  0.00  0.00    +0.000 A 
ATOM      6  S   UNL     1       2.172   7.564  20.009  0.00  0.00    +0.000 S 
ATOM      7  C   UNL     1       2.096   8.360  18.487  0.00  0.00    +0.000 A 
ATOM      8  C   UNL     1       2.726   8.016  17.356  0.00  0.00    +0.000 C 
ATOM      9  C   UNL     1       1.180   9.537  18.572  0.00  0.00    +0.000 A 
ATOM     10  O   UNL     1       0.836  10.190  17.599  0.00  0.00    +0.000 OA
ATOM     11  N   UNL     1       0.770   9.721  19.874  0.00  0.00    +0.000 N 
ATOM     12  C   UNL     1      -0.138  10.793  20.277  0.00  0.00    +0.000 C 
ENDROOT
BRANCH   8  13
ATOM     13  C   UNL     1       3.550   6.816  17.187  0.00  0.00    +0.000 A 
ATOM     14  C   UNL     1       3.057   5.585  17.642  0.00  0.00    +0.000 A 
ATOM     15  C   UNL     1       3.822   4.423  17.513  0.00  0.00    +0.000 A 
ATOM     16  C   UNL     1       5.081   4.498  16.926  0.00  0.00    +0.000 A 
ATOM     17  C   UNL     1       5.584   5.711  16.469  0.00  0.00    +0.000 A 
ATOM     18  C   UNL     1       4.819   6.875  16.599  0.00  0.00    +0.000 A 
BRANCH  16  19
ATOM     19  O   UNL     1       5.861   3.389  16.784  0.00  0.00    +0.000 OA
ATOM     20  H   UNL     1       6.202   3.367  15.874  0.00  0.00    +0.000 HD
ENDBRANCH  16  19
ENDBRANCH   8  13
BRANCH  12  21
ATOM     21  C   UNL     1       0.455  12.154  19.920  0.00  0.00    +0.000 A 
ATOM     22  C   UNL     1      -0.234  13.031  19.080  0.00  0.00    +0.000 A 
ATOM     23  C   UNL     1       0.321  14.265  18.742  0.00  0.00    +0.000 A 
ATOM     24  C   UNL     1       1.578  14.658  19.225  0.00  0.00    +0.000 A 
ATOM     25  C   UNL     1       2.284  13.789  20.075  0.00  0.00    +0.000 A 
ATOM     26  C   UNL     1       1.709  12.551  20.418  0.00  0.00    +0.000 A 
BRANCH  24  27
ATOM     27  O   UNL     1       2.150  15.855  18.888  0.00  0.00    +0.000 OA
ATOM     28  C   UNL     1       3.115  15.873  17.845  0.00  0.00    +0.000 C 
ENDBRANCH  24  27
BRANCH  25  29
ATOM     29  O   UNL     1       3.525  13.971  20.644  0.00  0.00    +0.000 OA
BRANCH  29  30
ATOM     30  C   UNL     1       3.612  14.713  21.859  0.00  0.00    +0.000 C 
ATOM     31  C   UNL     1       4.516  15.917  21.651  0.00  0.00    +0.000 C 
ENDBRANCH  29  30
ENDBRANCH  25  29
ENDBRANCH  12  21
BRANCH   1  32
ATOM     32  C   UNL     1      -1.304  11.760  22.353  0.00  0.00    +0.000 C 
ATOM     33  O   UNL     1      -2.511  11.849  22.210  0.00  0.00    +0.000 OA
BRANCH  32  34
ATOM     34  O   UNL     1      -0.547  12.615  23.089  0.00  0.00    +0.000 OA
BRANCH  34  36
ATOM     35  C   UNL     1      -1.427  14.635  24.171  0.00  0.00    +0.000 C 
ATOM     36  C   UNL     1      -0.844  14.011  22.913  0.00  0.00    +0.000 C 
ENDBRANCH  34  36
ENDBRANCH  32  34
ENDBRANCH   1  32
TORSDOF 9
ENDMDL
MODEL 8
REMARK VINA RESULT:      -6.2      1.527      2.409
REMARK  Name = 
REMARK  13 active torsions:
REMARK  status: ('A' for Active; 'I' for Inactive)
REMARK    1  A    between atoms: C_1  and  C_2
REMARK    2  A    between atoms: C_2  and  O_3
REMARK    3  A    between atoms: O_3  and  C_4
REMARK    4  A    between atoms: C_4  and  C_6
REMARK    5  A    between atoms: C_7  and  C_8
REMARK    6  A    between atoms: C_13  and  C_14
REMARK    7  A    between atoms: C_17  and  O_18
REMARK    8  A    between atoms: C_24  and  C_25
REMARK    9  A    between atoms: C_28  and  O_29
REMARK   10  A    between atoms: O_29  and  C_30
REMARK   11  A    between atoms: C_31  and  O_32
REMARK   12  A    between atoms: O_32  and  C_33
REMARK   13  A    between atoms: C_33  and  C_34
REMARK                            x       y       z     vdW  Elec       q    Type
REMARK                         _______ _______ _______ _____ _____    ______ ____
ROOT
ATOM      1  C   UNL     1      -0.569  12.165  20.996  0.00  0.00    +0.000 C 
ATOM      2  C   UNL     1      -0.695  11.117  21.843  0.00  0.00    +0.000 C 
ATOM      3  C   UNL     1      -1.425  11.091  23.163  0.00  0.00    +0.000 C 
ATOM      4  N   UNL     1      -0.130   9.889  21.571  0.00  0.00    +0.000 NA
ATOM      5  C   UNL     1       0.582   9.761  20.511  0.00  0.00    +0.000 A 
ATOM      6  S   UNL     1       1.330   8.249  20.095  0.00  0.00    +0.000 S 
ATOM      7  C   UNL     1       2.053   8.927  18.690  0.00  0.00    +0.000 A 
ATOM      8  C   UNL     1       2.887   8.326  17.833  0.00  0.00    +0.000 C 
ATOM      9  C   UNL     1       1.602  10.341  18.516  0.00  0.00    +0.000 A 
ATOM     10  O   UNL     1       1.852  11.006  17.523  0.00  0.00    +0.000 OA
ATOM     11  N   UNL     1       0.849  10.731  19.601  0.00  0.00    +0.000 N 
ATOM     12  C   UNL     1       0.261  12.064  19.722  0.00  0.00    +0.000 C 
ENDROOT
BRANCH   8  13
ATOM     13  C   UNL     1       3.279   6.914  17.895  0.00  0.00    +0.000 A 
ATOM     14  C   UNL     1       2.278   5.935  17.959  0.00  0.00    +0.000 A 
ATOM     15  C   UNL     1       2.614   4.581  18.036  0.00  0.00    +0.000 A 
ATOM     16  C   UNL     1       3.954   4.211  18.048  0.00  0.00    +0.000 A 
ATOM     17  C   UNL     1       4.960   5.170  17.983  0.00  0.00    +0.000 A 
ATOM     18  C   UNL     1       4.624   6.526  17.907  0.00  0.00    +0.000 A 
BRANCH  16  19
ATOM     19  O   UNL     1       4.326   2.902  18.125  0.00  0.00    +0.000 OA
ATOM     20  H   UNL     1       5.257   2.861  18.396  0.00  0.00    +0.000 HD
ENDBRANCH  16  19
ENDBRANCH   8  13
BRANCH  12  21
ATOM     21  C   UNL     1       1.351  13.132  19.671  0.00  0.00    +0.000 A 
ATOM     22  C   UNL     1       2.463  13.053  20.511  0.00  0.00    +0.000 A 
ATOM     23  C   UNL     1       3.446  14.042  20.473  0.00  0.00    +0.000 A 
ATOM     24  C   UNL     1       3.348  15.138  19.603  0.00  0.00    +0.000 A 
ATOM     25  C   UNL     1       2.237  15.231  18.747  0.00  0.00    +0.000 A 
ATOM     26  C   UNL     1       1.257  14.222  18.786  0.00  0.00    +0.000 A 
BRANCH  24  27
ATOM     27  O   UNL     1       4.290  16.130  19.565  0.00  0.00    +0.000 OA
ATOM     28  C   UNL     1       5.458  15.923  18.783  0.00  0.00    +0.000 C 
ENDBRANCH  24  27
BRANCH  25  29
ATOM     29  O   UNL     1       1.941  16.219  17.834  0.00  0.00    +0.000 OA
BRANCH  29  30
ATOM     30  C   UNL     1       1.382  17.440  18.313  0.00  0.00    +0.000 C 
ATOM     31  C   UNL     1       0.197  17.828  17.444  0.00  0.00    +0.000 C 
ENDBRANCH  29  30
ENDBRANCH  25  29
ENDBRANCH  12  21
BRANCH   1  32
ATOM     32  C   UNL     1      -1.171  13.489  21.310  0.00  0.00    +0.000 C 
ATOM     33  O   UNL     1      -2.172  13.942  20.783  0.00  0.00    +0.000 OA
BRANCH  32  34
ATOM     34  O   UNL     1      -0.457  14.115  22.281  0.00  0.00    +0.000 OA
BRANCH  34  36
ATOM     35  C   UNL     1      -1.392  14.764  24.457  0.00  0.00    +0.000 C 
ATOM     36  C   UNL     1      -1.162  15.142  23.002  0.00  0.00    +0.000 C 
ENDBRANCH  34  36
ENDBRANCH  32  34
ENDBRANCH   1  32
TORSDOF 9
ENDMDL
MODEL 9
REMARK VINA RESULT:      -6.2      1.458      2.105
REMARK  Name = 
REMARK  13 active torsions:
REMARK  status: ('A' for Active; 'I' for Inactive)
REMARK    1  A    between atoms: C_1  and  C_2
REMARK    2  A    between atoms: C_2  and  O_3
REMARK    3  A    between atoms: O_3  and  C_4
REMARK    4  A    between atoms: C_4  and  C_6
REMARK    5  A    between atoms: C_7  and  C_8
REMARK    6  A    between atoms: C_13  and  C_14
REMARK    7  A    between atoms: C_17  and  O_18
REMARK    8  A    between atoms: C_24  and  C_25
REMARK    9  A    between atoms: C_28  and  O_29
REMARK   10  A    between atoms: O_29  and  C_30
REMARK   11  A    between atoms: C_31  and  O_32
REMARK   12  A    between atoms: O_32  and  C_33
REMARK   13  A    between atoms: C_33  and  C_34
REMARK                            x       y       z     vdW  Elec       q    Type
REMARK                         _______ _______ _______ _____ _____    ______ ____
ROOT
ATOM      1  C   UNL     1      -0.741  11.862  21.213  0.00  0.00    +0.000 C 
ATOM      2  C   UNL     1      -0.743  10.802  22.054  0.00  0.00    +0.000 C 
ATOM      3  C   UNL     1      -1.393  10.713  23.412  0.00  0.00    +0.000 C 
ATOM      4  N   UNL     1      -0.107   9.620  21.736  0.00  0.00    +0.000 NA
ATOM      5  C   UNL     1       0.551   9.551  20.637  0.00  0.00    +0.000 A 
ATOM      6  S   UNL     1       1.380   8.101  20.163  0.00  0.00    +0.000 S 
ATOM      7  C   UNL     1       1.971   8.839  18.727  0.00  0.00    +0.000 A 
ATOM      8  C   UNL     1       2.797   8.306  17.817  0.00  0.00    +0.000 C 
ATOM      9  C   UNL     1       1.411  10.217  18.594  0.00  0.00    +0.000 A 
ATOM     10  O   UNL     1       1.555  10.906  17.595  0.00  0.00    +0.000 OA
ATOM     11  N   UNL     1       0.695  10.545  19.724  0.00  0.00    +0.000 N 
ATOM     12  C   UNL     1       0.020  11.830  19.892  0.00  0.00    +0.000 C 
ENDROOT
BRANCH   8  13
ATOM     13  C   UNL     1       3.292   6.925  17.842  0.00  0.00    +0.000 A 
ATOM     14  C   UNL     1       4.670   6.698  17.727  0.00  0.00    +0.000 A 
ATOM     15  C   UNL     1       5.176   5.395  17.731  0.00  0.00    +0.000 A 
ATOM     16  C   UNL     1       4.298   4.323  17.849  0.00  0.00    +0.000 A 
ATOM     17  C   UNL     1       2.928   4.533  17.964  0.00  0.00    +0.000 A 
ATOM     18  C   UNL     1       2.421   5.836  17.960  0.00  0.00    +0.000 A 
BRANCH  16  19
ATOM     19  O   UNL     1       4.750   3.037  17.853  0.00  0.00    +0.000 OA
ATOM     20  H   UNL     1       4.579   2.653  18.729  0.00  0.00    +0.000 HD
ENDBRANCH  16  19
ENDBRANCH   8  13
BRANCH  12  21
ATOM     21  C   UNL     1       1.025  12.975  19.792  0.00  0.00    +0.000 A 
ATOM     22  C   UNL     1       2.219  12.939  20.516  0.00  0.00    +0.000 A 
ATOM     23  C   UNL     1       3.125  13.996  20.435  0.00  0.00    +0.000 A 
ATOM     24  C   UNL     1       2.867  15.120  19.636  0.00  0.00    +0.000 A 
ATOM     25  C   UNL     1       1.673  15.171  18.896  0.00  0.00    +0.000 A 
ATOM     26  C   UNL     1       0.771  14.094  18.977  0.00  0.00    +0.000 A 
BRANCH  24  27
ATOM     27  O   UNL     1       3.732  16.177  19.559  0.00  0.00    +0.000 OA
ATOM     28  C   UNL     1       4.970  15.990  18.887  0.00  0.00    +0.000 C 
ENDBRANCH  24  27
BRANCH  25  29
ATOM     29  O   UNL     1       1.222  16.176  18.068  0.00  0.00    +0.000 OA
BRANCH  29  30
ATOM     30  C   UNL     1       0.155  17.004  18.525  0.00  0.00    +0.000 C 
ATOM     31  C   UNL     1      -0.357  17.850  17.371  0.00  0.00    +0.000 C 
ENDBRANCH  29  30
ENDBRANCH  25  29
ENDBRANCH  12  21
BRANCH   1  32
ATOM     32  C   UNL     1      -1.418  13.136  21.574  0.00  0.00    +0.000 C 
ATOM     33  O   UNL     1      -0.952  13.988  22.313  0.00  0.00    +0.000 OA
BRANCH  32  34
ATOM     34  O   UNL     1      -2.621  13.228  20.951  0.00  0.00    +0.000 OA
BRANCH  34  36
ATOM     35  C   UNL     1      -4.969  13.876  21.257  0.00  0.00    +0.000 C 
ATOM     36  C   UNL     1      -3.771  13.119  21.809  0.00  0.00    +0.000 C 
ENDBRANCH  34  36
ENDBRANCH  32  34
ENDBRANCH   1  32
TORSDOF 9
ENDMDL
