MODEL 1
REMARK VINA RESULT:      -7.5      0.000      0.000
REMARK  Name = 
REMARK  3 active torsions:
REMARK  status: ('A' for Active; 'I' for Inactive)
REMARK    1  A    between atoms: C_1  and  C_2
REMARK    2  A    between atoms: N_4  and  C_5
REMARK    3  A    between atoms: C_13  and  C_14
REMARK                            x       y       z     vdW  Elec       q    Type
REMARK                         _______ _______ _______ _____ _____    ______ ____
ROOT
ATOM      1  C   UNL     1       3.379   3.402  17.399  0.00  0.00    +0.000 C 
ATOM      2  C   UNL     1       3.498   4.876  17.544  0.00  0.00    +0.000 A 
ATOM      3  N   UNL     1       2.518   5.579  18.125  0.00  0.00    +0.000 NA
ATOM      4  N   UNL     1       2.923   6.872  18.072  0.00  0.00    +0.000 N 
ATOM      5  C   UNL     1       4.172   6.982  17.493  0.00  0.00    +0.000 A 
ATOM      6  C   UNL     1       4.566   5.710  17.156  0.00  0.00    +0.000 A 
ENDROOT
BRANCH   4   7
ATOM      7  C   UNL     1       2.102   7.920  18.578  0.00  0.00    +0.000 A 
ATOM      8  C   UNL     1       1.539   8.878  17.723  0.00  0.00    +0.000 A 
ATOM      9  C   UNL     1       0.740   9.900  18.244  0.00  0.00    +0.000 A 
ATOM     10  C   UNL     1       0.507   9.979  19.614  0.00  0.00    +0.000 A 
ATOM     11  C   UNL     1       1.067   9.028  20.465  0.00  0.00    +0.000 A 
ATOM     12 BR   UNL     1       0.760   9.149  22.328  0.00  0.00    +0.000 Br
ATOM     13  C   UNL     1       1.855   7.995  19.959  0.00  0.00    +0.000 A 
ENDBRANCH   4   7
BRANCH   6  14
ATOM     14  C   UNL     1       5.845   5.331  16.524  0.00  0.00    +0.000 A 
ATOM     15  N   UNL     1       6.255   5.694  15.327  0.00  0.00    +0.000 NA
ATOM     16  N   UNL     1       7.488   5.111  15.151  0.00  0.00    +0.000 NA
ATOM     17  N   UNL     1       7.830   4.392  16.212  0.00  0.00    +0.000 NA
ATOM     18  N   UNL     1       6.808   4.531  17.065  0.00  0.00    +0.000 N 
ATOM     19  H   UNL     1       6.827   4.048  17.953  0.00  0.00    +0.000 HD
ENDBRANCH   6  14
TORSDOF 2
ENDMDL
MODEL 2
REMARK VINA RESULT:      -7.4      3.951      4.378
REMARK  Name = 
REMARK  3 active torsions:
REMARK  status: ('A' for Active; 'I' for Inactive)
REMARK    1  A    between atoms: C_1  and  C_2
REMARK    2  A    between atoms: N_4  and  C_5
REMARK    3  A    between atoms: C_13  and  C_14
REMARK                            x       y       z     vdW  Elec       q    Type
REMARK                         _______ _______ _______ _____ _____    ______ ____
ROOT
ATOM      1  C   UNL     1       7.894   4.801  17.872  0.00  0.00    +0.000 C 
ATOM      2  C   UNL     1       6.509   4.501  17.426  0.00  0.00    +0.000 A 
ATOM      3  N   UNL     1       5.545   4.271  18.325  0.00  0.00    +0.000 NA
ATOM      4  N   UNL     1       4.431   4.005  17.598  0.00  0.00    +0.000 N 
ATOM      5  C   UNL     1       4.682   4.106  16.244  0.00  0.00    +0.000 A 
ATOM      6  C   UNL     1       6.009   4.434  16.109  0.00  0.00    +0.000 A 
ENDROOT
BRANCH   4   7
ATOM      7  C   UNL     1       3.199   3.681  18.234  0.00  0.00    +0.000 A 
ATOM      8  C   UNL     1       1.989   3.705  17.525  0.00  0.00    +0.000 A 
ATOM      9  C   UNL     1       0.791   3.387  18.172  0.00  0.00    +0.000 A 
ATOM     10  C   UNL     1       0.790   3.055  19.524  0.00  0.00    +0.000 A 
ATOM     11  C   UNL     1       1.992   3.031  20.230  0.00  0.00    +0.000 A 
ATOM     12 BR   UNL     1       1.983   2.596  22.070  0.00  0.00    +0.000 Br
ATOM     13  C   UNL     1       3.196   3.334  19.595  0.00  0.00    +0.000 A 
ENDBRANCH   4   7
BRANCH   6  14
ATOM     14  C   UNL     1       6.728   4.663  14.841  0.00  0.00    +0.000 A 
ATOM     15  N   UNL     1       7.698   5.532  14.646  0.00  0.00    +0.000 NA
ATOM     16  N   UNL     1       8.064   5.409  13.327  0.00  0.00    +0.000 NA
ATOM     17  N   UNL     1       7.328   4.492  12.712  0.00  0.00    +0.000 NA
ATOM     18  N   UNL     1       6.498   4.029  13.656  0.00  0.00    +0.000 N 
ATOM     19  H   UNL     1       5.812   3.325  13.420  0.00  0.00    +0.000 HD
ENDBRANCH   6  14
TORSDOF 2
ENDMDL
MODEL 3
REMARK VINA RESULT:      -7.1      1.166      1.655
REMARK  Name = 
REMARK  3 active torsions:
REMARK  status: ('A' for Active; 'I' for Inactive)
REMARK    1  A    between atoms: C_1  and  C_2
REMARK    2  A    between atoms: N_4  and  C_5
REMARK    3  A    between atoms: C_13  and  C_14
REMARK                            x       y       z     vdW  Elec       q    Type
REMARK                         _______ _______ _______ _____ _____    ______ ____
ROOT
ATOM      1  C   UNL     1       3.296   3.309  17.202  0.00  0.00    +0.000 C 
ATOM      2  C   UNL     1       3.452   4.722  17.633  0.00  0.00    +0.000 A 
ATOM      3  N   UNL     1       2.508   5.309  18.379  0.00  0.00    +0.000 NA
ATOM      4  N   UNL     1       2.939   6.581  18.569  0.00  0.00    +0.000 N 
ATOM      5  C   UNL     1       4.170   6.785  17.977  0.00  0.00    +0.000 A 
ATOM      6  C   UNL     1       4.525   5.601  17.378  0.00  0.00    +0.000 A 
ENDROOT
BRANCH   4   7
ATOM      7  C   UNL     1       2.160   7.518  19.305  0.00  0.00    +0.000 A 
ATOM      8  C   UNL     1       1.769   7.256  20.627  0.00  0.00    +0.000 A 
ATOM      9  C   UNL     1       1.000   8.189  21.329  0.00  0.00    +0.000 A 
ATOM     10  C   UNL     1       0.609   9.377  20.718  0.00  0.00    +0.000 A 
ATOM     11  C   UNL     1       0.997   9.639  19.405  0.00  0.00    +0.000 A 
ATOM     12 BR   UNL     1       0.449  11.248  18.575  0.00  0.00    +0.000 Br
ATOM     13  C   UNL     1       1.774   8.723  18.697  0.00  0.00    +0.000 A 
ENDBRANCH   4   7
BRANCH   6  14
ATOM     14  C   UNL     1       5.772   5.337  16.636  0.00  0.00    +0.000 A 
ATOM     15  N   UNL     1       6.139   5.911  15.509  0.00  0.00    +0.000 NA
ATOM     16  N   UNL     1       7.356   5.364  15.179  0.00  0.00    +0.000 NA
ATOM     17  N   UNL     1       7.731   4.461  16.075  0.00  0.00    +0.000 NA
ATOM     18  N   UNL     1       6.746   4.447  16.981  0.00  0.00    +0.000 N 
ATOM     19  H   UNL     1       6.793   3.810  17.765  0.00  0.00    +0.000 HD
ENDBRANCH   6  14
TORSDOF 2
ENDMDL
MODEL 4
REMARK VINA RESULT:      -7.1      0.780      1.129
REMARK  Name = 
REMARK  3 active torsions:
REMARK  status: ('A' for Active; 'I' for Inactive)
REMARK    1  A    between atoms: C_1  and  C_2
REMARK    2  A    between atoms: N_4  and  C_5
REMARK    3  A    between atoms: C_13  and  C_14
REMARK                            x       y       z     vdW  Elec       q    Type
REMARK                         _______ _______ _______ _____ _____    ______ ____
ROOT
ATOM      1  C   UNL     1       4.034   3.446  19.178  0.00  0.00    +0.000 C 
ATOM      2  C   UNL     1       3.900   4.869  18.775  0.00  0.00    +0.000 A 
ATOM      3  N   UNL     1       2.909   5.621  19.267  0.00  0.00    +0.000 NA
ATOM      4  N   UNL     1       3.055   6.837  18.684  0.00  0.00    +0.000 N 
ATOM      5  C   UNL     1       4.158   6.864  17.855  0.00  0.00    +0.000 A 
ATOM      6  C   UNL     1       4.724   5.613  17.905  0.00  0.00    +0.000 A 
ENDROOT
BRANCH   4   7
ATOM      7  C   UNL     1       2.144   7.896  18.957  0.00  0.00    +0.000 A 
ATOM      8  C   UNL     1       1.721   8.768  17.942  0.00  0.00    +0.000 A 
ATOM      9  C   UNL     1       0.828   9.804  18.234  0.00  0.00    +0.000 A 
ATOM     10  C   UNL     1       0.362   9.982  19.534  0.00  0.00    +0.000 A 
ATOM     11  C   UNL     1       0.782   9.117  20.543  0.00  0.00    +0.000 A 
ATOM     12 BR   UNL     1       0.158   9.375  22.310  0.00  0.00    +0.000 Br
ATOM     13  C   UNL     1       1.662   8.072  20.264  0.00  0.00    +0.000 A 
ENDBRANCH   4   7
BRANCH   6  14
ATOM     14  C   UNL     1       5.938   5.175  17.190  0.00  0.00    +0.000 A 
ATOM     15  N   UNL     1       7.042   4.719  17.745  0.00  0.00    +0.000 NA
ATOM     16  N   UNL     1       7.904   4.439  16.710  0.00  0.00    +0.000 NA
ATOM     17  N   UNL     1       7.351   4.726  15.539  0.00  0.00    +0.000 NA
ATOM     18  N   UNL     1       6.128   5.183  15.839  0.00  0.00    +0.000 N 
ATOM     19  H   UNL     1       5.513   5.492  15.100  0.00  0.00    +0.000 HD
ENDBRANCH   6  14
TORSDOF 2
ENDMDL
MODEL 5
REMARK VINA RESULT:      -7.1      1.083      1.093
REMARK  Name = 
REMARK  3 active torsions:
REMARK  status: ('A' for Active; 'I' for Inactive)
REMARK    1  A    between atoms: C_1  and  C_2
REMARK    2  A    between atoms: N_4  and  C_5
REMARK    3  A    between atoms: C_13  and  C_14
REMARK                            x       y       z     vdW  Elec       q    Type
REMARK                         _______ _______ _______ _____ _____    ______ ____
ROOT
ATOM      1  C   UNL     1       4.507   4.266  19.056  0.00  0.00    +0.000 C 
ATOM      2  C   UNL     1       4.033   5.594  18.589  0.00  0.00    +0.000 A 
ATOM      3  N   UNL     1       3.073   6.243  19.258  0.00  0.00    +0.000 NA
ATOM      4  N   UNL     1       2.859   7.388  18.562  0.00  0.00    +0.000 N 
ATOM      5  C   UNL     1       3.709   7.479  17.478  0.00  0.00    +0.000 A 
ATOM      6  C   UNL     1       4.480   6.342  17.480  0.00  0.00    +0.000 A 
ENDROOT
BRANCH   4   7
ATOM      7  C   UNL     1       1.869   8.323  18.975  0.00  0.00    +0.000 A 
ATOM      8  C   UNL     1       1.286   9.213  18.060  0.00  0.00    +0.000 A 
ATOM      9  C   UNL     1       0.318  10.126  18.489  0.00  0.00    +0.000 A 
ATOM     10  C   UNL     1      -0.065  10.165  19.827  0.00  0.00    +0.000 A 
ATOM     11  C   UNL     1       0.513   9.282  20.737  0.00  0.00    +0.000 A 
ATOM     12 BR   UNL     1       0.000   9.351  22.557  0.00  0.00    +0.000 Br
ATOM     13  C   UNL     1       1.471   8.358  20.322  0.00  0.00    +0.000 A 
ENDBRANCH   4   7
BRANCH   6  14
ATOM     14  C   UNL     1       5.544   6.008  16.514  0.00  0.00    +0.000 A 
ATOM     15  N   UNL     1       5.393   5.315  15.404  0.00  0.00    +0.000 NA
ATOM     16  N   UNL     1       6.638   5.244  14.825  0.00  0.00    +0.000 NA
ATOM     17  N   UNL     1       7.544   5.868  15.565  0.00  0.00    +0.000 NA
ATOM     18  N   UNL     1       6.862   6.343  16.615  0.00  0.00    +0.000 N 
ATOM     19  H   UNL     1       7.349   6.847  17.344  0.00  0.00    +0.000 HD
ENDBRANCH   6  14
TORSDOF 2
ENDMDL
MODEL 6
REMARK VINA RESULT:      -7.1      2.752      3.693
REMARK  Name = 
REMARK  3 active torsions:
REMARK  status: ('A' for Active; 'I' for Inactive)
REMARK    1  A    between atoms: C_1  and  C_2
REMARK    2  A    between atoms: N_4  and  C_5
REMARK    3  A    between atoms: C_13  and  C_14
REMARK                            x       y       z     vdW  Elec       q    Type
REMARK                         _______ _______ _______ _____ _____    ______ ____
ROOT
ATOM      1  C   UNL     1       8.266   4.404  17.841  0.00  0.00    +0.000 C 
ATOM      2  C   UNL     1       6.807   4.623  17.671  0.00  0.00    +0.000 A 
ATOM      3  N   UNL     1       6.014   4.764  18.740  0.00  0.00    +0.000 NA
ATOM      4  N   UNL     1       4.761   4.915  18.242  0.00  0.00    +0.000 N 
ATOM      5  C   UNL     1       4.768   4.908  16.862  0.00  0.00    +0.000 A 
ATOM      6  C   UNL     1       6.073   4.732  16.471  0.00  0.00    +0.000 A 
ENDROOT
BRANCH   4   7
ATOM      7  C   UNL     1       3.641   5.064  19.108  0.00  0.00    +0.000 A 
ATOM      8  C   UNL     1       3.000   6.302  19.258  0.00  0.00    +0.000 A 
ATOM      9  C   UNL     1       1.903   6.426  20.116  0.00  0.00    +0.000 A 
ATOM     10  C   UNL     1       1.449   5.323  20.836  0.00  0.00    +0.000 A 
ATOM     11  C   UNL     1       2.086   4.092  20.689  0.00  0.00    +0.000 A 
ATOM     12 BR   UNL     1       1.474   2.603  21.681  0.00  0.00    +0.000 Br
ATOM     13  C   UNL     1       3.172   3.951  19.826  0.00  0.00    +0.000 A 
ENDBRANCH   4   7
BRANCH   6  14
ATOM     14  C   UNL     1       6.569   4.676  15.082  0.00  0.00    +0.000 A 
ATOM     15  N   UNL     1       7.425   5.511  14.531  0.00  0.00    +0.000 NA
ATOM     16  N   UNL     1       7.594   5.086  13.234  0.00  0.00    +0.000 NA
ATOM     17  N   UNL     1       6.849   4.018  12.983  0.00  0.00    +0.000 NA
ATOM     18  N   UNL     1       6.213   3.763  14.133  0.00  0.00    +0.000 N 
ATOM     19  H   UNL     1       5.559   2.995  14.185  0.00  0.00    +0.000 HD
ENDBRANCH   6  14
TORSDOF 2
ENDMDL
MODEL 7
REMARK VINA RESULT:      -7.1      3.640      7.095
REMARK  Name = 
REMARK  3 active torsions:
REMARK  status: ('A' for Active; 'I' for Inactive)
REMARK    1  A    between atoms: C_1  and  C_2
REMARK    2  A    between atoms: N_4  and  C_5
REMARK    3  A    between atoms: C_13  and  C_14
REMARK                            x       y       z     vdW  Elec       q    Type
REMARK                         _______ _______ _______ _____ _____    ______ ____
ROOT
ATOM      1  C   UNL     1       1.286  10.292  18.520  0.00  0.00    +0.000 C 
ATOM      2  C   UNL     1       1.708   8.916  18.888  0.00  0.00    +0.000 A 
ATOM      3  N   UNL     1       2.334   8.140  17.996  0.00  0.00    +0.000 NA
ATOM      4  N   UNL     1       2.549   6.961  18.631  0.00  0.00    +0.000 N 
ATOM      5  C   UNL     1       2.094   7.006  19.934  0.00  0.00    +0.000 A 
ATOM      6  C   UNL     1       1.558   8.257  20.126  0.00  0.00    +0.000 A 
ENDROOT
BRANCH   4   7
ATOM      7  C   UNL     1       3.179   5.872  17.965  0.00  0.00    +0.000 A 
ATOM      8  C   UNL     1       2.545   4.625  17.857  0.00  0.00    +0.000 A 
ATOM      9  C   UNL     1       3.184   3.568  17.201  0.00  0.00    +0.000 A 
ATOM     10  C   UNL     1       4.456   3.744  16.662  0.00  0.00    +0.000 A 
ATOM     11  C   UNL     1       5.087   4.982  16.770  0.00  0.00    +0.000 A 
ATOM     12 BR   UNL     1       6.821   5.210  16.050  0.00  0.00    +0.000 Br
ATOM     13  C   UNL     1       4.457   6.048  17.410  0.00  0.00    +0.000 A 
ENDBRANCH   4   7
BRANCH   6  14
ATOM     14  C   UNL     1       0.963   8.770  21.375  0.00  0.00    +0.000 A 
ATOM     15  N   UNL     1      -0.321   8.946  21.606  0.00  0.00    +0.000 NA
ATOM     16  N   UNL     1      -0.416   9.442  22.885  0.00  0.00    +0.000 NA
ATOM     17  N   UNL     1       0.785   9.582  23.431  0.00  0.00    +0.000 NA
ATOM     18  N   UNL     1       1.641   9.163  22.491  0.00  0.00    +0.000 N 
ATOM     19  H   UNL     1       2.636   9.196  22.667  0.00  0.00    +0.000 HD
ENDBRANCH   6  14
TORSDOF 2
ENDMDL
MODEL 8
REMARK VINA RESULT:      -6.9      2.423      3.432
REMARK  Name = 
REMARK  3 active torsions:
REMARK  status: ('A' for Active; 'I' for Inactive)
REMARK    1  A    between atoms: C_1  and  C_2
REMARK    2  A    between atoms: N_4  and  C_5
REMARK    3  A    between atoms: C_13  and  C_14
REMARK                            x       y       z     vdW  Elec       q    Type
REMARK                         _______ _______ _______ _____ _____    ______ ____
ROOT
ATOM      1  C   UNL     1       8.006   4.824  18.190  0.00  0.00    +0.000 C 
ATOM      2  C   UNL     1       6.547   4.827  17.908  0.00  0.00    +0.000 A 
ATOM      3  N   UNL     1       5.665   4.875  18.913  0.00  0.00    +0.000 NA
ATOM      4  N   UNL     1       4.444   4.835  18.323  0.00  0.00    +0.000 N 
ATOM      5  C   UNL     1       4.555   4.801  16.947  0.00  0.00    +0.000 A 
ATOM      6  C   UNL     1       5.898   4.806  16.656  0.00  0.00    +0.000 A 
ENDROOT
BRANCH   4   7
ATOM      7  C   UNL     1       3.252   4.838  19.102  0.00  0.00    +0.000 A 
ATOM      8  C   UNL     1       2.509   3.665  19.294  0.00  0.00    +0.000 A 
ATOM      9  C   UNL     1       1.339   3.693  20.060  0.00  0.00    +0.000 A 
ATOM     10  C   UNL     1       0.899   4.887  20.625  0.00  0.00    +0.000 A 
ATOM     11  C   UNL     1       1.637   6.054  20.433  0.00  0.00    +0.000 A 
ATOM     12 BR   UNL     1       1.026   7.677  21.190  0.00  0.00    +0.000 Br
ATOM     13  C   UNL     1       2.812   6.039  19.683  0.00  0.00    +0.000 A 
ENDBRANCH   4   7
BRANCH   6  14
ATOM     14  C   UNL     1       6.499   4.794  15.309  0.00  0.00    +0.000 A 
ATOM     15  N   UNL     1       6.138   4.021  14.306  0.00  0.00    +0.000 NA
ATOM     16  N   UNL     1       6.966   4.343  13.256  0.00  0.00    +0.000 NA
ATOM     17  N   UNL     1       7.830   5.287  13.604  0.00  0.00    +0.000 NA
ATOM     18  N   UNL     1       7.538   5.567  14.881  0.00  0.00    +0.000 N 
ATOM     19  H   UNL     1       8.085   6.253  15.382  0.00  0.00    +0.000 HD
ENDBRANCH   6  14
TORSDOF 2
ENDMDL
MODEL 9
REMARK VINA RESULT:      -6.8      3.750      4.230
REMARK  Name = 
REMARK  3 active torsions:
REMARK  status: ('A' for Active; 'I' for Inactive)
REMARK    1  A    between atoms: C_1  and  C_2
REMARK    2  A    between atoms: N_4  and  C_5
REMARK    3  A    between atoms: C_13  and  C_14
REMARK                            x       y       z     vdW  Elec       q    Type
REMARK                         _______ _______ _______ _____ _____    ______ ____
ROOT
ATOM      1  C   UNL     1       6.996   6.792  17.399  0.00  0.00    +0.000 C 
ATOM      2  C   UNL     1       5.944   5.783  17.111  0.00  0.00    +0.000 A 
ATOM      3  N   UNL     1       4.966   5.554  17.996  0.00  0.00    +0.000 NA
ATOM      4  N   UNL     1       4.206   4.574  17.448  0.00  0.00    +0.000 N 
ATOM      5  C   UNL     1       4.679   4.212  16.202  0.00  0.00    +0.000 A 
ATOM      6  C   UNL     1       5.790   4.984  15.959  0.00  0.00    +0.000 A 
ENDROOT
BRANCH   4   7
ATOM      7  C   UNL     1       3.075   4.050  18.136  0.00  0.00    +0.000 A 
ATOM      8  C   UNL     1       1.840   3.896  17.490  0.00  0.00    +0.000 A 
ATOM      9  C   UNL     1       0.743   3.382  18.188  0.00  0.00    +0.000 A 
ATOM     10  C   UNL     1       0.867   3.031  19.530  0.00  0.00    +0.000 A 
ATOM     11  C   UNL     1       2.093   3.184  20.173  0.00  0.00    +0.000 A 
ATOM     12 BR   UNL     1       2.252   2.720  22.000  0.00  0.00    +0.000 Br
ATOM     13  C   UNL     1       3.200   3.683  19.486  0.00  0.00    +0.000 A 
ENDBRANCH   4   7
BRANCH   6  14
ATOM     14  C   UNL     1       6.622   4.958  14.741  0.00  0.00    +0.000 A 
ATOM     15  N   UNL     1       6.351   4.302  13.632  0.00  0.00    +0.000 NA
ATOM     16  N   UNL     1       7.392   4.557  12.771  0.00  0.00    +0.000 NA
ATOM     17  N   UNL     1       8.296   5.345  13.338  0.00  0.00    +0.000 NA
ATOM     18  N   UNL     1       7.815   5.594  14.563  0.00  0.00    +0.000 N 
ATOM     19  H   UNL     1       8.347   6.165  15.205  0.00  0.00    +0.000 HD
ENDBRANCH   6  14
TORSDOF 2
ENDMDL
