MODEL 1
REMARK VINA RESULT:      -7.8      0.000      0.000
REMARK  Name = 
REMARK  8 active torsions:
REMARK  status: ('A' for Active; 'I' for Inactive)
REMARK    1  A    between atoms: C_1  and  C_2
REMARK    2  A    between atoms: C_2  and  O_3
REMARK    3  A    between atoms: O_3  and  C_4
REMARK    4  A    between atoms: C_4  and  C_6
REMARK    5  A    between atoms: C_11  and  N_12
REMARK    6  A    between atoms: C_13  and  C_15
REMARK    7  A    between atoms: C_16  and  N_17
REMARK    8  A    between atoms: N_18  and  C_19
REMARK                            x       y       z     vdW  Elec       q    Type
REMARK                         _______ _______ _______ _____ _____    ______ ____
ROOT
ATOM      1  N   UNL     1       4.924   3.627  16.273  0.00  0.00    +0.000 N 
ATOM      2  C   UNL     1       4.251   4.520  17.100  0.00  0.00    +0.000 C 
ATOM      3  O   UNL     1       4.070   5.710  16.837  0.00  0.00    +0.000 OA
ATOM      4  H   UNL     1       4.852   2.629  16.494  0.00  0.00    +0.000 HD
ENDROOT
BRANCH   2   5
ATOM      5  C   UNL     1       3.671   3.960  18.377  0.00  0.00    +0.000 A 
ATOM      6  C   UNL     1       2.322   3.876  18.559  0.00  0.00    +0.000 A 
ATOM      7  N   UNL     1       1.819   3.360  19.759  0.00  0.00    +0.000 N 
ATOM      8  C   UNL     1       0.397   3.380  20.087  0.00  0.00    +0.000 C 
ATOM      9  C   UNL     1       2.631   2.860  20.764  0.00  0.00    +0.000 A 
ATOM     10  O   UNL     1       2.218   2.430  21.839  0.00  0.00    +0.000 OA
ATOM     11  N   UNL     1       3.964   2.873  20.522  0.00  0.00    +0.000 N 
ATOM     12  C   UNL     1       4.552   3.471  19.457  0.00  0.00    +0.000 A 
ATOM     13  O   UNL     1       5.776   3.589  19.408  0.00  0.00    +0.000 OA
ATOM     14  H   UNL     1       4.559   2.554  21.271  0.00  0.00    +0.000 HD
BRANCH   6  15
ATOM     15  N   UNL     1       1.416   4.305  17.593  0.00  0.00    +0.000 N 
ATOM     16  H   UNL     1       1.610   5.269  17.285  0.00  0.00    +0.000 HD
ATOM     17  H   UNL     1       1.382   3.693  16.782  0.00  0.00    +0.000 HD
ENDBRANCH   6  15
ENDBRANCH   2   5
BRANCH   1  23
ATOM     18  C   UNL     1       6.833   4.701  15.097  0.00  0.00    +0.000 A 
ATOM     19  C   UNL     1       7.518   4.966  13.889  0.00  0.00    +0.000 A 
ATOM     20  C   UNL     1       7.036   4.507  12.668  0.00  0.00    +0.000 A 
ATOM     21  C   UNL     1       5.853   3.787  12.638  0.00  0.00    +0.000 A 
ATOM     22  C   UNL     1       5.160   3.524  13.824  0.00  0.00    +0.000 A 
ATOM     23  C   UNL     1       5.636   3.949  15.079  0.00  0.00    +0.000 A 
BRANCH  18  24
ATOM     24  C   UNL     1       7.545   5.190  16.306  0.00  0.00    +0.000 C 
ATOM     25  O   UNL     1       8.051   4.428  17.118  0.00  0.00    +0.000 OA
BRANCH  24  26
ATOM     26  O   UNL     1       7.627   6.542  16.346  0.00  0.00    +0.000 OA
BRANCH  26  28
ATOM     27  C   UNL     1       7.921   8.550  17.704  0.00  0.00    +0.000 C 
ATOM     28  C   UNL     1       7.446   7.107  17.658  0.00  0.00    +0.000 C 
ENDBRANCH  26  28
ENDBRANCH  24  26
ENDBRANCH  18  24
ENDBRANCH   1  23
TORSDOF 6
ENDMDL
MODEL 2
REMARK VINA RESULT:      -7.6      0.946      1.928
REMARK  Name = 
REMARK  8 active torsions:
REMARK  status: ('A' for Active; 'I' for Inactive)
REMARK    1  A    between atoms: C_1  and  C_2
REMARK    2  A    between atoms: C_2  and  O_3
REMARK    3  A    between atoms: O_3  and  C_4
REMARK    4  A    between atoms: C_4  and  C_6
REMARK    5  A    between atoms: C_11  and  N_12
REMARK    6  A    between atoms: C_13  and  C_15
REMARK    7  A    between atoms: C_16  and  N_17
REMARK    8  A    between atoms: N_18  and  C_19
REMARK                            x       y       z     vdW  Elec       q    Type
REMARK                         _______ _______ _______ _____ _____    ______ ____
ROOT
ATOM      1  N   UNL     1       4.806   3.702  16.017  0.00  0.00    +0.000 N 
ATOM      2  C   UNL     1       4.184   4.581  16.896  0.00  0.00    +0.000 C 
ATOM      3  O   UNL     1       4.177   5.807  16.767  0.00  0.00    +0.000 OA
ATOM      4  H   UNL     1       4.591   2.705  16.111  0.00  0.00    +0.000 HD
ENDROOT
BRANCH   2   5
ATOM      5  C   UNL     1       3.431   3.968  18.054  0.00  0.00    +0.000 A 
ATOM      6  C   UNL     1       4.094   3.401  19.102  0.00  0.00    +0.000 A 
ATOM      7  N   UNL     1       3.364   2.835  20.153  0.00  0.00    +0.000 N 
ATOM      8  C   UNL     1       3.997   2.078  21.230  0.00  0.00    +0.000 C 
ATOM      9  C   UNL     1       1.981   2.878  20.220  0.00  0.00    +0.000 A 
ATOM     10  O   UNL     1       1.314   2.362  21.115  0.00  0.00    +0.000 OA
ATOM     11  N   UNL     1       1.350   3.525  19.211  0.00  0.00    +0.000 N 
ATOM     12  C   UNL     1       1.954   3.984  18.088  0.00  0.00    +0.000 A 
ATOM     13  O   UNL     1       1.282   4.399  17.145  0.00  0.00    +0.000 OA
ATOM     14  H   UNL     1       0.342   3.516  19.234  0.00  0.00    +0.000 HD
BRANCH   6  15
ATOM     15  N   UNL     1       5.484   3.348  19.159  0.00  0.00    +0.000 N 
ATOM     16  H   UNL     1       5.887   2.921  18.312  0.00  0.00    +0.000 HD
ATOM     17  H   UNL     1       5.910   4.258  19.311  0.00  0.00    +0.000 HD
ENDBRANCH   6  15
ENDBRANCH   2   5
BRANCH   1  23
ATOM     18  C   UNL     1       6.843   4.794  15.101  0.00  0.00    +0.000 A 
ATOM     19  C   UNL     1       7.663   5.091  13.987  0.00  0.00    +0.000 A 
ATOM     20  C   UNL     1       7.321   4.674  12.705  0.00  0.00    +0.000 A 
ATOM     21  C   UNL     1       6.145   3.966  12.518  0.00  0.00    +0.000 A 
ATOM     22  C   UNL     1       5.319   3.673  13.609  0.00  0.00    +0.000 A 
ATOM     23  C   UNL     1       5.652   4.055  14.922  0.00  0.00    +0.000 A 
BRANCH  18  24
ATOM     24  C   UNL     1       7.415   5.240  16.397  0.00  0.00    +0.000 C 
ATOM     25  O   UNL     1       7.768   4.448  17.261  0.00  0.00    +0.000 OA
BRANCH  24  26
ATOM     26  O   UNL     1       7.564   6.585  16.462  0.00  0.00    +0.000 OA
BRANCH  26  28
ATOM     27  C   UNL     1       7.959   8.595  17.791  0.00  0.00    +0.000 C 
ATOM     28  C   UNL     1       7.659   7.105  17.802  0.00  0.00    +0.000 C 
ENDBRANCH  26  28
ENDBRANCH  24  26
ENDBRANCH  18  24
ENDBRANCH   1  23
TORSDOF 6
ENDMDL
MODEL 3
REMARK VINA RESULT:      -7.5      3.883      5.140
REMARK  Name = 
REMARK  8 active torsions:
REMARK  status: ('A' for Active; 'I' for Inactive)
REMARK    1  A    between atoms: C_1  and  C_2
REMARK    2  A    between atoms: C_2  and  O_3
REMARK    3  A    between atoms: O_3  and  C_4
REMARK    4  A    between atoms: C_4  and  C_6
REMARK    5  A    between atoms: C_11  and  N_12
REMARK    6  A    between atoms: C_13  and  C_15
REMARK    7  A    between atoms: C_16  and  N_17
REMARK    8  A    between atoms: N_18  and  C_19
REMARK                            x       y       z     vdW  Elec       q    Type
REMARK                         _______ _______ _______ _____ _____    ______ ____
ROOT
ATOM      1  N   UNL     1       4.148   7.118  17.875  0.00  0.00    +0.000 N 
ATOM      2  C   UNL     1       2.826   6.884  18.233  0.00  0.00    +0.000 C 
ATOM      3  O   UNL     1       2.232   5.820  18.046  0.00  0.00    +0.000 OA
ATOM      4  H   UNL     1       4.598   7.962  18.246  0.00  0.00    +0.000 HD
ENDROOT
BRANCH   2   5
ATOM      5  C   UNL     1       2.102   8.005  18.942  0.00  0.00    +0.000 A 
ATOM      6  C   UNL     1       1.688   7.869  20.234  0.00  0.00    +0.000 A 
ATOM      7  N   UNL     1       1.013   8.925  20.856  0.00  0.00    +0.000 N 
ATOM      8  C   UNL     1       0.408   8.800  22.178  0.00  0.00    +0.000 C 
ATOM      9  C   UNL     1       0.796  10.148  20.240  0.00  0.00    +0.000 A 
ATOM     10  O   UNL     1       0.180  11.081  20.752  0.00  0.00    +0.000 OA
ATOM     11  N   UNL     1       1.296  10.289  18.989  0.00  0.00    +0.000 N 
ATOM     12  C   UNL     1       1.841   9.288  18.256  0.00  0.00    +0.000 A 
ATOM     13  O   UNL     1       2.105   9.460  17.067  0.00  0.00    +0.000 OA
ATOM     14  H   UNL     1       1.097  11.160  18.523  0.00  0.00    +0.000 HD
BRANCH   6  15
ATOM     15  N   UNL     1       1.899   6.700  20.961  0.00  0.00    +0.000 N 
ATOM     16  H   UNL     1       1.093   6.470  21.560  0.00  0.00    +0.000 HD
ATOM     17  H   UNL     1       2.119   5.902  20.372  0.00  0.00    +0.000 HD
ENDBRANCH   6  15
ENDBRANCH   2   5
BRANCH   1  23
ATOM     18  C   UNL     1       5.804   5.270  17.721  0.00  0.00    +0.000 A 
ATOM     19  C   UNL     1       6.594   4.415  16.920  0.00  0.00    +0.000 A 
ATOM     20  C   UNL     1       6.593   4.517  15.533  0.00  0.00    +0.000 A 
ATOM     21  C   UNL     1       5.811   5.488  14.929  0.00  0.00    +0.000 A 
ATOM     22  C   UNL     1       5.031   6.348  15.710  0.00  0.00    +0.000 A 
ATOM     23  C   UNL     1       4.988   6.251  17.113  0.00  0.00    +0.000 A 
BRANCH  18  24
ATOM     24  C   UNL     1       5.864   4.953  19.171  0.00  0.00    +0.000 C 
ATOM     25  O   UNL     1       6.855   5.189  19.850  0.00  0.00    +0.000 OA
BRANCH  24  26
ATOM     26  O   UNL     1       4.693   4.463  19.642  0.00  0.00    +0.000 OA
BRANCH  26  28
ATOM     27  C   UNL     1       3.476   2.604  18.629  0.00  0.00    +0.000 C 
ATOM     28  C   UNL     1       4.584   3.028  19.579  0.00  0.00    +0.000 C 
ENDBRANCH  26  28
ENDBRANCH  24  26
ENDBRANCH  18  24
ENDBRANCH   1  23
TORSDOF 6
ENDMDL
MODEL 4
REMARK VINA RESULT:      -7.4      4.860      6.467
REMARK  Name = 
REMARK  8 active torsions:
REMARK  status: ('A' for Active; 'I' for Inactive)
REMARK    1  A    between atoms: C_1  and  C_2
REMARK    2  A    between atoms: C_2  and  O_3
REMARK    3  A    between atoms: O_3  and  C_4
REMARK    4  A    between atoms: C_4  and  C_6
REMARK    5  A    between atoms: C_11  and  N_12
REMARK    6  A    between atoms: C_13  and  C_15
REMARK    7  A    between atoms: C_16  and  N_17
REMARK    8  A    between atoms: N_18  and  C_19
REMARK                            x       y       z     vdW  Elec       q    Type
REMARK                         _______ _______ _______ _____ _____    ______ ____
ROOT
ATOM      1  N   UNL     1       2.839   7.203  18.912  0.00  0.00    +0.000 N 
ATOM      2  C   UNL     1       1.937   8.208  18.580  0.00  0.00    +0.000 C 
ATOM      3  O   UNL     1       1.561   8.454  17.433  0.00  0.00    +0.000 OA
ATOM      4  H   UNL     1       2.935   6.961  19.904  0.00  0.00    +0.000 HD
ENDROOT
BRANCH   2   5
ATOM      5  C   UNL     1       1.356   9.008  19.723  0.00  0.00    +0.000 A 
ATOM      6  C   UNL     1       1.133  10.348  19.601  0.00  0.00    +0.000 A 
ATOM      7  N   UNL     1       0.602  11.058  20.683  0.00  0.00    +0.000 N 
ATOM      8  C   UNL     1       0.477  12.513  20.682  0.00  0.00    +0.000 C 
ATOM      9  C   UNL     1       0.223  10.453  21.871  0.00  0.00    +0.000 A 
ATOM     10  O   UNL     1      -0.217  11.056  22.847  0.00  0.00    +0.000 OA
ATOM     11  N   UNL     1       0.371   9.108  21.934  0.00  0.00    +0.000 N 
ATOM     12  C   UNL     1       0.998   8.353  20.998  0.00  0.00    +0.000 A 
ATOM     13  O   UNL     1       1.246   7.169  21.218  0.00  0.00    +0.000 OA
ATOM     14  H   UNL     1       0.141   8.672  22.813  0.00  0.00    +0.000 HD
BRANCH   6  15
ATOM     15  N   UNL     1       1.432  11.046  18.434  0.00  0.00    +0.000 N 
ATOM     16  H   UNL     1       2.040  10.501  17.806  0.00  0.00    +0.000 HD
ATOM     17  H   UNL     1       0.603  11.343  17.926  0.00  0.00    +0.000 HD
ENDBRANCH   6  15
ENDBRANCH   2   5
BRANCH   1  23
ATOM     18  C   UNL     1       3.225   5.062  17.710  0.00  0.00    +0.000 A 
ATOM     19  C   UNL     1       3.979   4.316  16.775  0.00  0.00    +0.000 A 
ATOM     20  C   UNL     1       5.081   4.866  16.131  0.00  0.00    +0.000 A 
ATOM     21  C   UNL     1       5.453   6.167  16.424  0.00  0.00    +0.000 A 
ATOM     22  C   UNL     1       4.722   6.915  17.354  0.00  0.00    +0.000 A 
ATOM     23  C   UNL     1       3.585   6.398  18.001  0.00  0.00    +0.000 A 
BRANCH  18  24
ATOM     24  C   UNL     1       2.032   4.341  18.226  0.00  0.00    +0.000 C 
ATOM     25  O   UNL     1       1.212   3.821  17.481  0.00  0.00    +0.000 OA
BRANCH  24  26
ATOM     26  O   UNL     1       2.017   4.267  19.578  0.00  0.00    +0.000 OA
BRANCH  26  28
ATOM     27  C   UNL     1       1.381   2.821  21.440  0.00  0.00    +0.000 C 
ATOM     28  C   UNL     1       0.968   3.438  20.113  0.00  0.00    +0.000 C 
ENDBRANCH  26  28
ENDBRANCH  24  26
ENDBRANCH  18  24
ENDBRANCH   1  23
TORSDOF 6
ENDMDL
MODEL 5
REMARK VINA RESULT:      -7.4      3.533      4.347
REMARK  Name = 
REMARK  8 active torsions:
REMARK  status: ('A' for Active; 'I' for Inactive)
REMARK    1  A    between atoms: C_1  and  C_2
REMARK    2  A    between atoms: C_2  and  O_3
REMARK    3  A    between atoms: O_3  and  C_4
REMARK    4  A    between atoms: C_4  and  C_6
REMARK    5  A    between atoms: C_11  and  N_12
REMARK    6  A    between atoms: C_13  and  C_15
REMARK    7  A    between atoms: C_16  and  N_17
REMARK    8  A    between atoms: N_18  and  C_19
REMARK                            x       y       z     vdW  Elec       q    Type
REMARK                         _______ _______ _______ _____ _____    ______ ____
ROOT
ATOM      1  N   UNL     1       4.391   6.806  17.658  0.00  0.00    +0.000 N 
ATOM      2  C   UNL     1       3.209   6.437  18.291  0.00  0.00    +0.000 C 
ATOM      3  O   UNL     1       2.823   5.274  18.422  0.00  0.00    +0.000 OA
ATOM      4  H   UNL     1       4.708   7.774  17.772  0.00  0.00    +0.000 HD
ENDROOT
BRANCH   2   5
ATOM      5  C   UNL     1       2.383   7.550  18.894  0.00  0.00    +0.000 A 
ATOM      6  C   UNL     1       1.870   7.443  20.153  0.00  0.00    +0.000 A 
ATOM      7  N   UNL     1       1.102   8.489  20.675  0.00  0.00    +0.000 N 
ATOM      8  C   UNL     1       0.397   8.384  21.949  0.00  0.00    +0.000 C 
ATOM      9  C   UNL     1       0.885   9.677  19.996  0.00  0.00    +0.000 A 
ATOM     10  O   UNL     1       0.191  10.599  20.419  0.00  0.00    +0.000 OA
ATOM     11  N   UNL     1       1.480   9.795  18.785  0.00  0.00    +0.000 N 
ATOM     12  C   UNL     1       2.125   8.793  18.139  0.00  0.00    +0.000 A 
ATOM     13  O   UNL     1       2.478   8.934  16.969  0.00  0.00    +0.000 OA
ATOM     14  H   UNL     1       1.283  10.639  18.270  0.00  0.00    +0.000 HD
BRANCH   6  15
ATOM     15  N   UNL     1       2.070   6.311  20.940  0.00  0.00    +0.000 N 
ATOM     16  H   UNL     1       2.969   6.348  21.443  0.00  0.00    +0.000 HD
ATOM     17  H   UNL     1       1.318   6.154  21.606  0.00  0.00    +0.000 HD
ENDBRANCH   6  15
ENDBRANCH   2   5
BRANCH   1  23
ATOM     18  C   UNL     1       6.548   5.592  17.424  0.00  0.00    +0.000 A 
ATOM     19  C   UNL     1       7.368   4.710  16.684  0.00  0.00    +0.000 A 
ATOM     20  C   UNL     1       6.948   4.179  15.469  0.00  0.00    +0.000 A 
ATOM     21  C   UNL     1       5.705   4.535  14.972  0.00  0.00    +0.000 A 
ATOM     22  C   UNL     1       4.886   5.413  15.689  0.00  0.00    +0.000 A 
ATOM     23  C   UNL     1       5.269   5.945  16.935  0.00  0.00    +0.000 A 
BRANCH  18  24
ATOM     24  C   UNL     1       7.125   5.983  18.736  0.00  0.00    +0.000 C 
ATOM     25  O   UNL     1       6.761   5.472  19.787  0.00  0.00    +0.000 OA
BRANCH  24  26
ATOM     26  O   UNL     1       8.126   6.886  18.612  0.00  0.00    +0.000 OA
BRANCH  26  28
ATOM     27  C   UNL     1       8.516   9.274  18.284  0.00  0.00    +0.000 C 
ATOM     28  C   UNL     1       7.796   8.028  17.798  0.00  0.00    +0.000 C 
ENDBRANCH  26  28
ENDBRANCH  24  26
ENDBRANCH  18  24
ENDBRANCH   1  23
TORSDOF 6
ENDMDL
MODEL 6
REMARK VINA RESULT:      -7.3      4.182      5.971
REMARK  Name = 
REMARK  8 active torsions:
REMARK  status: ('A' for Active; 'I' for Inactive)
REMARK    1  A    between atoms: C_1  and  C_2
REMARK    2  A    between atoms: C_2  and  O_3
REMARK    3  A    between atoms: O_3  and  C_4
REMARK    4  A    between atoms: C_4  and  C_6
REMARK    5  A    between atoms: C_11  and  N_12
REMARK    6  A    between atoms: C_13  and  C_15
REMARK    7  A    between atoms: C_16  and  N_17
REMARK    8  A    between atoms: N_18  and  C_19
REMARK                            x       y       z     vdW  Elec       q    Type
REMARK                         _______ _______ _______ _____ _____    ______ ____
ROOT
ATOM      1  N   UNL     1       2.146   6.192  18.116  0.00  0.00    +0.000 N 
ATOM      2  C   UNL     1       2.253   6.969  19.264  0.00  0.00    +0.000 C 
ATOM      3  O   UNL     1       2.718   6.571  20.333  0.00  0.00    +0.000 OA
ATOM      4  H   UNL     1       1.925   6.672  17.237  0.00  0.00    +0.000 HD
ENDROOT
BRANCH   2   5
ATOM      5  C   UNL     1       1.807   8.409  19.156  0.00  0.00    +0.000 A 
ATOM      6  C   UNL     1       1.127   9.013  20.172  0.00  0.00    +0.000 A 
ATOM      7  N   UNL     1       0.723  10.345  20.035  0.00  0.00    +0.000 N 
ATOM      8  C   UNL     1      -0.137  11.009  21.010  0.00  0.00    +0.000 C 
ATOM      9  C   UNL     1       1.038  11.119  18.929  0.00  0.00    +0.000 A 
ATOM     10  O   UNL     1       0.671  12.281  18.769  0.00  0.00    +0.000 OA
ATOM     11  N   UNL     1       1.792  10.523  17.974  0.00  0.00    +0.000 N 
ATOM     12  C   UNL     1       2.116   9.207  17.952  0.00  0.00    +0.000 A 
ATOM     13  O   UNL     1       2.649   8.715  16.959  0.00  0.00    +0.000 OA
ATOM     14  H   UNL     1       1.982  11.069  17.148  0.00  0.00    +0.000 HD
BRANCH   6  15
ATOM     15  N   UNL     1       0.801   8.341  21.348  0.00  0.00    +0.000 N 
ATOM     16  H   UNL     1       0.214   8.917  21.969  0.00  0.00    +0.000 HD
ATOM     17  H   UNL     1       0.341   7.450  21.180  0.00  0.00    +0.000 HD
ENDBRANCH   6  15
ENDBRANCH   2   5
BRANCH   1  23
ATOM     18  C   UNL     1       3.624   4.291  17.499  0.00  0.00    +0.000 A 
ATOM     19  C   UNL     1       3.846   2.896  17.446  0.00  0.00    +0.000 A 
ATOM     20  C   UNL     1       2.883   1.993  17.885  0.00  0.00    +0.000 A 
ATOM     21  C   UNL     1       1.678   2.475  18.370  0.00  0.00    +0.000 A 
ATOM     22  C   UNL     1       1.442   3.853  18.420  0.00  0.00    +0.000 A 
ATOM     23  C   UNL     1       2.406   4.793  18.012  0.00  0.00    +0.000 A 
BRANCH  18  24
ATOM     24  C   UNL     1       4.797   5.098  17.075  0.00  0.00    +0.000 C 
ATOM     25  O   UNL     1       4.715   6.296  16.843  0.00  0.00    +0.000 OA
BRANCH  24  26
ATOM     26  O   UNL     1       5.943   4.376  17.059  0.00  0.00    +0.000 OA
BRANCH  26  28
ATOM     27  C   UNL     1       6.182   3.950  14.666  0.00  0.00    +0.000 C 
ATOM     28  C   UNL     1       6.772   4.607  15.903  0.00  0.00    +0.000 C 
ENDBRANCH  26  28
ENDBRANCH  24  26
ENDBRANCH  18  24
ENDBRANCH   1  23
TORSDOF 6
ENDMDL
MODEL 7
REMARK VINA RESULT:      -7.3      4.202      5.853
REMARK  Name = 
REMARK  8 active torsions:
REMARK  status: ('A' for Active; 'I' for Inactive)
REMARK    1  A    between atoms: C_1  and  C_2
REMARK    2  A    between atoms: C_2  and  O_3
REMARK    3  A    between atoms: O_3  and  C_4
REMARK    4  A    between atoms: C_4  and  C_6
REMARK    5  A    between atoms: C_11  and  N_12
REMARK    6  A    between atoms: C_13  and  C_15
REMARK    7  A    between atoms: C_16  and  N_17
REMARK    8  A    between atoms: N_18  and  C_19
REMARK                            x       y       z     vdW  Elec       q    Type
REMARK                         _______ _______ _______ _____ _____    ______ ____
ROOT
ATOM      1  N   UNL     1       2.164   6.175  18.121  0.00  0.00    +0.000 N 
ATOM      2  C   UNL     1       2.270   6.958  19.264  0.00  0.00    +0.000 C 
ATOM      3  O   UNL     1       2.736   6.566  20.335  0.00  0.00    +0.000 OA
ATOM      4  H   UNL     1       1.942   6.650  17.239  0.00  0.00    +0.000 HD
ENDROOT
BRANCH   2   5
ATOM      5  C   UNL     1       1.821   8.396  19.150  0.00  0.00    +0.000 A 
ATOM      6  C   UNL     1       1.136   9.002  20.162  0.00  0.00    +0.000 A 
ATOM      7  N   UNL     1       0.728  10.333  20.018  0.00  0.00    +0.000 N 
ATOM      8  C   UNL     1      -0.135  10.999  20.988  0.00  0.00    +0.000 C 
ATOM      9  C   UNL     1       1.045  11.103  18.910  0.00  0.00    +0.000 A 
ATOM     10  O   UNL     1       0.674  12.263  18.743  0.00  0.00    +0.000 OA
ATOM     11  N   UNL     1       1.802  10.505  17.958  0.00  0.00    +0.000 N 
ATOM     12  C   UNL     1       2.129   9.190  17.942  0.00  0.00    +0.000 A 
ATOM     13  O   UNL     1       2.666   8.695  16.953  0.00  0.00    +0.000 OA
ATOM     14  H   UNL     1       1.992  11.048  17.131  0.00  0.00    +0.000 HD
BRANCH   6  15
ATOM     15  N   UNL     1       0.809   8.334  21.339  0.00  0.00    +0.000 N 
ATOM     16  H   UNL     1       1.613   8.273  21.982  0.00  0.00    +0.000 HD
ATOM     17  H   UNL     1       0.021   8.751  21.826  0.00  0.00    +0.000 HD
ENDBRANCH   6  15
ENDBRANCH   2   5
BRANCH   1  23
ATOM     18  C   UNL     1       3.681   4.275  17.603  0.00  0.00    +0.000 A 
ATOM     19  C   UNL     1       3.903   2.879  17.553  0.00  0.00    +0.000 A 
ATOM     20  C   UNL     1       2.906   1.975  17.906  0.00  0.00    +0.000 A 
ATOM     21  C   UNL     1       1.669   2.457  18.301  0.00  0.00    +0.000 A 
ATOM     22  C   UNL     1       1.432   3.835  18.346  0.00  0.00    +0.000 A 
ATOM     23  C   UNL     1       2.428   4.776  18.023  0.00  0.00    +0.000 A 
BRANCH  18  24
ATOM     24  C   UNL     1       4.886   5.081  17.279  0.00  0.00    +0.000 C 
ATOM     25  O   UNL     1       4.828   6.097  16.599  0.00  0.00    +0.000 OA
BRANCH  24  26
ATOM     26  O   UNL     1       6.003   4.608  17.881  0.00  0.00    +0.000 OA
BRANCH  26  28
ATOM     27  C   UNL     1       7.710   6.111  18.771  0.00  0.00    +0.000 C 
ATOM     28  C   UNL     1       6.415   5.360  19.038  0.00  0.00    +0.000 C 
ENDBRANCH  26  28
ENDBRANCH  24  26
ENDBRANCH  18  24
ENDBRANCH   1  23
TORSDOF 6
ENDMDL
MODEL 8
REMARK VINA RESULT:      -6.9      1.233      1.306
REMARK  Name = 
REMARK  8 active torsions:
REMARK  status: ('A' for Active; 'I' for Inactive)
REMARK    1  A    between atoms: C_1  and  C_2
REMARK    2  A    between atoms: C_2  and  O_3
REMARK    3  A    between atoms: O_3  and  C_4
REMARK    4  A    between atoms: C_4  and  C_6
REMARK    5  A    between atoms: C_11  and  N_12
REMARK    6  A    between atoms: C_13  and  C_15
REMARK    7  A    between atoms: C_16  and  N_17
REMARK    8  A    between atoms: N_18  and  C_19
REMARK                            x       y       z     vdW  Elec       q    Type
REMARK                         _______ _______ _______ _____ _____    ______ ____
ROOT
ATOM      1  N   UNL     1       4.738   3.936  16.015  0.00  0.00    +0.000 N 
ATOM      2  C   UNL     1       4.210   4.925  16.837  0.00  0.00    +0.000 C 
ATOM      3  O   UNL     1       4.311   6.135  16.623  0.00  0.00    +0.000 OA
ATOM      4  H   UNL     1       4.435   2.971  16.180  0.00  0.00    +0.000 HD
ENDROOT
BRANCH   2   5
ATOM      5  C   UNL     1       3.422   4.463  18.040  0.00  0.00    +0.000 A 
ATOM      6  C   UNL     1       2.788   5.357  18.851  0.00  0.00    +0.000 A 
ATOM      7  N   UNL     1       2.074   4.893  19.962  0.00  0.00    +0.000 N 
ATOM      8  C   UNL     1       1.500   5.793  20.957  0.00  0.00    +0.000 C 
ATOM      9  C   UNL     1       1.920   3.547  20.251  0.00  0.00    +0.000 A 
ATOM     10  O   UNL     1       1.325   3.113  21.236  0.00  0.00    +0.000 OA
ATOM     11  N   UNL     1       2.485   2.676  19.380  0.00  0.00    +0.000 N 
ATOM     12  C   UNL     1       3.304   3.025  18.359  0.00  0.00    +0.000 A 
ATOM     13  O   UNL     1       3.914   2.162  17.729  0.00  0.00    +0.000 OA
ATOM     14  H   UNL     1       2.414   1.698  19.615  0.00  0.00    +0.000 HD
BRANCH   6  15
ATOM     15  N   UNL     1       2.837   6.730  18.623  0.00  0.00    +0.000 N 
ATOM     16  H   UNL     1       1.960   7.197  18.898  0.00  0.00    +0.000 HD
ATOM     17  H   UNL     1       3.619   7.181  19.089  0.00  0.00    +0.000 HD
ENDBRANCH   6  15
ENDBRANCH   2   5
BRANCH   1  23
ATOM     18  C   UNL     1       6.869   4.737  15.015  0.00  0.00    +0.000 A 
ATOM     19  C   UNL     1       7.694   4.883  13.877  0.00  0.00    +0.000 A 
ATOM     20  C   UNL     1       7.279   4.451  12.622  0.00  0.00    +0.000 A 
ATOM     21  C   UNL     1       6.024   3.879  12.487  0.00  0.00    +0.000 A 
ATOM     22  C   UNL     1       5.193   3.735  13.604  0.00  0.00    +0.000 A 
ATOM     23  C   UNL     1       5.596   4.135  14.892  0.00  0.00    +0.000 A 
BRANCH  18  24
ATOM     24  C   UNL     1       7.516   5.171  16.280  0.00  0.00    +0.000 C 
ATOM     25  O   UNL     1       7.932   4.372  17.108  0.00  0.00    +0.000 OA
BRANCH  24  26
ATOM     26  O   UNL     1       7.654   6.516  16.356  0.00  0.00    +0.000 OA
BRANCH  26  28
ATOM     27  C   UNL     1       7.936   8.512  17.734  0.00  0.00    +0.000 C 
ATOM     28  C   UNL     1       7.518   7.051  17.686  0.00  0.00    +0.000 C 
ENDBRANCH  26  28
ENDBRANCH  24  26
ENDBRANCH  18  24
ENDBRANCH   1  23
TORSDOF 6
ENDMDL
MODEL 9
REMARK VINA RESULT:      -6.9      5.180      6.824
REMARK  Name = 
REMARK  8 active torsions:
REMARK  status: ('A' for Active; 'I' for Inactive)
REMARK    1  A    between atoms: C_1  and  C_2
REMARK    2  A    between atoms: C_2  and  O_3
REMARK    3  A    between atoms: O_3  and  C_4
REMARK    4  A    between atoms: C_4  and  C_6
REMARK    5  A    between atoms: C_11  and  N_12
REMARK    6  A    between atoms: C_13  and  C_15
REMARK    7  A    between atoms: C_16  and  N_17
REMARK    8  A    between atoms: N_18  and  C_19
REMARK                            x       y       z     vdW  Elec       q    Type
REMARK                         _______ _______ _______ _____ _____    ______ ____
ROOT
ATOM      1  N   UNL     1       2.611   7.530  19.001  0.00  0.00    +0.000 N 
ATOM      2  C   UNL     1       1.737   8.535  18.602  0.00  0.00    +0.000 C 
ATOM      3  O   UNL     1       1.354   8.704  17.443  0.00  0.00    +0.000 OA
ATOM      4  H   UNL     1       2.712   7.361  20.008  0.00  0.00    +0.000 HD
ENDROOT
BRANCH   2   5
ATOM      5  C   UNL     1       1.195   9.437  19.686  0.00  0.00    +0.000 A 
ATOM      6  C   UNL     1       1.054  10.778  19.480  0.00  0.00    +0.000 A 
ATOM      7  N   UNL     1       0.557  11.585  20.509  0.00  0.00    +0.000 N 
ATOM      8  C   UNL     1       0.521  13.042  20.416  0.00  0.00    +0.000 C 
ATOM      9  C   UNL     1       0.131  11.078  21.726  0.00  0.00    +0.000 A 
ATOM     10  O   UNL     1      -0.280  11.767  22.658  0.00  0.00    +0.000 OA
ATOM     11  N   UNL     1       0.198   9.733  21.874  0.00  0.00    +0.000 N 
ATOM     12  C   UNL     1       0.786   8.886  20.994  0.00  0.00    +0.000 A 
ATOM     13  O   UNL     1       0.960   7.705  21.290  0.00  0.00    +0.000 OA
ATOM     14  H   UNL     1      -0.066   9.368  22.775  0.00  0.00    +0.000 HD
BRANCH   6  15
ATOM     15  N   UNL     1       1.405  11.383  18.276  0.00  0.00    +0.000 N 
ATOM     16  H   UNL     1       2.396  11.669  18.264  0.00  0.00    +0.000 HD
ATOM     17  H   UNL     1       1.215  10.798  17.467  0.00  0.00    +0.000 HD
ENDBRANCH   6  15
ENDBRANCH   2   5
BRANCH   1  23
ATOM     18  C   UNL     1       2.999   5.260  18.065  0.00  0.00    +0.000 A 
ATOM     19  C   UNL     1       3.712   4.420  17.180  0.00  0.00    +0.000 A 
ATOM     20  C   UNL     1       4.737   4.915  16.380  0.00  0.00    +0.000 A 
ATOM     21  C   UNL     1       5.072   6.256  16.468  0.00  0.00    +0.000 A 
ATOM     22  C   UNL     1       4.381   7.097  17.347  0.00  0.00    +0.000 A 
ATOM     23  C   UNL     1       3.320   6.634  18.147  0.00  0.00    +0.000 A 
BRANCH  18  24
ATOM     24  C   UNL     1       1.882   4.576  18.767  0.00  0.00    +0.000 C 
ATOM     25  O   UNL     1       1.549   4.872  19.907  0.00  0.00    +0.000 OA
BRANCH  24  26
ATOM     26  O   UNL     1       1.252   3.672  17.979  0.00  0.00    +0.000 OA
BRANCH  26  28
ATOM     27  C   UNL     1       2.177   1.717  19.112  0.00  0.00    +0.000 C 
ATOM     28  C   UNL     1       0.924   2.436  18.642  0.00  0.00    +0.000 C 
ENDBRANCH  26  28
ENDBRANCH  24  26
ENDBRANCH  18  24
ENDBRANCH   1  23
TORSDOF 6
ENDMDL
