MODEL 1
REMARK VINA RESULT:      -7.4      0.000      0.000
REMARK  Name = 
REMARK  10 active torsions:
REMARK  status: ('A' for Active; 'I' for Inactive)
REMARK    1  A    between atoms: C_1  and  O_2
REMARK    2  A    between atoms: O_2  and  C_3
REMARK    3  A    between atoms: C_6  and  C_7
REMARK    4  A    between atoms: C_7  and  C_8
REMARK    5  A    between atoms: N_10  and  C_11
REMARK    6  A    between atoms: C_15  and  C_16
REMARK    7  A    between atoms: C_19  and  C_20
REMARK    8  A    between atoms: C_19  and  C_21
REMARK    9  A    between atoms: C_23  and  C_24
REMARK   10  A    between atoms: C_23  and  C_25
REMARK                            x       y       z     vdW  Elec       q    Type
REMARK                         _______ _______ _______ _____ _____    ______ ____
ROOT
ATOM      1  C   UNL     1       0.099  10.468  18.582  0.00  0.00    +0.000 A 
ATOM      2  S   UNL     1       0.603  10.911  20.134  0.00  0.00    +0.000 S 
ATOM      3  C   UNL     1      -0.924  11.553  20.536  0.00  0.00    +0.000 A 
ATOM      4  C   UNL     1      -1.811  11.504  19.466  0.00  0.00    +0.000 A 
ATOM      5  C   UNL     1      -1.199  10.883  18.304  0.00  0.00    +0.000 A 
ATOM      6  C   UNL     1      -3.244  12.009  19.652  0.00  0.00    +0.000 C 
ATOM      7  C   UNL     1      -3.387  12.912  20.935  0.00  0.00    +0.000 C 
ATOM      8  C   UNL     1      -4.864  13.017  21.394  0.00  0.00    +0.000 C 
ATOM      9  C   UNL     1      -2.935  14.353  20.632  0.00  0.00    +0.000 C 
ATOM     10  N   UNL     1      -2.675  12.322  22.097  0.00  0.00    +0.000 NA
ATOM     11  C   UNL     1      -1.223  12.072  21.931  0.00  0.00    +0.000 C 
ATOM     12  C   UNL     1      -0.411  13.336  22.267  0.00  0.00    +0.000 C 
ATOM     13  C   UNL     1      -0.854  10.991  22.978  0.00  0.00    +0.000 C 
ATOM     14  H   UNL     1      -3.122  11.425  22.302  0.00  0.00    +0.000 HD
ENDROOT
BRANCH   1  17
ATOM     15  C   UNL     1       1.761   8.731  18.530  0.00  0.00    +0.000 C 
ATOM     16  O   UNL     1       1.526   8.366  19.680  0.00  0.00    +0.000 OA
ATOM     17  N   UNL     1       1.095   9.773  17.910  0.00  0.00    +0.000 N 
ATOM     18  H   UNL     1       0.942   9.659  16.913  0.00  0.00    +0.000 HD
BRANCH  15  19
ATOM     19  C   UNL     1       2.796   8.017  17.663  0.00  0.00    +0.000 C 
BRANCH  19  23
ATOM     20  C   UNL     1       3.800   3.932  18.790  0.00  0.00    +0.000 A 
ATOM     21  C   UNL     1       2.521   4.261  18.346  0.00  0.00    +0.000 A 
ATOM     22  C   UNL     1       2.216   5.577  17.966  0.00  0.00    +0.000 A 
ATOM     23  C   UNL     1       3.176   6.601  18.057  0.00  0.00    +0.000 A 
ATOM     24  C   UNL     1       4.473   6.242  18.437  0.00  0.00    +0.000 A 
ATOM     25  C   UNL     1       4.777   4.926  18.820  0.00  0.00    +0.000 A 
BRANCH  20  27
ATOM     26  C   UNL     1       3.420   1.639  18.344  0.00  0.00    +0.000 C 
ATOM     27  O   UNL     1       3.975   2.636  19.195  0.00  0.00    +0.000 OA
ENDBRANCH  20  27
ENDBRANCH  19  23
ENDBRANCH  15  19
ENDBRANCH   1  17
BRANCH   5  28
ATOM     28  C   UNL     1      -1.884  10.587  17.064  0.00  0.00    +0.000 C 
ATOM     29  N   UNL     1      -2.402  10.292  16.073  0.00  0.00    +0.000 NA
ENDBRANCH   5  28
TORSDOF 5
ENDMDL
MODEL 2
REMARK VINA RESULT:      -7.3      1.383      1.608
REMARK  Name = 
REMARK  10 active torsions:
REMARK  status: ('A' for Active; 'I' for Inactive)
REMARK    1  A    between atoms: C_1  and  O_2
REMARK    2  A    between atoms: O_2  and  C_3
REMARK    3  A    between atoms: C_6  and  C_7
REMARK    4  A    between atoms: C_7  and  C_8
REMARK    5  A    between atoms: N_10  and  C_11
REMARK    6  A    between atoms: C_15  and  C_16
REMARK    7  A    between atoms: C_19  and  C_20
REMARK    8  A    between atoms: C_19  and  C_21
REMARK    9  A    between atoms: C_23  and  C_24
REMARK   10  A    between atoms: C_23  and  C_25
REMARK                            x       y       z     vdW  Elec       q    Type
REMARK                         _______ _______ _______ _____ _____    ______ ____
ROOT
ATOM      1  C   UNL     1      -0.137   9.941  19.225  0.00  0.00    +0.000 A 
ATOM      2  S   UNL     1       0.229  10.471  20.788  0.00  0.00    +0.000 S 
ATOM      3  C   UNL     1      -1.120  11.512  20.840  0.00  0.00    +0.000 A 
ATOM      4  C   UNL     1      -1.821  11.521  19.639  0.00  0.00    +0.000 A 
ATOM      5  C   UNL     1      -1.226  10.610  18.676  0.00  0.00    +0.000 A 
ATOM      6  C   UNL     1      -3.083  12.376  19.510  0.00  0.00    +0.000 C 
ATOM      7  C   UNL     1      -3.175  13.464  20.646  0.00  0.00    +0.000 C 
ATOM      8  C   UNL     1      -4.625  13.985  20.818  0.00  0.00    +0.000 C 
ATOM      9  C   UNL     1      -2.324  14.694  20.283  0.00  0.00    +0.000 C 
ATOM     10  N   UNL     1      -2.821  12.895  21.972  0.00  0.00    +0.000 NA
ATOM     11  C   UNL     1      -1.477  12.284  22.097  0.00  0.00    +0.000 C 
ATOM     12  C   UNL     1      -0.423  13.352  22.442  0.00  0.00    +0.000 C 
ATOM     13  C   UNL     1      -1.562  11.310  23.300  0.00  0.00    +0.000 C 
ATOM     14  H   UNL     1      -3.512  12.171  22.185  0.00  0.00    +0.000 HD
ENDROOT
BRANCH   1  17
ATOM     15  C   UNL     1       1.912   9.254  18.170  0.00  0.00    +0.000 C 
ATOM     16  O   UNL     1       2.257  10.406  17.915  0.00  0.00    +0.000 OA
ATOM     17  N   UNL     1       0.732   8.938  18.819  0.00  0.00    +0.000 N 
ATOM     18  H   UNL     1       0.778   8.133  19.437  0.00  0.00    +0.000 HD
BRANCH  15  19
ATOM     19  C   UNL     1       2.802   8.061  17.826  0.00  0.00    +0.000 C 
BRANCH  19  23
ATOM     20  C   UNL     1       1.812   4.261  19.706  0.00  0.00    +0.000 A 
ATOM     21  C   UNL     1       2.048   5.400  20.471  0.00  0.00    +0.000 A 
ATOM     22  C   UNL     1       2.345   6.624  19.853  0.00  0.00    +0.000 A 
ATOM     23  C   UNL     1       2.450   6.725  18.453  0.00  0.00    +0.000 A 
ATOM     24  C   UNL     1       2.142   5.590  17.697  0.00  0.00    +0.000 A 
ATOM     25  C   UNL     1       1.847   4.365  18.316  0.00  0.00    +0.000 A 
BRANCH  20  27
ATOM     26  C   UNL     1       2.199   3.036  21.694  0.00  0.00    +0.000 C 
ATOM     27  O   UNL     1       1.592   3.106  20.408  0.00  0.00    +0.000 OA
ENDBRANCH  20  27
ENDBRANCH  19  23
ENDBRANCH  15  19
ENDBRANCH   1  17
BRANCH   5  28
ATOM     28  C   UNL     1      -1.773  10.310  17.370  0.00  0.00    +0.000 C 
ATOM     29  N   UNL     1      -2.214  10.135  16.316  0.00  0.00    +0.000 NA
ENDBRANCH   5  28
TORSDOF 5
ENDMDL
MODEL 3
REMARK VINA RESULT:      -7.3      2.109      3.713
REMARK  Name = 
REMARK  10 active torsions:
REMARK  status: ('A' for Active; 'I' for Inactive)
REMARK    1  A    between atoms: C_1  and  O_2
REMARK    2  A    between atoms: O_2  and  C_3
REMARK    3  A    between atoms: C_6  and  C_7
REMARK    4  A    between atoms: C_7  and  C_8
REMARK    5  A    between atoms: N_10  and  C_11
REMARK    6  A    between atoms: C_15  and  C_16
REMARK    7  A    between atoms: C_19  and  C_20
REMARK    8  A    between atoms: C_19  and  C_21
REMARK    9  A    between atoms: C_23  and  C_24
REMARK   10  A    between atoms: C_23  and  C_25
REMARK                            x       y       z     vdW  Elec       q    Type
REMARK                         _______ _______ _______ _____ _____    ______ ____
ROOT
ATOM      1  C   UNL     1      -1.068  11.454  20.478  0.00  0.00    +0.000 A 
ATOM      2  S   UNL     1      -1.947  12.744  19.827  0.00  0.00    +0.000 S 
ATOM      3  C   UNL     1      -2.258  13.414  21.364  0.00  0.00    +0.000 A 
ATOM      4  C   UNL     1      -1.759  12.622  22.392  0.00  0.00    +0.000 A 
ATOM      5  C   UNL     1      -1.075  11.451  21.869  0.00  0.00    +0.000 A 
ATOM      6  C   UNL     1      -1.917  13.082  23.843  0.00  0.00    +0.000 C 
ATOM      7  C   UNL     1      -3.011  14.207  23.987  0.00  0.00    +0.000 C 
ATOM      8  C   UNL     1      -2.839  15.000  25.307  0.00  0.00    +0.000 C 
ATOM      9  C   UNL     1      -4.418  13.585  24.047  0.00  0.00    +0.000 C 
ATOM     10  N   UNL     1      -2.882  15.229  22.916  0.00  0.00    +0.000 NA
ATOM     11  C   UNL     1      -2.975  14.743  21.518  0.00  0.00    +0.000 C 
ATOM     12  C   UNL     1      -4.443  14.669  21.063  0.00  0.00    +0.000 C 
ATOM     13  C   UNL     1      -2.273  15.817  20.648  0.00  0.00    +0.000 C 
ATOM     14  H   UNL     1      -1.969  15.673  23.030  0.00  0.00    +0.000 HD
ENDROOT
BRANCH   1  17
ATOM     15  C   UNL     1       0.812  10.818  19.120  0.00  0.00    +0.000 C 
ATOM     16  O   UNL     1       1.566  11.633  19.647  0.00  0.00    +0.000 OA
ATOM     17  N   UNL     1      -0.516  10.668  19.476  0.00  0.00    +0.000 N 
ATOM     18  H   UNL     1      -0.875   9.719  19.428  0.00  0.00    +0.000 HD
BRANCH  15  19
ATOM     19  C   UNL     1       1.306   9.856  18.041  0.00  0.00    +0.000 C 
BRANCH  19  23
ATOM     20  C   UNL     1       3.148   6.113  19.290  0.00  0.00    +0.000 A 
ATOM     21  C   UNL     1       3.425   6.668  18.042  0.00  0.00    +0.000 A 
ATOM     22  C   UNL     1       2.842   7.886  17.660  0.00  0.00    +0.000 A 
ATOM     23  C   UNL     1       1.938   8.556  18.505  0.00  0.00    +0.000 A 
ATOM     24  C   UNL     1       1.724   8.022  19.780  0.00  0.00    +0.000 A 
ATOM     25  C   UNL     1       2.307   6.803  20.161  0.00  0.00    +0.000 A 
BRANCH  20  27
ATOM     26  C   UNL     1       5.118   4.800  19.291  0.00  0.00    +0.000 C 
ATOM     27  O   UNL     1       3.719   4.894  19.539  0.00  0.00    +0.000 OA
ENDBRANCH  20  27
ENDBRANCH  19  23
ENDBRANCH  15  19
ENDBRANCH   1  17
BRANCH   5  28
ATOM     28  C   UNL     1      -0.356  10.483  22.669  0.00  0.00    +0.000 C 
ATOM     29  N   UNL     1       0.228   9.757  23.353  0.00  0.00    +0.000 NA
ENDBRANCH   5  28
TORSDOF 5
ENDMDL
MODEL 4
REMARK VINA RESULT:      -7.3      1.385      1.426
REMARK  Name = 
REMARK  10 active torsions:
REMARK  status: ('A' for Active; 'I' for Inactive)
REMARK    1  A    between atoms: C_1  and  O_2
REMARK    2  A    between atoms: O_2  and  C_3
REMARK    3  A    between atoms: C_6  and  C_7
REMARK    4  A    between atoms: C_7  and  C_8
REMARK    5  A    between atoms: N_10  and  C_11
REMARK    6  A    between atoms: C_15  and  C_16
REMARK    7  A    between atoms: C_19  and  C_20
REMARK    8  A    between atoms: C_19  and  C_21
REMARK    9  A    between atoms: C_23  and  C_24
REMARK   10  A    between atoms: C_23  and  C_25
REMARK                            x       y       z     vdW  Elec       q    Type
REMARK                         _______ _______ _______ _____ _____    ______ ____
ROOT
ATOM      1  C   UNL     1       0.054   9.977  19.514  0.00  0.00    +0.000 A 
ATOM      2  S   UNL     1       0.338  10.607  21.057  0.00  0.00    +0.000 S 
ATOM      3  C   UNL     1      -1.051  11.593  21.000  0.00  0.00    +0.000 A 
ATOM      4  C   UNL     1      -1.705  11.507  19.776  0.00  0.00    +0.000 A 
ATOM      5  C   UNL     1      -1.039  10.569  18.889  0.00  0.00    +0.000 A 
ATOM      6  C   UNL     1      -2.994  12.301  19.553  0.00  0.00    +0.000 C 
ATOM      7  C   UNL     1      -3.172  13.446  20.620  0.00  0.00    +0.000 C 
ATOM      8  C   UNL     1      -4.646  13.916  20.710  0.00  0.00    +0.000 C 
ATOM      9  C   UNL     1      -2.356  14.688  20.219  0.00  0.00    +0.000 C 
ATOM     10  N   UNL     1      -2.848  12.967  21.989  0.00  0.00    +0.000 NA
ATOM     11  C   UNL     1      -1.486  12.419  22.197  0.00  0.00    +0.000 C 
ATOM     12  C   UNL     1      -0.489  13.547  22.519  0.00  0.00    +0.000 C 
ATOM     13  C   UNL     1      -1.580  11.511  23.450  0.00  0.00    +0.000 C 
ATOM     14  H   UNL     1      -3.517  12.228  22.217  0.00  0.00    +0.000 HD
ENDROOT
BRANCH   1  17
ATOM     15  C   UNL     1       1.897   9.189  18.186  0.00  0.00    +0.000 C 
ATOM     16  O   UNL     1       1.957  10.219  17.519  0.00  0.00    +0.000 OA
ATOM     17  N   UNL     1       0.976   8.989  19.198  0.00  0.00    +0.000 N 
ATOM     18  H   UNL     1       1.309   8.444  19.987  0.00  0.00    +0.000 HD
BRANCH  15  19
ATOM     19  C   UNL     1       2.889   8.046  17.976  0.00  0.00    +0.000 C 
BRANCH  19  23
ATOM     20  C   UNL     1       1.827   4.144  19.591  0.00  0.00    +0.000 A 
ATOM     21  C   UNL     1       1.837   4.374  18.217  0.00  0.00    +0.000 A 
ATOM     22  C   UNL     1       2.202   5.630  17.708  0.00  0.00    +0.000 A 
ATOM     23  C   UNL     1       2.528   6.695  18.566  0.00  0.00    +0.000 A 
ATOM     24  C   UNL     1       2.581   6.430  19.939  0.00  0.00    +0.000 A 
ATOM     25  C   UNL     1       2.214   5.174  20.448  0.00  0.00    +0.000 A 
BRANCH  20  27
ATOM     26  C   UNL     1       0.881   2.070  18.954  0.00  0.00    +0.000 C 
ATOM     27  O   UNL     1       1.397   2.905  19.985  0.00  0.00    +0.000 OA
ENDBRANCH  20  27
ENDBRANCH  19  23
ENDBRANCH  15  19
ENDBRANCH   1  17
BRANCH   5  28
ATOM     28  C   UNL     1      -1.523  10.174  17.583  0.00  0.00    +0.000 C 
ATOM     29  N   UNL     1      -1.955   9.822  16.570  0.00  0.00    +0.000 NA
ENDBRANCH   5  28
TORSDOF 5
ENDMDL
MODEL 5
REMARK VINA RESULT:      -7.3      6.081      9.757
REMARK  Name = 
REMARK  10 active torsions:
REMARK  status: ('A' for Active; 'I' for Inactive)
REMARK    1  A    between atoms: C_1  and  O_2
REMARK    2  A    between atoms: O_2  and  C_3
REMARK    3  A    between atoms: C_6  and  C_7
REMARK    4  A    between atoms: C_7  and  C_8
REMARK    5  A    between atoms: N_10  and  C_11
REMARK    6  A    between atoms: C_15  and  C_16
REMARK    7  A    between atoms: C_19  and  C_20
REMARK    8  A    between atoms: C_19  and  C_21
REMARK    9  A    between atoms: C_23  and  C_24
REMARK   10  A    between atoms: C_23  and  C_25
REMARK                            x       y       z     vdW  Elec       q    Type
REMARK                         _______ _______ _______ _____ _____    ______ ____
ROOT
ATOM      1  C   UNL     1       5.922   6.670  17.541  0.00  0.00    +0.000 A 
ATOM      2  S   UNL     1       4.312   7.132  17.772  0.00  0.00    +0.000 S 
ATOM      3  C   UNL     1       3.862   5.584  18.329  0.00  0.00    +0.000 A 
ATOM      4  C   UNL     1       4.918   4.680  18.275  0.00  0.00    +0.000 A 
ATOM      5  C   UNL     1       6.130   5.316  17.788  0.00  0.00    +0.000 A 
ATOM      6  C   UNL     1       4.707   3.246  18.766  0.00  0.00    +0.000 C 
ATOM      7  C   UNL     1       3.179   2.881  18.878  0.00  0.00    +0.000 C 
ATOM      8  C   UNL     1       2.953   1.661  19.807  0.00  0.00    +0.000 C 
ATOM      9  C   UNL     1       2.620   2.475  17.503  0.00  0.00    +0.000 C 
ATOM     10  N   UNL     1       2.404   3.981  19.509  0.00  0.00    +0.000 NA
ATOM     11  C   UNL     1       2.462   5.303  18.843  0.00  0.00    +0.000 C 
ATOM     12  C   UNL     1       1.403   5.399  17.729  0.00  0.00    +0.000 C 
ATOM     13  C   UNL     1       2.087   6.344  19.929  0.00  0.00    +0.000 C 
ATOM     14  H   UNL     1       2.762   4.096  20.460  0.00  0.00    +0.000 HD
ENDROOT
BRANCH   1  17
ATOM     15  C   UNL     1       7.834   8.088  17.879  0.00  0.00    +0.000 C 
ATOM     16  O   UNL     1       8.209   7.476  18.877  0.00  0.00    +0.000 OA
ATOM     17  N   UNL     1       6.703   7.750  17.158  0.00  0.00    +0.000 N 
ATOM     18  H   UNL     1       6.767   7.900  16.155  0.00  0.00    +0.000 HD
BRANCH  15  19
ATOM     19  C   UNL     1       8.633   9.264  17.320  0.00  0.00    +0.000 C 
BRANCH  19  23
ATOM     20  C   UNL     1       9.627  12.546  20.003  0.00  0.00    +0.000 A 
ATOM     21  C   UNL     1       9.203  12.789  18.698  0.00  0.00    +0.000 A 
ATOM     22  C   UNL     1       8.866  11.723  17.850  0.00  0.00    +0.000 A 
ATOM     23  C   UNL     1       8.981  10.388  18.278  0.00  0.00    +0.000 A 
ATOM     24  C   UNL     1       9.340  10.164  19.611  0.00  0.00    +0.000 A 
ATOM     25  C   UNL     1       9.680  11.230  20.459  0.00  0.00    +0.000 A 
BRANCH  20  27
ATOM     26  C   UNL     1      10.836  14.581  20.056  0.00  0.00    +0.000 C 
ATOM     27  O   UNL     1       9.991  13.650  20.726  0.00  0.00    +0.000 OA
ENDBRANCH  20  27
ENDBRANCH  19  23
ENDBRANCH  15  19
ENDBRANCH   1  17
BRANCH   5  28
ATOM     28  C   UNL     1       7.427   4.680  17.710  0.00  0.00    +0.000 C 
ATOM     29  N   UNL     1       8.433   4.114  17.638  0.00  0.00    +0.000 NA
ENDBRANCH   5  28
TORSDOF 5
ENDMDL
MODEL 6
REMARK VINA RESULT:      -7.2      1.973      3.270
REMARK  Name = 
REMARK  10 active torsions:
REMARK  status: ('A' for Active; 'I' for Inactive)
REMARK    1  A    between atoms: C_1  and  O_2
REMARK    2  A    between atoms: O_2  and  C_3
REMARK    3  A    between atoms: C_6  and  C_7
REMARK    4  A    between atoms: C_7  and  C_8
REMARK    5  A    between atoms: N_10  and  C_11
REMARK    6  A    between atoms: C_15  and  C_16
REMARK    7  A    between atoms: C_19  and  C_20
REMARK    8  A    between atoms: C_19  and  C_21
REMARK    9  A    between atoms: C_23  and  C_24
REMARK   10  A    between atoms: C_23  and  C_25
REMARK                            x       y       z     vdW  Elec       q    Type
REMARK                         _______ _______ _______ _____ _____    ______ ____
ROOT
ATOM      1  C   UNL     1      -0.805  10.814  18.747  0.00  0.00    +0.000 A 
ATOM      2  S   UNL     1      -2.189  10.311  17.916  0.00  0.00    +0.000 S 
ATOM      3  C   UNL     1      -3.159  11.512  18.638  0.00  0.00    +0.000 A 
ATOM      4  C   UNL     1      -2.455  12.262  19.574  0.00  0.00    +0.000 A 
ATOM      5  C   UNL     1      -1.069  11.834  19.655  0.00  0.00    +0.000 A 
ATOM      6  C   UNL     1      -3.158  13.410  20.303  0.00  0.00    +0.000 C 
ATOM      7  C   UNL     1      -4.726  13.309  20.185  0.00  0.00    +0.000 C 
ATOM      8  C   UNL     1      -5.406  14.672  20.476  0.00  0.00    +0.000 C 
ATOM      9  C   UNL     1      -5.282  12.326  21.230  0.00  0.00    +0.000 C 
ATOM     10  N   UNL     1      -5.145  12.969  18.800  0.00  0.00    +0.000 NA
ATOM     11  C   UNL     1      -4.609  11.709  18.233  0.00  0.00    +0.000 C 
ATOM     12  C   UNL     1      -5.492  10.513  18.633  0.00  0.00    +0.000 C 
ATOM     13  C   UNL     1      -4.704  11.861  16.693  0.00  0.00    +0.000 C 
ATOM     14  H   UNL     1      -4.841  13.736  18.195  0.00  0.00    +0.000 HD
ENDROOT
BRANCH   1  17
ATOM     15  C   UNL     1       1.006   9.310  19.237  0.00  0.00    +0.000 C 
ATOM     16  O   UNL     1       0.692   9.194  20.420  0.00  0.00    +0.000 OA
ATOM     17  N   UNL     1       0.312  10.099  18.338  0.00  0.00    +0.000 N 
ATOM     18  H   UNL     1       0.270   9.742  17.388  0.00  0.00    +0.000 HD
BRANCH  15  19
ATOM     19  C   UNL     1       2.183   8.536  18.647  0.00  0.00    +0.000 C 
BRANCH  19  23
ATOM     20  C   UNL     1       2.266   4.219  19.212  0.00  0.00    +0.000 A 
ATOM     21  C   UNL     1       2.392   4.779  17.943  0.00  0.00    +0.000 A 
ATOM     22  C   UNL     1       2.385   6.173  17.776  0.00  0.00    +0.000 A 
ATOM     23  C   UNL     1       2.214   7.036  18.874  0.00  0.00    +0.000 A 
ATOM     24  C   UNL     1       2.158   6.461  20.148  0.00  0.00    +0.000 A 
ATOM     25  C   UNL     1       2.163   5.066  20.314  0.00  0.00    +0.000 A 
BRANCH  20  27
ATOM     26  C   UNL     1       1.010   2.253  18.809  0.00  0.00    +0.000 C 
ATOM     27  O   UNL     1       2.222   2.851  19.257  0.00  0.00    +0.000 OA
ENDBRANCH  20  27
ENDBRANCH  19  23
ENDBRANCH  15  19
ENDBRANCH   1  17
BRANCH   5  28
ATOM     28  C   UNL     1      -0.048  12.474  20.456  0.00  0.00    +0.000 C 
ATOM     29  N   UNL     1       0.810  12.942  21.073  0.00  0.00    +0.000 NA
ENDBRANCH   5  28
TORSDOF 5
ENDMDL
MODEL 7
REMARK VINA RESULT:      -7.2      6.058      9.642
REMARK  Name = 
REMARK  10 active torsions:
REMARK  status: ('A' for Active; 'I' for Inactive)
REMARK    1  A    between atoms: C_1  and  O_2
REMARK    2  A    between atoms: O_2  and  C_3
REMARK    3  A    between atoms: C_6  and  C_7
REMARK    4  A    between atoms: C_7  and  C_8
REMARK    5  A    between atoms: N_10  and  C_11
REMARK    6  A    between atoms: C_15  and  C_16
REMARK    7  A    between atoms: C_19  and  C_20
REMARK    8  A    between atoms: C_19  and  C_21
REMARK    9  A    between atoms: C_23  and  C_24
REMARK   10  A    between atoms: C_23  and  C_25
REMARK                            x       y       z     vdW  Elec       q    Type
REMARK                         _______ _______ _______ _____ _____    ______ ____
ROOT
ATOM      1  C   UNL     1       5.938   6.669  17.547  0.00  0.00    +0.000 A 
ATOM      2  S   UNL     1       4.334   7.153  17.777  0.00  0.00    +0.000 S 
ATOM      3  C   UNL     1       3.862   5.611  18.331  0.00  0.00    +0.000 A 
ATOM      4  C   UNL     1       4.905   4.693  18.277  0.00  0.00    +0.000 A 
ATOM      5  C   UNL     1       6.126   5.313  17.791  0.00  0.00    +0.000 A 
ATOM      6  C   UNL     1       4.675   3.261  18.766  0.00  0.00    +0.000 C 
ATOM      7  C   UNL     1       3.142   2.917  18.877  0.00  0.00    +0.000 C 
ATOM      8  C   UNL     1       2.898   1.699  19.804  0.00  0.00    +0.000 C 
ATOM      9  C   UNL     1       2.578   2.521  17.500  0.00  0.00    +0.000 C 
ATOM     10  N   UNL     1       2.381   4.026  19.509  0.00  0.00    +0.000 NA
ATOM     11  C   UNL     1       2.458   5.349  18.844  0.00  0.00    +0.000 C 
ATOM     12  C   UNL     1       1.402   5.460  17.729  0.00  0.00    +0.000 C 
ATOM     13  C   UNL     1       2.097   6.393  19.931  0.00  0.00    +0.000 C 
ATOM     14  H   UNL     1       2.740   4.135  20.460  0.00  0.00    +0.000 HD
ENDROOT
BRANCH   1  17
ATOM     15  C   UNL     1       7.866   8.064  17.891  0.00  0.00    +0.000 C 
ATOM     16  O   UNL     1       8.228   7.449  18.891  0.00  0.00    +0.000 OA
ATOM     17  N   UNL     1       6.734   7.739  17.165  0.00  0.00    +0.000 N 
ATOM     18  H   UNL     1       6.803   7.887  16.162  0.00  0.00    +0.000 HD
BRANCH  15  19
ATOM     19  C   UNL     1       8.682   9.229  17.333  0.00  0.00    +0.000 C 
BRANCH  19  23
ATOM     20  C   UNL     1       9.364  12.578  20.031  0.00  0.00    +0.000 A 
ATOM     21  C   UNL     1       9.573  11.266  20.448  0.00  0.00    +0.000 A 
ATOM     22  C   UNL     1       9.371  10.196  19.563  0.00  0.00    +0.000 A 
ATOM     23  C   UNL     1       8.917  10.415  18.250  0.00  0.00    +0.000 A 
ATOM     24  C   UNL     1       8.778  11.741  17.824  0.00  0.00    +0.000 A 
ATOM     25  C   UNL     1       8.979  12.811  18.711  0.00  0.00    +0.000 A 
BRANCH  20  27
ATOM     26  C   UNL     1       9.126  13.184  22.307  0.00  0.00    +0.000 C 
ATOM     27  O   UNL     1       9.530  13.542  20.989  0.00  0.00    +0.000 OA
ENDBRANCH  20  27
ENDBRANCH  19  23
ENDBRANCH  15  19
ENDBRANCH   1  17
BRANCH   5  28
ATOM     28  C   UNL     1       7.415   4.659  17.714  0.00  0.00    +0.000 C 
ATOM     29  N   UNL     1       8.417   4.092  17.611  0.00  0.00    +0.000 NA
ENDBRANCH   5  28
TORSDOF 5
ENDMDL
MODEL 8
REMARK VINA RESULT:      -7.2      2.141      2.627
REMARK  Name = 
REMARK  10 active torsions:
REMARK  status: ('A' for Active; 'I' for Inactive)
REMARK    1  A    between atoms: C_1  and  O_2
REMARK    2  A    between atoms: O_2  and  C_3
REMARK    3  A    between atoms: C_6  and  C_7
REMARK    4  A    between atoms: C_7  and  C_8
REMARK    5  A    between atoms: N_10  and  C_11
REMARK    6  A    between atoms: C_15  and  C_16
REMARK    7  A    between atoms: C_19  and  C_20
REMARK    8  A    between atoms: C_19  and  C_21
REMARK    9  A    between atoms: C_23  and  C_24
REMARK   10  A    between atoms: C_23  and  C_25
REMARK                            x       y       z     vdW  Elec       q    Type
REMARK                         _______ _______ _______ _____ _____    ______ ____
ROOT
ATOM      1  C   UNL     1      -0.723  11.160  21.280  0.00  0.00    +0.000 A 
ATOM      2  S   UNL     1      -1.122  11.812  22.788  0.00  0.00    +0.000 S 
ATOM      3  C   UNL     1      -2.554  12.522  22.194  0.00  0.00    +0.000 A 
ATOM      4  C   UNL     1      -2.705  12.331  20.825  0.00  0.00    +0.000 A 
ATOM      5  C   UNL     1      -1.610  11.545  20.280  0.00  0.00    +0.000 A 
ATOM      6  C   UNL     1      -3.951  12.873  20.121  0.00  0.00    +0.000 C 
ATOM      7  C   UNL     1      -4.698  13.950  20.994  0.00  0.00    +0.000 C 
ATOM      8  C   UNL     1      -6.167  14.135  20.535  0.00  0.00    +0.000 C 
ATOM      9  C   UNL     1      -4.029  15.328  20.838  0.00  0.00    +0.000 C 
ATOM     10  N   UNL     1      -4.800  13.522  22.414  0.00  0.00    +0.000 NA
ATOM     11  C   UNL     1      -3.526  13.237  23.116  0.00  0.00    +0.000 C 
ATOM     12  C   UNL     1      -2.927  14.527  23.705  0.00  0.00    +0.000 C 
ATOM     13  C   UNL     1      -3.893  12.311  24.303  0.00  0.00    +0.000 C 
ATOM     14  H   UNL     1      -5.363  12.669  22.432  0.00  0.00    +0.000 HD
ENDROOT
BRANCH   1  17
ATOM     15  C   UNL     1       0.299   8.997  21.517  0.00  0.00    +0.000 C 
ATOM     16  O   UNL     1      -0.778   8.410  21.593  0.00  0.00    +0.000 OA
ATOM     17  N   UNL     1       0.412  10.366  21.362  0.00  0.00    +0.000 N 
ATOM     18  H   UNL     1       1.195  10.676  20.794  0.00  0.00    +0.000 HD
BRANCH  15  19
ATOM     19  C   UNL     1       1.623   8.235  21.540  0.00  0.00    +0.000 C 
BRANCH  19  23
ATOM     20  C   UNL     1       2.366   5.367  18.349  0.00  0.00    +0.000 A 
ATOM     21  C   UNL     1       1.945   4.946  19.608  0.00  0.00    +0.000 A 
ATOM     22  C   UNL     1       1.689   5.882  20.622  0.00  0.00    +0.000 A 
ATOM     23  C   UNL     1       1.884   7.259  20.408  0.00  0.00    +0.000 A 
ATOM     24  C   UNL     1       2.240   7.670  19.119  0.00  0.00    +0.000 A 
ATOM     25  C   UNL     1       2.498   6.733  18.105  0.00  0.00    +0.000 A 
BRANCH  20  27
ATOM     26  C   UNL     1       2.620   3.045  17.967  0.00  0.00    +0.000 C 
ATOM     27  O   UNL     1       2.648   4.372  17.452  0.00  0.00    +0.000 OA
ENDBRANCH  20  27
ENDBRANCH  19  23
ENDBRANCH  15  19
ENDBRANCH   1  17
BRANCH   5  28
ATOM     28  C   UNL     1      -1.521  11.084  18.911  0.00  0.00    +0.000 C 
ATOM     29  N   UNL     1      -1.384  10.730  17.819  0.00  0.00    +0.000 NA
ENDBRANCH   5  28
TORSDOF 5
ENDMDL
MODEL 9
REMARK VINA RESULT:      -7.2      1.941      3.346
REMARK  Name = 
REMARK  10 active torsions:
REMARK  status: ('A' for Active; 'I' for Inactive)
REMARK    1  A    between atoms: C_1  and  O_2
REMARK    2  A    between atoms: O_2  and  C_3
REMARK    3  A    between atoms: C_6  and  C_7
REMARK    4  A    between atoms: C_7  and  C_8
REMARK    5  A    between atoms: N_10  and  C_11
REMARK    6  A    between atoms: C_15  and  C_16
REMARK    7  A    between atoms: C_19  and  C_20
REMARK    8  A    between atoms: C_19  and  C_21
REMARK    9  A    between atoms: C_23  and  C_24
REMARK   10  A    between atoms: C_23  and  C_25
REMARK                            x       y       z     vdW  Elec       q    Type
REMARK                         _______ _______ _______ _____ _____    ______ ____
ROOT
ATOM      1  C   UNL     1      -0.678  10.652  19.147  0.00  0.00    +0.000 A 
ATOM      2  S   UNL     1      -1.946  10.137  18.154  0.00  0.00    +0.000 S 
ATOM      3  C   UNL     1      -2.991  11.361  18.715  0.00  0.00    +0.000 A 
ATOM      4  C   UNL     1      -2.409  12.129  19.718  0.00  0.00    +0.000 A 
ATOM      5  C   UNL     1      -1.049  11.695  19.989  0.00  0.00    +0.000 A 
ATOM      6  C   UNL     1      -3.191  13.298  20.321  0.00  0.00    +0.000 C 
ATOM      7  C   UNL     1      -4.730  13.204  20.002  0.00  0.00    +0.000 C 
ATOM      8  C   UNL     1      -5.431  14.577  20.170  0.00  0.00    +0.000 C 
ATOM      9  C   UNL     1      -5.427  12.249  20.989  0.00  0.00    +0.000 C 
ATOM     10  N   UNL     1      -4.968  12.833  18.583  0.00  0.00    +0.000 NA
ATOM     11  C   UNL     1      -4.374  11.556  18.120  0.00  0.00    +0.000 C 
ATOM     12  C   UNL     1      -5.312  10.375  18.429  0.00  0.00    +0.000 C 
ATOM     13  C   UNL     1      -4.266  11.672  16.578  0.00  0.00    +0.000 C 
ATOM     14  H   UNL     1      -4.581  13.583  18.005  0.00  0.00    +0.000 HD
ENDROOT
BRANCH   1  17
ATOM     15  C   UNL     1       0.958   9.037  19.852  0.00  0.00    +0.000 C 
ATOM     16  O   UNL     1       0.414   8.846  20.938  0.00  0.00    +0.000 OA
ATOM     17  N   UNL     1       0.477   9.922  18.905  0.00  0.00    +0.000 N 
ATOM     18  H   UNL     1       0.612   9.640  17.938  0.00  0.00    +0.000 HD
BRANCH  15  19
ATOM     19  C   UNL     1       2.205   8.258  19.439  0.00  0.00    +0.000 C 
BRANCH  19  23
ATOM     20  C   UNL     1       1.816   3.936  19.076  0.00  0.00    +0.000 A 
ATOM     21  C   UNL     1       1.729   4.564  20.317  0.00  0.00    +0.000 A 
ATOM     22  C   UNL     1       1.835   5.959  20.419  0.00  0.00    +0.000 A 
ATOM     23  C   UNL     1       2.068   6.755  19.282  0.00  0.00    +0.000 A 
ATOM     24  C   UNL     1       2.083   6.118  18.037  0.00  0.00    +0.000 A 
ATOM     25  C   UNL     1       1.979   4.722  17.936  0.00  0.00    +0.000 A 
BRANCH  20  27
ATOM     26  C   UNL     1       2.968   1.895  18.750  0.00  0.00    +0.000 C 
ATOM     27  O   UNL     1       1.762   2.569  19.095  0.00  0.00    +0.000 OA
ENDBRANCH  20  27
ENDBRANCH  19  23
ENDBRANCH  15  19
ENDBRANCH   1  17
BRANCH   5  28
ATOM     28  C   UNL     1      -0.136  12.350  20.901  0.00  0.00    +0.000 C 
ATOM     29  N   UNL     1       0.643  12.839  21.602  0.00  0.00    +0.000 NA
ENDBRANCH   5  28
TORSDOF 5
ENDMDL
