MODEL 1
REMARK VINA RESULT:      -8.1      0.000      0.000
REMARK  Name = 
REMARK  6 active torsions:
REMARK  status: ('A' for Active; 'I' for Inactive)
REMARK    1  A    between atoms: C_1  and  C_2
REMARK    2  A    between atoms: C_2  and  O_3
REMARK    3  A    between atoms: O_3  and  C_4
REMARK    4  A    between atoms: C_4  and  C_6
REMARK    5  A    between atoms: C_7  and  C_8
REMARK    6  A    between atoms: C_12  and  N_13
REMARK                            x       y       z     vdW  Elec       q    Type
REMARK                         _______ _______ _______ _____ _____    ______ ____
ROOT
ATOM      1  C   UNL     1       3.615   5.255  17.827  0.00  0.00    +0.000 A 
ATOM      2  C   UNL     1       2.822   4.098  17.841  0.00  0.00    +0.000 A 
ATOM      3  C   UNL     1       1.824   3.940  18.792  0.00  0.00    +0.000 A 
ATOM      4  C   UNL     1       1.607   4.946  19.729  0.00  0.00    +0.000 A 
ATOM      5  C   UNL     1       2.360   6.137  19.726  0.00  0.00    +0.000 A 
ATOM      6  C   UNL     1       3.380   6.268  18.778  0.00  0.00    +0.000 A 
ENDROOT
BRANCH   5   7
ATOM      7  N   UNL     1       2.095   7.063  20.759  0.00  0.00    +0.000 N 
ATOM      8  C   UNL     1       1.481   8.343  20.782  0.00  0.00    +0.000 A 
ATOM      9  C   UNL     1       1.312   8.928  22.042  0.00  0.00    +0.000 A 
ATOM     10  N   UNL     1       0.629  10.069  22.275  0.00  0.00    +0.000 NA
ATOM     11  C   UNL     1       0.163  10.690  21.186  0.00  0.00    +0.000 A 
ATOM     12  C   UNL     1      -0.576  11.854  21.354  0.00  0.00    +0.000 A 
ATOM     13  C   UNL     1      -1.006  12.602  20.261  0.00  0.00    +0.000 A 
ATOM     14  C   UNL     1      -0.693  12.169  18.980  0.00  0.00    +0.000 A 
ATOM     15  C   UNL     1      -0.003  10.963  18.801  0.00  0.00    +0.000 A 
ATOM     16  C   UNL     1       0.421  10.193  19.882  0.00  0.00    +0.000 A 
ATOM     17  N   UNL     1       1.064   9.009  19.686  0.00  0.00    +0.000 NA
ATOM     18  H   UNL     1       1.817   6.559  21.596  0.00  0.00    +0.000 HD
ENDBRANCH   5   7
BRANCH   1  20
ATOM     19  C   UNL     1       5.520   4.384  16.480  0.00  0.00    +0.000 C 
ATOM     20  C   UNL     1       4.638   5.347  16.777  0.00  0.00    +0.000 C 
BRANCH  19  21
ATOM     21  C   UNL     1       6.403   4.559  15.311  0.00  0.00    +0.000 C 
ATOM     22  O   UNL     1       7.337   5.343  15.245  0.00  0.00    +0.000 OA
BRANCH  21  23
ATOM     23  O   UNL     1       5.924   3.773  14.318  0.00  0.00    +0.000 OA
BRANCH  23  25
ATOM     24  C   UNL     1       5.831   3.089  12.027  0.00  0.00    +0.000 C 
ATOM     25  C   UNL     1       6.562   3.944  13.046  0.00  0.00    +0.000 C 
ENDBRANCH  23  25
ENDBRANCH  21  23
ENDBRANCH  19  21
ENDBRANCH   1  20
TORSDOF 5
ENDMDL
MODEL 2
REMARK VINA RESULT:      -8.0      5.791      7.761
REMARK  Name = 
REMARK  6 active torsions:
REMARK  status: ('A' for Active; 'I' for Inactive)
REMARK    1  A    between atoms: C_1  and  C_2
REMARK    2  A    between atoms: C_2  and  O_3
REMARK    3  A    between atoms: O_3  and  C_4
REMARK    4  A    between atoms: C_4  and  C_6
REMARK    5  A    between atoms: C_7  and  C_8
REMARK    6  A    between atoms: C_12  and  N_13
REMARK                            x       y       z     vdW  Elec       q    Type
REMARK                         _______ _______ _______ _____ _____    ______ ____
ROOT
ATOM      1  C   UNL     1       7.753   7.852  17.994  0.00  0.00    +0.000 A 
ATOM      2  C   UNL     1       8.496   7.198  18.987  0.00  0.00    +0.000 A 
ATOM      3  C   UNL     1       8.214   5.882  19.326  0.00  0.00    +0.000 A 
ATOM      4  C   UNL     1       7.190   5.211  18.665  0.00  0.00    +0.000 A 
ATOM      5  C   UNL     1       6.442   5.824  17.640  0.00  0.00    +0.000 A 
ATOM      6  C   UNL     1       6.722   7.158  17.330  0.00  0.00    +0.000 A 
ENDROOT
BRANCH   5   7
ATOM      7  N   UNL     1       5.388   5.069  17.079  0.00  0.00    +0.000 N 
ATOM      8  C   UNL     1       4.265   4.406  17.638  0.00  0.00    +0.000 A 
ATOM      9  C   UNL     1       3.370   3.828  16.731  0.00  0.00    +0.000 A 
ATOM     10  N   UNL     1       2.182   3.279  17.065  0.00  0.00    +0.000 NA
ATOM     11  C   UNL     1       1.918   3.240  18.376  0.00  0.00    +0.000 A 
ATOM     12  C   UNL     1       0.699   2.717  18.788  0.00  0.00    +0.000 A 
ATOM     13  C   UNL     1       0.402   2.557  20.139  0.00  0.00    +0.000 A 
ATOM     14  C   UNL     1       1.342   2.934  21.088  0.00  0.00    +0.000 A 
ATOM     15  C   UNL     1       2.546   3.520  20.680  0.00  0.00    +0.000 A 
ATOM     16  C   UNL     1       2.855   3.704  19.334  0.00  0.00    +0.000 A 
ATOM     17  N   UNL     1       4.018   4.303  18.961  0.00  0.00    +0.000 NA
ATOM     18  H   UNL     1       5.107   5.491  16.199  0.00  0.00    +0.000 HD
ENDBRANCH   5   7
BRANCH   1  20
ATOM     19  C   UNL     1       8.839  10.037  18.495  0.00  0.00    +0.000 C 
ATOM     20  C   UNL     1       8.129   9.239  17.688  0.00  0.00    +0.000 C 
BRANCH  19  21
ATOM     21  C   UNL     1       9.260  11.363  18.001  0.00  0.00    +0.000 C 
ATOM     22  O   UNL     1       8.533  12.338  17.894  0.00  0.00    +0.000 OA
BRANCH  21  23
ATOM     23  O   UNL     1      10.551  11.258  17.605  0.00  0.00    +0.000 OA
BRANCH  23  25
ATOM     24  C   UNL     1      11.917  11.848  19.479  0.00  0.00    +0.000 C 
ATOM     25  C   UNL     1      11.424  12.277  18.109  0.00  0.00    +0.000 C 
ENDBRANCH  23  25
ENDBRANCH  21  23
ENDBRANCH  19  21
ENDBRANCH   1  20
TORSDOF 5
ENDMDL
MODEL 3
REMARK VINA RESULT:      -8.0      1.567      2.408
REMARK  Name = 
REMARK  6 active torsions:
REMARK  status: ('A' for Active; 'I' for Inactive)
REMARK    1  A    between atoms: C_1  and  C_2
REMARK    2  A    between atoms: C_2  and  O_3
REMARK    3  A    between atoms: O_3  and  C_4
REMARK    4  A    between atoms: C_4  and  C_6
REMARK    5  A    between atoms: C_7  and  C_8
REMARK    6  A    between atoms: C_12  and  N_13
REMARK                            x       y       z     vdW  Elec       q    Type
REMARK                         _______ _______ _______ _____ _____    ______ ____
ROOT
ATOM      1  C   UNL     1       3.683   4.918  18.346  0.00  0.00    +0.000 A 
ATOM      2  C   UNL     1       2.792   3.843  18.222  0.00  0.00    +0.000 A 
ATOM      3  C   UNL     1       1.638   3.793  18.993  0.00  0.00    +0.000 A 
ATOM      4  C   UNL     1       1.367   4.826  19.885  0.00  0.00    +0.000 A 
ATOM      5  C   UNL     1       2.222   5.939  20.013  0.00  0.00    +0.000 A 
ATOM      6  C   UNL     1       3.393   5.960  19.249  0.00  0.00    +0.000 A 
ENDROOT
BRANCH   5   7
ATOM      7  N   UNL     1       1.879   6.898  20.991  0.00  0.00    +0.000 N 
ATOM      8  C   UNL     1       1.434   8.243  20.918  0.00  0.00    +0.000 A 
ATOM      9  C   UNL     1       1.099   8.854  22.132  0.00  0.00    +0.000 A 
ATOM     10  N   UNL     1       0.529  10.072  22.249  0.00  0.00    +0.000 NA
ATOM     11  C   UNL     1       0.358  10.738  21.102  0.00  0.00    +0.000 A 
ATOM     12  C   UNL     1      -0.252  11.985  21.145  0.00  0.00    +0.000 A 
ATOM     13  C   UNL     1      -0.372  12.772  20.003  0.00  0.00    +0.000 A 
ATOM     14  C   UNL     1       0.125  12.294  18.798  0.00  0.00    +0.000 A 
ATOM     15  C   UNL     1       0.684  11.012  18.734  0.00  0.00    +0.000 A 
ATOM     16  C   UNL     1       0.797  10.203  19.863  0.00  0.00    +0.000 A 
ATOM     17  N   UNL     1       1.317   8.948  19.774  0.00  0.00    +0.000 NA
ATOM     18  H   UNL     1       1.389   6.438  21.752  0.00  0.00    +0.000 HD
ENDBRANCH   5   7
BRANCH   1  20
ATOM     19  C   UNL     1       5.707   5.930  17.303  0.00  0.00    +0.000 C 
ATOM     20  C   UNL     1       4.871   4.899  17.481  0.00  0.00    +0.000 C 
BRANCH  19  21
ATOM     21  C   UNL     1       6.936   5.725  16.513  0.00  0.00    +0.000 C 
ATOM     22  O   UNL     1       7.245   4.688  15.946  0.00  0.00    +0.000 OA
BRANCH  21  23
ATOM     23  O   UNL     1       7.681   6.851  16.620  0.00  0.00    +0.000 OA
BRANCH  23  25
ATOM     24  C   UNL     1       8.144   8.846  17.856  0.00  0.00    +0.000 C 
ATOM     25  C   UNL     1       7.813   7.367  17.950  0.00  0.00    +0.000 C 
ENDBRANCH  23  25
ENDBRANCH  21  23
ENDBRANCH  19  21
ENDBRANCH   1  20
TORSDOF 5
ENDMDL
MODEL 4
REMARK VINA RESULT:      -7.8      1.293      2.065
REMARK  Name = 
REMARK  6 active torsions:
REMARK  status: ('A' for Active; 'I' for Inactive)
REMARK    1  A    between atoms: C_1  and  C_2
REMARK    2  A    between atoms: C_2  and  O_3
REMARK    3  A    between atoms: O_3  and  C_4
REMARK    4  A    between atoms: C_4  and  C_6
REMARK    5  A    between atoms: C_7  and  C_8
REMARK    6  A    between atoms: C_12  and  N_13
REMARK                            x       y       z     vdW  Elec       q    Type
REMARK                         _______ _______ _______ _____ _____    ______ ____
ROOT
ATOM      1  C   UNL     1       3.049   4.713  18.354  0.00  0.00    +0.000 A 
ATOM      2  C   UNL     1       2.177   3.631  18.542  0.00  0.00    +0.000 A 
ATOM      3  C   UNL     1       1.224   3.662  19.551  0.00  0.00    +0.000 A 
ATOM      4  C   UNL     1       1.134   4.782  20.371  0.00  0.00    +0.000 A 
ATOM      5  C   UNL     1       1.971   5.902  20.193  0.00  0.00    +0.000 A 
ATOM      6  C   UNL     1       2.942   5.843  19.189  0.00  0.00    +0.000 A 
ENDROOT
BRANCH   5   7
ATOM      7  N   UNL     1       1.831   6.958  21.120  0.00  0.00    +0.000 N 
ATOM      8  C   UNL     1       1.402   8.305  21.001  0.00  0.00    +0.000 A 
ATOM      9  C   UNL     1       1.309   9.035  22.191  0.00  0.00    +0.000 A 
ATOM     10  N   UNL     1       0.791  10.278  22.293  0.00  0.00    +0.000 NA
ATOM     11  C   UNL     1       0.422  10.842  21.137  0.00  0.00    +0.000 A 
ATOM     12  C   UNL     1      -0.149  12.107  21.171  0.00  0.00    +0.000 A 
ATOM     13  C   UNL     1      -0.464  12.790  19.999  0.00  0.00    +0.000 A 
ATOM     14  C   UNL     1      -0.208  12.187  18.776  0.00  0.00    +0.000 A 
ATOM     15  C   UNL     1       0.308  10.886  18.735  0.00  0.00    +0.000 A 
ATOM     16  C   UNL     1       0.615  10.181  19.896  0.00  0.00    +0.000 A 
ATOM     17  N   UNL     1       1.087   8.906  19.835  0.00  0.00    +0.000 NA
ATOM     18  H   UNL     1       1.482   6.586  21.998  0.00  0.00    +0.000 HD
ENDBRANCH   5   7
BRANCH   1  20
ATOM     19  C   UNL     1       5.054   5.428  17.059  0.00  0.00    +0.000 C 
ATOM     20  C   UNL     1       4.016   4.603  17.253  0.00  0.00    +0.000 C 
BRANCH  19  21
ATOM     21  C   UNL     1       6.023   5.118  15.990  0.00  0.00    +0.000 C 
ATOM     22  O   UNL     1       5.742   4.638  14.902  0.00  0.00    +0.000 OA
BRANCH  21  23
ATOM     23  O   UNL     1       7.261   5.369  16.478  0.00  0.00    +0.000 OA
BRANCH  23  25
ATOM     24  C   UNL     1       7.859   5.798  18.754  0.00  0.00    +0.000 C 
ATOM     25  C   UNL     1       7.565   4.725  17.721  0.00  0.00    +0.000 C 
ENDBRANCH  23  25
ENDBRANCH  21  23
ENDBRANCH  19  21
ENDBRANCH   1  20
TORSDOF 5
ENDMDL
MODEL 5
REMARK VINA RESULT:      -7.8      3.666      5.018
REMARK  Name = 
REMARK  6 active torsions:
REMARK  status: ('A' for Active; 'I' for Inactive)
REMARK    1  A    between atoms: C_1  and  C_2
REMARK    2  A    between atoms: C_2  and  O_3
REMARK    3  A    between atoms: O_3  and  C_4
REMARK    4  A    between atoms: C_4  and  C_6
REMARK    5  A    between atoms: C_7  and  C_8
REMARK    6  A    between atoms: C_12  and  N_13
REMARK                            x       y       z     vdW  Elec       q    Type
REMARK                         _______ _______ _______ _____ _____    ______ ____
ROOT
ATOM      1  C   UNL     1       2.313   6.519  19.684  0.00  0.00    +0.000 A 
ATOM      2  C   UNL     1       3.059   6.672  18.507  0.00  0.00    +0.000 A 
ATOM      3  C   UNL     1       2.998   7.855  17.783  0.00  0.00    +0.000 A 
ATOM      4  C   UNL     1       2.196   8.895  18.241  0.00  0.00    +0.000 A 
ATOM      5  C   UNL     1       1.458   8.792  19.437  0.00  0.00    +0.000 A 
ATOM      6  C   UNL     1       1.510   7.584  20.139  0.00  0.00    +0.000 A 
ENDROOT
BRANCH   5   7
ATOM      7  N   UNL     1       0.632   9.887  19.775  0.00  0.00    +0.000 N 
ATOM      8  C   UNL     1      -0.553  10.421  19.206  0.00  0.00    +0.000 A 
ATOM      9  C   UNL     1      -1.148  11.485  19.894  0.00  0.00    +0.000 A 
ATOM     10  N   UNL     1      -2.345  12.028  19.585  0.00  0.00    +0.000 NA
ATOM     11  C   UNL     1      -2.934  11.532  18.491  0.00  0.00    +0.000 A 
ATOM     12  C   UNL     1      -4.183  12.022  18.133  0.00  0.00    +0.000 A 
ATOM     13  C   UNL     1      -4.806  11.621  16.954  0.00  0.00    +0.000 A 
ATOM     14  C   UNL     1      -4.167  10.708  16.128  0.00  0.00    +0.000 A 
ATOM     15  C   UNL     1      -2.937  10.161  16.514  0.00  0.00    +0.000 A 
ATOM     16  C   UNL     1      -2.305  10.538  17.697  0.00  0.00    +0.000 A 
ATOM     17  N   UNL     1      -1.124   9.972  18.069  0.00  0.00    +0.000 NA
ATOM     18  H   UNL     1       0.560   9.951  20.786  0.00  0.00    +0.000 HD
ENDBRANCH   5   7
BRANCH   1  20
ATOM     19  C   UNL     1       1.485   4.317  20.502  0.00  0.00    +0.000 C 
ATOM     20  C   UNL     1       2.449   5.241  20.395  0.00  0.00    +0.000 C 
BRANCH  19  21
ATOM     21  C   UNL     1       1.805   3.020  21.129  0.00  0.00    +0.000 C 
ATOM     22  O   UNL     1       2.331   2.877  22.222  0.00  0.00    +0.000 OA
BRANCH  21  23
ATOM     23  O   UNL     1       1.500   2.049  20.235  0.00  0.00    +0.000 OA
BRANCH  23  25
ATOM     24  C   UNL     1       3.193   1.756  18.571  0.00  0.00    +0.000 C 
ATOM     25  C   UNL     1       1.830   2.352  18.874  0.00  0.00    +0.000 C 
ENDBRANCH  23  25
ENDBRANCH  21  23
ENDBRANCH  19  21
ENDBRANCH   1  20
TORSDOF 5
ENDMDL
MODEL 6
REMARK VINA RESULT:      -7.8      1.215      1.309
REMARK  Name = 
REMARK  6 active torsions:
REMARK  status: ('A' for Active; 'I' for Inactive)
REMARK    1  A    between atoms: C_1  and  C_2
REMARK    2  A    between atoms: C_2  and  O_3
REMARK    3  A    between atoms: O_3  and  C_4
REMARK    4  A    between atoms: C_4  and  C_6
REMARK    5  A    between atoms: C_7  and  C_8
REMARK    6  A    between atoms: C_12  and  N_13
REMARK                            x       y       z     vdW  Elec       q    Type
REMARK                         _______ _______ _______ _____ _____    ______ ____
ROOT
ATOM      1  C   UNL     1       3.300   5.527  18.466  0.00  0.00    +0.000 A 
ATOM      2  C   UNL     1       2.525   4.359  18.492  0.00  0.00    +0.000 A 
ATOM      3  C   UNL     1       1.521   4.202  19.438  0.00  0.00    +0.000 A 
ATOM      4  C   UNL     1       1.281   5.220  20.356  0.00  0.00    +0.000 A 
ATOM      5  C   UNL     1       2.017   6.422  20.340  0.00  0.00    +0.000 A 
ATOM      6  C   UNL     1       3.042   6.552  19.398  0.00  0.00    +0.000 A 
ENDROOT
BRANCH   5   7
ATOM      7  N   UNL     1       1.729   7.360  21.355  0.00  0.00    +0.000 N 
ATOM      8  C   UNL     1       1.026   8.593  21.367  0.00  0.00    +0.000 A 
ATOM      9  C   UNL     1       0.869   9.206  22.615  0.00  0.00    +0.000 A 
ATOM     10  N   UNL     1       0.115  10.303  22.843  0.00  0.00    +0.000 NA
ATOM     11  C   UNL     1      -0.441  10.853  21.758  0.00  0.00    +0.000 A 
ATOM     12  C   UNL     1      -1.255  11.966  21.924  0.00  0.00    +0.000 A 
ATOM     13  C   UNL     1      -1.784  12.645  20.829  0.00  0.00    +0.000 A 
ATOM     14  C   UNL     1      -1.495  12.192  19.549  0.00  0.00    +0.000 A 
ATOM     15  C   UNL     1      -0.727  11.034  19.376  0.00  0.00    +0.000 A 
ATOM     16  C   UNL     1      -0.203  10.332  20.460  0.00  0.00    +0.000 A 
ATOM     17  N   UNL     1       0.515   9.191  20.271  0.00  0.00    +0.000 NA
ATOM     18  H   UNL     1       1.525   6.866  22.218  0.00  0.00    +0.000 HD
ENDBRANCH   5   7
BRANCH   1  20
ATOM     19  C   UNL     1       5.367   6.466  17.439  0.00  0.00    +0.000 C 
ATOM     20  C   UNL     1       4.331   5.617  17.423  0.00  0.00    +0.000 C 
BRANCH  19  21
ATOM     21  C   UNL     1       6.400   6.352  16.392  0.00  0.00    +0.000 C 
ATOM     22  O   UNL     1       7.576   6.654  16.528  0.00  0.00    +0.000 OA
BRANCH  21  23
ATOM     23  O   UNL     1       5.785   5.954  15.253  0.00  0.00    +0.000 OA
BRANCH  23  25
ATOM     24  C   UNL     1       5.924   3.651  14.619  0.00  0.00    +0.000 C 
ATOM     25  C   UNL     1       6.532   5.032  14.450  0.00  0.00    +0.000 C 
ENDBRANCH  23  25
ENDBRANCH  21  23
ENDBRANCH  19  21
ENDBRANCH   1  20
TORSDOF 5
ENDMDL
MODEL 7
REMARK VINA RESULT:      -7.7      1.393      2.074
REMARK  Name = 
REMARK  6 active torsions:
REMARK  status: ('A' for Active; 'I' for Inactive)
REMARK    1  A    between atoms: C_1  and  C_2
REMARK    2  A    between atoms: C_2  and  O_3
REMARK    3  A    between atoms: O_3  and  C_4
REMARK    4  A    between atoms: C_4  and  C_6
REMARK    5  A    between atoms: C_7  and  C_8
REMARK    6  A    between atoms: C_12  and  N_13
REMARK                            x       y       z     vdW  Elec       q    Type
REMARK                         _______ _______ _______ _____ _____    ______ ____
ROOT
ATOM      1  C   UNL     1       3.093   5.677  18.474  0.00  0.00    +0.000 A 
ATOM      2  C   UNL     1       2.424   4.452  18.601  0.00  0.00    +0.000 A 
ATOM      3  C   UNL     1       1.528   4.243  19.642  0.00  0.00    +0.000 A 
ATOM      4  C   UNL     1       1.291   5.266  20.554  0.00  0.00    +0.000 A 
ATOM      5  C   UNL     1       1.919   6.523  20.440  0.00  0.00    +0.000 A 
ATOM      6  C   UNL     1       2.838   6.706  19.402  0.00  0.00    +0.000 A 
ENDROOT
BRANCH   5   7
ATOM      7  N   UNL     1       1.650   7.466  21.456  0.00  0.00    +0.000 N 
ATOM      8  C   UNL     1       0.905   8.673  21.487  0.00  0.00    +0.000 A 
ATOM      9  C   UNL     1       0.789   9.299  22.734  0.00  0.00    +0.000 A 
ATOM     10  N   UNL     1       0.009  10.373  22.986  0.00  0.00    +0.000 NA
ATOM     11  C   UNL     1      -0.620  10.887  21.923  0.00  0.00    +0.000 A 
ATOM     12  C   UNL     1      -1.463  11.973  22.115  0.00  0.00    +0.000 A 
ATOM     13  C   UNL     1      -2.070  12.616  21.040  0.00  0.00    +0.000 A 
ATOM     14  C   UNL     1      -1.830  12.155  19.753  0.00  0.00    +0.000 A 
ATOM     15  C   UNL     1      -1.031  11.022  19.557  0.00  0.00    +0.000 A 
ATOM     16  C   UNL     1      -0.429  10.355  20.621  0.00  0.00    +0.000 A 
ATOM     17  N   UNL     1       0.319   9.237  20.411  0.00  0.00    +0.000 NA
ATOM     18  H   UNL     1       1.507   6.977  22.335  0.00  0.00    +0.000 HD
ENDBRANCH   5   7
BRANCH   1  20
ATOM     19  C   UNL     1       4.650   4.805  16.736  0.00  0.00    +0.000 C 
ATOM     20  C   UNL     1       4.011   5.818  17.336  0.00  0.00    +0.000 C 
BRANCH  19  21
ATOM     21  C   UNL     1       5.436   5.076  15.518  0.00  0.00    +0.000 C 
ATOM     22  O   UNL     1       5.438   4.383  14.512  0.00  0.00    +0.000 OA
BRANCH  21  23
ATOM     23  O   UNL     1       6.210   6.160  15.766  0.00  0.00    +0.000 OA
BRANCH  23  25
ATOM     24  C   UNL     1       7.445   7.247  17.502  0.00  0.00    +0.000 C 
ATOM     25  C   UNL     1       7.250   5.955  16.730  0.00  0.00    +0.000 C 
ENDBRANCH  23  25
ENDBRANCH  21  23
ENDBRANCH  19  21
ENDBRANCH   1  20
TORSDOF 5
ENDMDL
MODEL 8
REMARK VINA RESULT:      -7.6      1.381      2.191
REMARK  Name = 
REMARK  6 active torsions:
REMARK  status: ('A' for Active; 'I' for Inactive)
REMARK    1  A    between atoms: C_1  and  C_2
REMARK    2  A    between atoms: C_2  and  O_3
REMARK    3  A    between atoms: O_3  and  C_4
REMARK    4  A    between atoms: C_4  and  C_6
REMARK    5  A    between atoms: C_7  and  C_8
REMARK    6  A    between atoms: C_12  and  N_13
REMARK                            x       y       z     vdW  Elec       q    Type
REMARK                         _______ _______ _______ _____ _____    ______ ____
ROOT
ATOM      1  C   UNL     1       4.232   5.721  17.260  0.00  0.00    +0.000 A 
ATOM      2  C   UNL     1       4.086   4.994  18.450  0.00  0.00    +0.000 A 
ATOM      3  C   UNL     1       3.299   5.484  19.483  0.00  0.00    +0.000 A 
ATOM      4  C   UNL     1       2.645   6.702  19.324  0.00  0.00    +0.000 A 
ATOM      5  C   UNL     1       2.741   7.446  18.130  0.00  0.00    +0.000 A 
ATOM      6  C   UNL     1       3.559   6.950  17.111  0.00  0.00    +0.000 A 
ENDROOT
BRANCH   5   7
ATOM      7  N   UNL     1       2.084   8.696  18.102  0.00  0.00    +0.000 N 
ATOM      8  C   UNL     1       1.306   9.405  19.053  0.00  0.00    +0.000 A 
ATOM      9  C   UNL     1       0.891  10.689  18.683  0.00  0.00    +0.000 A 
ATOM     10  N   UNL     1       0.267  11.562  19.502  0.00  0.00    +0.000 NA
ATOM     11  C   UNL     1      -0.023  11.097  20.723  0.00  0.00    +0.000 A 
ATOM     12  C   UNL     1      -0.637  11.953  21.628  0.00  0.00    +0.000 A 
ATOM     13  C   UNL     1      -1.053  11.504  22.878  0.00  0.00    +0.000 A 
ATOM     14  C   UNL     1      -0.842  10.177  23.225  0.00  0.00    +0.000 A 
ATOM     15  C   UNL     1      -0.167   9.325  22.343  0.00  0.00    +0.000 A 
ATOM     16  C   UNL     1       0.271   9.760  21.094  0.00  0.00    +0.000 A 
ATOM     17  N   UNL     1       0.953   8.924  20.263  0.00  0.00    +0.000 NA
ATOM     18  H   UNL     1       2.658   9.362  17.595  0.00  0.00    +0.000 HD
ENDBRANCH   5   7
BRANCH   1  20
ATOM     19  C   UNL     1       5.909   5.799  15.420  0.00  0.00    +0.000 C 
ATOM     20  C   UNL     1       5.071   5.121  16.213  0.00  0.00    +0.000 C 
BRANCH  19  21
ATOM     21  C   UNL     1       6.791   5.050  14.504  0.00  0.00    +0.000 C 
ATOM     22  O   UNL     1       7.849   5.461  14.052  0.00  0.00    +0.000 OA
BRANCH  21  23
ATOM     23  O   UNL     1       6.164   3.891  14.192  0.00  0.00    +0.000 OA
BRANCH  23  25
ATOM     24  C   UNL     1       4.891   3.523  12.200  0.00  0.00    +0.000 C 
ATOM     25  C   UNL     1       6.276   3.489  12.822  0.00  0.00    +0.000 C 
ENDBRANCH  23  25
ENDBRANCH  21  23
ENDBRANCH  19  21
ENDBRANCH   1  20
TORSDOF 5
ENDMDL
MODEL 9
REMARK VINA RESULT:      -7.6      1.265      1.522
REMARK  Name = 
REMARK  6 active torsions:
REMARK  status: ('A' for Active; 'I' for Inactive)
REMARK    1  A    between atoms: C_1  and  C_2
REMARK    2  A    between atoms: C_2  and  O_3
REMARK    3  A    between atoms: O_3  and  C_4
REMARK    4  A    between atoms: C_4  and  C_6
REMARK    5  A    between atoms: C_7  and  C_8
REMARK    6  A    between atoms: C_12  and  N_13
REMARK                            x       y       z     vdW  Elec       q    Type
REMARK                         _______ _______ _______ _____ _____    ______ ____
ROOT
ATOM      1  C   UNL     1       3.690   4.451  19.030  0.00  0.00    +0.000 A 
ATOM      2  C   UNL     1       2.690   3.494  18.804  0.00  0.00    +0.000 A 
ATOM      3  C   UNL     1       1.435   3.636  19.381  0.00  0.00    +0.000 A 
ATOM      4  C   UNL     1       1.173   4.745  20.180  0.00  0.00    +0.000 A 
ATOM      5  C   UNL     1       2.141   5.744  20.404  0.00  0.00    +0.000 A 
ATOM      6  C   UNL     1       3.408   5.571  19.837  0.00  0.00    +0.000 A 
ENDROOT
BRANCH   5   7
ATOM      7  N   UNL     1       1.785   6.793  21.280  0.00  0.00    +0.000 N 
ATOM      8  C   UNL     1       1.393   8.141  21.072  0.00  0.00    +0.000 A 
ATOM      9  C   UNL     1       1.021   8.863  22.211  0.00  0.00    +0.000 A 
ATOM     10  N   UNL     1       0.490  10.104  22.197  0.00  0.00    +0.000 NA
ATOM     11  C   UNL     1       0.401  10.675  20.990  0.00  0.00    +0.000 A 
ATOM     12  C   UNL     1      -0.165  11.940  20.898  0.00  0.00    +0.000 A 
ATOM     13  C   UNL     1      -0.198  12.631  19.689  0.00  0.00    +0.000 A 
ATOM     14  C   UNL     1       0.340  12.037  18.556  0.00  0.00    +0.000 A 
ATOM     15  C   UNL     1       0.855  10.736  18.629  0.00  0.00    +0.000 A 
ATOM     16  C   UNL     1       0.882  10.024  19.825  0.00  0.00    +0.000 A 
ATOM     17  N   UNL     1       1.359   8.749  19.868  0.00  0.00    +0.000 NA
ATOM     18  H   UNL     1       1.241   6.415  22.049  0.00  0.00    +0.000 HD
ENDBRANCH   5   7
BRANCH   1  20
ATOM     19  C   UNL     1       5.865   5.192  18.067  0.00  0.00    +0.000 C 
ATOM     20  C   UNL     1       4.983   4.230  18.368  0.00  0.00    +0.000 C 
BRANCH  19  21
ATOM     21  C   UNL     1       7.183   4.809  17.526  0.00  0.00    +0.000 C 
ATOM     22  O   UNL     1       8.095   4.318  18.174  0.00  0.00    +0.000 OA
BRANCH  21  23
ATOM     23  O   UNL     1       7.217   5.192  16.227  0.00  0.00    +0.000 OA
BRANCH  23  25
ATOM     24  C   UNL     1       5.640   4.725  14.490  0.00  0.00    +0.000 C 
ATOM     25  C   UNL     1       6.814   4.188  15.288  0.00  0.00    +0.000 C 
ENDBRANCH  23  25
ENDBRANCH  21  23
ENDBRANCH  19  21
ENDBRANCH   1  20
TORSDOF 5
ENDMDL
