MODEL 1
REMARK VINA RESULT:      -7.0      0.000      0.000
REMARK  Name = 
REMARK  14 active torsions:
REMARK  status: ('A' for Active; 'I' for Inactive)
REMARK    1  A    between atoms: C_1  and  C_2
REMARK    2  A    between atoms: C_2  and  C_3
REMARK    3  A    between atoms: C_3  and  O_4
REMARK    4  A    between atoms: O_4  and  C_5
REMARK    5  A    between atoms: C_5  and  C_6
REMARK    6  A    between atoms: C_6  and  N_7
REMARK    7  A    between atoms: N_11  and  C_12
REMARK    8  A    between atoms: C_12  and  C_13
REMARK    9  A    between atoms: C_13  and  O_14
REMARK   10  A    between atoms: O_14  and  C_15
REMARK   11  A    between atoms: C_15  and  C_16
REMARK   12  A    between atoms: C_21  and  C_22
REMARK   13  A    between atoms: C_25  and  O_26
REMARK   14  A    between atoms: O_26  and  C_27
REMARK                            x       y       z     vdW  Elec       q    Type
REMARK                         _______ _______ _______ _____ _____    ______ ____
ROOT
ATOM      1  N   UNL     1       0.276  10.276  19.161  0.00  0.00    +0.000 N 
ATOM      2  C   UNL     1       1.274   9.428  18.685  0.00  0.00    +0.000 A 
ATOM      3  O   UNL     1       1.776   9.478  17.562  0.00  0.00    +0.000 OA
ATOM      4  C   UNL     1       1.752   8.305  19.624  0.00  0.00    +0.000 A 
ATOM      5  N   UNL     1       2.546   7.340  19.053  0.00  0.00    +0.000 N 
ATOM      6  N   UNL     1       1.396   8.268  20.877  0.00  0.00    +0.000 NA
ATOM      7  C   UNL     1       0.569   9.288  21.367  0.00  0.00    +0.000 A 
ATOM      8  C   UNL     1       0.334   9.381  22.739  0.00  0.00    +0.000 A 
ATOM      9  N   UNL     1      -0.430  10.331  23.339  0.00  0.00    +0.000 NA
ATOM     10  C   UNL     1      -1.031  11.234  22.532  0.00  0.00    +0.000 A 
ATOM     11  C   UNL     1      -0.910  11.161  21.143  0.00  0.00    +0.000 A 
ATOM     12  C   UNL     1      -0.047  10.239  20.550  0.00  0.00    +0.000 A 
ATOM     13  H   UNL     1       2.971   7.557  18.151  0.00  0.00    +0.000 HD
ENDROOT
BRANCH  10  14
ATOM     14  C   UNL     1      -1.753  12.345  23.178  0.00  0.00    +0.000 A 
ATOM     15  C   UNL     1      -3.082  12.255  23.608  0.00  0.00    +0.000 A 
ATOM     16  C   UNL     1      -3.707  13.354  24.208  0.00  0.00    +0.000 A 
ATOM     17  C   UNL     1      -2.982  14.525  24.366  0.00  0.00    +0.000 A 
ATOM     18  N   UNL     1      -1.699  14.654  23.988  0.00  0.00    +0.000 NA
ATOM     19  C   UNL     1      -1.122  13.568  23.429  0.00  0.00    +0.000 A 
BRANCH  17  20
ATOM     20  O   UNL     1      -3.621  15.595  24.954  0.00  0.00    +0.000 OA
ATOM     21  C   UNL     1      -4.845  15.926  24.298  0.00  0.00    +0.000 C 
ENDBRANCH  17  20
ENDBRANCH  10  14
BRANCH   1  22
ATOM     22  C   UNL     1      -0.160  11.358  18.278  0.00  0.00    +0.000 C 
BRANCH  22  23
ATOM     23  C   UNL     1      -1.619  11.251  17.826  0.00  0.00    +0.000 C 
BRANCH  23  24
ATOM     24  O   UNL     1      -1.764  10.071  17.029  0.00  0.00    +0.000 OA
BRANCH  24  25
ATOM     25  C   UNL     1      -3.142   9.749  16.845  0.00  0.00    +0.000 C 
BRANCH  25  27
ATOM     26  C   UNL     1      -3.049  10.106  14.368  0.00  0.00    +0.000 C 
ATOM     27  C   UNL     1      -3.683  10.553  15.672  0.00  0.00    +0.000 C 
ENDBRANCH  25  27
ENDBRANCH  24  25
ENDBRANCH  23  24
ENDBRANCH  22  23
ENDBRANCH   1  22
BRANCH   5  28
ATOM     28  C   UNL     1       2.880   6.073  19.658  0.00  0.00    +0.000 C 
BRANCH  28  29
ATOM     29  C   UNL     1       2.716   4.942  18.636  0.00  0.00    +0.000 C 
BRANCH  29  30
ATOM     30  O   UNL     1       3.958   4.249  18.479  0.00  0.00    +0.000 OA
BRANCH  30  31
ATOM     31  C   UNL     1       3.883   3.265  17.447  0.00  0.00    +0.000 C 
ATOM     32  C   UNL     1       2.562   2.534  17.570  0.00  0.00    +0.000 C 
ENDBRANCH  30  31
ENDBRANCH  29  30
ENDBRANCH  28  29
ENDBRANCH   5  28
TORSDOF 11
ENDMDL
MODEL 2
REMARK VINA RESULT:      -6.9      1.159      1.495
REMARK  Name = 
REMARK  14 active torsions:
REMARK  status: ('A' for Active; 'I' for Inactive)
REMARK    1  A    between atoms: C_1  and  C_2
REMARK    2  A    between atoms: C_2  and  C_3
REMARK    3  A    between atoms: C_3  and  O_4
REMARK    4  A    between atoms: O_4  and  C_5
REMARK    5  A    between atoms: C_5  and  C_6
REMARK    6  A    between atoms: C_6  and  N_7
REMARK    7  A    between atoms: N_11  and  C_12
REMARK    8  A    between atoms: C_12  and  C_13
REMARK    9  A    between atoms: C_13  and  O_14
REMARK   10  A    between atoms: O_14  and  C_15
REMARK   11  A    between atoms: C_15  and  C_16
REMARK   12  A    between atoms: C_21  and  C_22
REMARK   13  A    between atoms: C_25  and  O_26
REMARK   14  A    between atoms: O_26  and  C_27
REMARK                            x       y       z     vdW  Elec       q    Type
REMARK                         _______ _______ _______ _____ _____    ______ ____
ROOT
ATOM      1  N   UNL     1       0.287  10.176  19.105  0.00  0.00    +0.000 N 
ATOM      2  C   UNL     1       1.283   9.333  18.617  0.00  0.00    +0.000 A 
ATOM      3  O   UNL     1       1.750   9.365  17.478  0.00  0.00    +0.000 OA
ATOM      4  C   UNL     1       1.806   8.237  19.565  0.00  0.00    +0.000 A 
ATOM      5  N   UNL     1       2.597   7.272  18.991  0.00  0.00    +0.000 N 
ATOM      6  N   UNL     1       1.488   8.223  20.829  0.00  0.00    +0.000 NA
ATOM      7  C   UNL     1       0.661   9.242  21.322  0.00  0.00    +0.000 A 
ATOM      8  C   UNL     1       0.466   9.361  22.698  0.00  0.00    +0.000 A 
ATOM      9  N   UNL     1      -0.294  10.314  23.300  0.00  0.00    +0.000 NA
ATOM     10  C   UNL     1      -0.932  11.189  22.493  0.00  0.00    +0.000 A 
ATOM     11  C   UNL     1      -0.852  11.087  21.102  0.00  0.00    +0.000 A 
ATOM     12  C   UNL     1       0.006  10.165  20.503  0.00  0.00    +0.000 A 
ATOM     13  H   UNL     1       2.991   7.475  18.073  0.00  0.00    +0.000 HD
ENDROOT
BRANCH  10  14
ATOM     14  C   UNL     1      -1.652  12.304  23.136  0.00  0.00    +0.000 A 
ATOM     15  C   UNL     1      -1.086  13.565  23.353  0.00  0.00    +0.000 A 
ATOM     16  C   UNL     1      -1.826  14.575  23.976  0.00  0.00    +0.000 A 
ATOM     17  C   UNL     1      -3.126  14.298  24.370  0.00  0.00    +0.000 A 
ATOM     18  N   UNL     1      -3.720  13.110  24.167  0.00  0.00    +0.000 NA
ATOM     19  C   UNL     1      -2.982  12.164  23.547  0.00  0.00    +0.000 A 
BRANCH  17  20
ATOM     20  O   UNL     1      -3.833  15.307  24.988  0.00  0.00    +0.000 OA
ATOM     21  C   UNL     1      -4.410  16.217  24.052  0.00  0.00    +0.000 C 
ENDBRANCH  17  20
ENDBRANCH  10  14
BRANCH   1  22
ATOM     22  C   UNL     1      -0.193  11.232  18.213  0.00  0.00    +0.000 C 
BRANCH  22  23
ATOM     23  C   UNL     1      -1.344  10.807  17.297  0.00  0.00    +0.000 C 
BRANCH  23  24
ATOM     24  O   UNL     1      -2.447  11.696  17.509  0.00  0.00    +0.000 OA
BRANCH  24  25
ATOM     25  C   UNL     1      -3.610  11.231  16.826  0.00  0.00    +0.000 C 
BRANCH  25  27
ATOM     26  C   UNL     1      -3.481  10.187  14.554  0.00  0.00    +0.000 C 
ATOM     27  C   UNL     1      -3.253   9.979  16.040  0.00  0.00    +0.000 C 
ENDBRANCH  25  27
ENDBRANCH  24  25
ENDBRANCH  23  24
ENDBRANCH  22  23
ENDBRANCH   1  22
BRANCH   5  28
ATOM     28  C   UNL     1       2.969   6.024  19.614  0.00  0.00    +0.000 C 
BRANCH  28  29
ATOM     29  C   UNL     1       2.478   4.845  18.763  0.00  0.00    +0.000 C 
BRANCH  29  30
ATOM     30  O   UNL     1       2.332   3.683  19.586  0.00  0.00    +0.000 OA
BRANCH  30  31
ATOM     31  C   UNL     1       1.637   3.982  20.796  0.00  0.00    +0.000 C 
ATOM     32  C   UNL     1       1.542   2.717  21.626  0.00  0.00    +0.000 C 
ENDBRANCH  30  31
ENDBRANCH  29  30
ENDBRANCH  28  29
ENDBRANCH   5  28
TORSDOF 11
ENDMDL
MODEL 3
REMARK VINA RESULT:      -6.9      3.729      6.631
REMARK  Name = 
REMARK  14 active torsions:
REMARK  status: ('A' for Active; 'I' for Inactive)
REMARK    1  A    between atoms: C_1  and  C_2
REMARK    2  A    between atoms: C_2  and  C_3
REMARK    3  A    between atoms: C_3  and  O_4
REMARK    4  A    between atoms: O_4  and  C_5
REMARK    5  A    between atoms: C_5  and  C_6
REMARK    6  A    between atoms: C_6  and  N_7
REMARK    7  A    between atoms: N_11  and  C_12
REMARK    8  A    between atoms: C_12  and  C_13
REMARK    9  A    between atoms: C_13  and  O_14
REMARK   10  A    between atoms: O_14  and  C_15
REMARK   11  A    between atoms: C_15  and  C_16
REMARK   12  A    between atoms: C_21  and  C_22
REMARK   13  A    between atoms: C_25  and  O_26
REMARK   14  A    between atoms: O_26  and  C_27
REMARK                            x       y       z     vdW  Elec       q    Type
REMARK                         _______ _______ _______ _____ _____    ______ ____
ROOT
ATOM      1  N   UNL     1       3.248   5.522  19.954  0.00  0.00    +0.000 N 
ATOM      2  C   UNL     1       4.164   4.580  19.490  0.00  0.00    +0.000 A 
ATOM      3  O   UNL     1       4.297   3.437  19.930  0.00  0.00    +0.000 OA
ATOM      4  C   UNL     1       5.122   5.022  18.369  0.00  0.00    +0.000 A 
ATOM      5  N   UNL     1       6.169   4.172  18.101  0.00  0.00    +0.000 N 
ATOM      6  N   UNL     1       4.956   6.149  17.736  0.00  0.00    +0.000 NA
ATOM      7  C   UNL     1       3.867   6.959  18.090  0.00  0.00    +0.000 A 
ATOM      8  C   UNL     1       3.554   8.068  17.304  0.00  0.00    +0.000 A 
ATOM      9  N   UNL     1       2.517   8.918  17.528  0.00  0.00    +0.000 NA
ATOM     10  C   UNL     1       1.756   8.680  18.618  0.00  0.00    +0.000 A 
ATOM     11  C   UNL     1       2.052   7.638  19.499  0.00  0.00    +0.000 A 
ATOM     12  C   UNL     1       3.059   6.720  19.203  0.00  0.00    +0.000 A 
ATOM     13  H   UNL     1       6.101   3.220  18.459  0.00  0.00    +0.000 HD
ENDROOT
BRANCH  10  14
ATOM     14  C   UNL     1       0.553   9.514  18.799  0.00  0.00    +0.000 A 
ATOM     15  C   UNL     1       0.256  10.193  19.985  0.00  0.00    +0.000 A 
ATOM     16  C   UNL     1      -0.908  10.963  20.088  0.00  0.00    +0.000 A 
ATOM     17  C   UNL     1      -1.755  11.034  18.993  0.00  0.00    +0.000 A 
ATOM     18  N   UNL     1      -1.504  10.416  17.826  0.00  0.00    +0.000 NA
ATOM     19  C   UNL     1      -0.363   9.698  17.757  0.00  0.00    +0.000 A 
BRANCH  17  20
ATOM     20  O   UNL     1      -2.898  11.792  19.120  0.00  0.00    +0.000 OA
ATOM     21  C   UNL     1      -3.854  11.510  18.098  0.00  0.00    +0.000 C 
ENDBRANCH  17  20
ENDBRANCH  10  14
BRANCH   1  22
ATOM     22  C   UNL     1       2.321   5.094  21.003  0.00  0.00    +0.000 C 
BRANCH  22  23
ATOM     23  C   UNL     1       0.989   4.551  20.481  0.00  0.00    +0.000 C 
BRANCH  23  24
ATOM     24  O   UNL     1       1.066   3.121  20.432  0.00  0.00    +0.000 OA
BRANCH  24  25
ATOM     25  C   UNL     1       0.682   2.635  19.147  0.00  0.00    +0.000 C 
BRANCH  25  27
ATOM     26  C   UNL     1       2.442   2.448  17.375  0.00  0.00    +0.000 C 
ATOM     27  C   UNL     1       1.811   1.784  18.585  0.00  0.00    +0.000 C 
ENDBRANCH  25  27
ENDBRANCH  24  25
ENDBRANCH  23  24
ENDBRANCH  22  23
ENDBRANCH   1  22
BRANCH   5  28
ATOM     28  C   UNL     1       7.322   4.502  17.299  0.00  0.00    +0.000 C 
BRANCH  28  29
ATOM     29  C   UNL     1       7.057   4.150  15.829  0.00  0.00    +0.000 C 
BRANCH  29  30
ATOM     30  O   UNL     1       7.606   5.166  14.983  0.00  0.00    +0.000 OA
BRANCH  30  31
ATOM     31  C   UNL     1       7.228   4.973  13.621  0.00  0.00    +0.000 C 
ATOM     32  C   UNL     1       8.244   5.666  12.734  0.00  0.00    +0.000 C 
ENDBRANCH  30  31
ENDBRANCH  29  30
ENDBRANCH  28  29
ENDBRANCH   5  28
TORSDOF 11
ENDMDL
MODEL 4
REMARK VINA RESULT:      -6.9      0.927      1.166
REMARK  Name = 
REMARK  14 active torsions:
REMARK  status: ('A' for Active; 'I' for Inactive)
REMARK    1  A    between atoms: C_1  and  C_2
REMARK    2  A    between atoms: C_2  and  C_3
REMARK    3  A    between atoms: C_3  and  O_4
REMARK    4  A    between atoms: O_4  and  C_5
REMARK    5  A    between atoms: C_5  and  C_6
REMARK    6  A    between atoms: C_6  and  N_7
REMARK    7  A    between atoms: N_11  and  C_12
REMARK    8  A    between atoms: C_12  and  C_13
REMARK    9  A    between atoms: C_13  and  O_14
REMARK   10  A    between atoms: O_14  and  C_15
REMARK   11  A    between atoms: C_15  and  C_16
REMARK   12  A    between atoms: C_21  and  C_22
REMARK   13  A    between atoms: C_25  and  O_26
REMARK   14  A    between atoms: O_26  and  C_27
REMARK                            x       y       z     vdW  Elec       q    Type
REMARK                         _______ _______ _______ _____ _____    ______ ____
ROOT
ATOM      1  N   UNL     1       0.263   9.888  19.264  0.00  0.00    +0.000 N 
ATOM      2  C   UNL     1       1.263   9.019  18.832  0.00  0.00    +0.000 A 
ATOM      3  O   UNL     1       1.728   8.977  17.692  0.00  0.00    +0.000 OA
ATOM      4  C   UNL     1       1.791   7.992  19.850  0.00  0.00    +0.000 A 
ATOM      5  N   UNL     1       2.587   6.994  19.341  0.00  0.00    +0.000 N 
ATOM      6  N   UNL     1       1.476   8.061  21.112  0.00  0.00    +0.000 NA
ATOM      7  C   UNL     1       0.645   9.107  21.537  0.00  0.00    +0.000 A 
ATOM      8  C   UNL     1       0.451   9.317  22.902  0.00  0.00    +0.000 A 
ATOM      9  N   UNL     1      -0.313  10.304  23.441  0.00  0.00    +0.000 NA
ATOM     10  C   UNL     1      -0.956  11.120  22.578  0.00  0.00    +0.000 A 
ATOM     11  C   UNL     1      -0.878  10.926  21.197  0.00  0.00    +0.000 A 
ATOM     12  C   UNL     1      -0.015   9.970  20.660  0.00  0.00    +0.000 A 
ATOM     13  H   UNL     1       2.979   7.137  18.410  0.00  0.00    +0.000 HD
ENDROOT
BRANCH  10  14
ATOM     14  C   UNL     1      -1.680  12.272  23.146  0.00  0.00    +0.000 A 
ATOM     15  C   UNL     1      -1.107  13.538  23.314  0.00  0.00    +0.000 A 
ATOM     16  C   UNL     1      -1.853  14.585  23.867  0.00  0.00    +0.000 A 
ATOM     17  C   UNL     1      -3.164  14.339  24.242  0.00  0.00    +0.000 A 
ATOM     18  N   UNL     1      -3.765  13.148  24.083  0.00  0.00    +0.000 NA
ATOM     19  C   UNL     1      -3.021  12.166  23.530  0.00  0.00    +0.000 A 
BRANCH  17  20
ATOM     20  O   UNL     1      -3.876  15.384  24.790  0.00  0.00    +0.000 OA
ATOM     21  C   UNL     1      -3.064  16.536  25.017  0.00  0.00    +0.000 C 
ENDBRANCH  17  20
ENDBRANCH  10  14
BRANCH   1  22
ATOM     22  C   UNL     1      -0.223  10.880  18.303  0.00  0.00    +0.000 C 
BRANCH  22  23
ATOM     23  C   UNL     1      -1.416  10.413  17.466  0.00  0.00    +0.000 C 
BRANCH  23  24
ATOM     24  O   UNL     1      -2.459  11.388  17.575  0.00  0.00    +0.000 OA
BRANCH  24  25
ATOM     25  C   UNL     1      -3.489  11.138  16.620  0.00  0.00    +0.000 C 
BRANCH  25  27
ATOM     26  C   UNL     1      -3.347  10.161  14.318  0.00  0.00    +0.000 C 
ATOM     27  C   UNL     1      -3.111   9.915  15.797  0.00  0.00    +0.000 C 
ENDBRANCH  25  27
ENDBRANCH  24  25
ENDBRANCH  23  24
ENDBRANCH  22  23
ENDBRANCH   1  22
BRANCH   5  28
ATOM     28  C   UNL     1       2.965   5.792  20.045  0.00  0.00    +0.000 C 
BRANCH  28  29
ATOM     29  C   UNL     1       4.117   5.093  19.312  0.00  0.00    +0.000 C 
BRANCH  29  30
ATOM     30  O   UNL     1       3.967   3.674  19.419  0.00  0.00    +0.000 OA
BRANCH  30  31
ATOM     31  C   UNL     1       3.395   3.116  18.237  0.00  0.00    +0.000 C 
ATOM     32  C   UNL     1       3.531   1.607  18.298  0.00  0.00    +0.000 C 
ENDBRANCH  30  31
ENDBRANCH  29  30
ENDBRANCH  28  29
ENDBRANCH   5  28
TORSDOF 11
ENDMDL
MODEL 5
REMARK VINA RESULT:      -6.9      1.441      1.807
REMARK  Name = 
REMARK  14 active torsions:
REMARK  status: ('A' for Active; 'I' for Inactive)
REMARK    1  A    between atoms: C_1  and  C_2
REMARK    2  A    between atoms: C_2  and  C_3
REMARK    3  A    between atoms: C_3  and  O_4
REMARK    4  A    between atoms: O_4  and  C_5
REMARK    5  A    between atoms: C_5  and  C_6
REMARK    6  A    between atoms: C_6  and  N_7
REMARK    7  A    between atoms: N_11  and  C_12
REMARK    8  A    between atoms: C_12  and  C_13
REMARK    9  A    between atoms: C_13  and  O_14
REMARK   10  A    between atoms: O_14  and  C_15
REMARK   11  A    between atoms: C_15  and  C_16
REMARK   12  A    between atoms: C_21  and  C_22
REMARK   13  A    between atoms: C_25  and  O_26
REMARK   14  A    between atoms: O_26  and  C_27
REMARK                            x       y       z     vdW  Elec       q    Type
REMARK                         _______ _______ _______ _____ _____    ______ ____
ROOT
ATOM      1  N   UNL     1       0.174  10.221  19.138  0.00  0.00    +0.000 N 
ATOM      2  C   UNL     1       1.178   9.388  18.648  0.00  0.00    +0.000 A 
ATOM      3  O   UNL     1       1.644   9.427  17.509  0.00  0.00    +0.000 OA
ATOM      4  C   UNL     1       1.711   8.296  19.594  0.00  0.00    +0.000 A 
ATOM      5  N   UNL     1       2.512   7.339  19.017  0.00  0.00    +0.000 N 
ATOM      6  N   UNL     1       1.395   8.277  20.857  0.00  0.00    +0.000 NA
ATOM      7  C   UNL     1       0.558   9.286  21.353  0.00  0.00    +0.000 A 
ATOM      8  C   UNL     1       0.363   9.401  22.729  0.00  0.00    +0.000 A 
ATOM      9  N   UNL     1      -0.406  10.345  23.333  0.00  0.00    +0.000 NA
ATOM     10  C   UNL     1      -1.053  11.216  22.528  0.00  0.00    +0.000 A 
ATOM     11  C   UNL     1      -0.973  11.118  21.137  0.00  0.00    +0.000 A 
ATOM     12  C   UNL     1      -0.106  10.205  20.536  0.00  0.00    +0.000 A 
ATOM     13  H   UNL     1       2.903   7.548  18.099  0.00  0.00    +0.000 HD
ENDROOT
BRANCH  10  14
ATOM     14  C   UNL     1      -1.783  12.323  23.174  0.00  0.00    +0.000 A 
ATOM     15  C   UNL     1      -3.097  12.211  23.642  0.00  0.00    +0.000 A 
ATOM     16  C   UNL     1      -3.730  13.306  24.240  0.00  0.00    +0.000 A 
ATOM     17  C   UNL     1      -3.029  14.496  24.356  0.00  0.00    +0.000 A 
ATOM     18  N   UNL     1      -1.760  14.647  23.940  0.00  0.00    +0.000 NA
ATOM     19  C   UNL     1      -1.174  13.565  23.385  0.00  0.00    +0.000 A 
BRANCH  17  20
ATOM     20  O   UNL     1      -3.676  15.562  24.943  0.00  0.00    +0.000 OA
ATOM     21  C   UNL     1      -4.854  15.942  24.232  0.00  0.00    +0.000 C 
ENDBRANCH  17  20
ENDBRANCH  10  14
BRANCH   1  22
ATOM     22  C   UNL     1      -0.316  11.274  18.248  0.00  0.00    +0.000 C 
BRANCH  22  23
ATOM     23  C   UNL     1      -1.664  10.967  17.592  0.00  0.00    +0.000 C 
BRANCH  23  24
ATOM     24  O   UNL     1      -2.653  11.838  18.153  0.00  0.00    +0.000 OA
BRANCH  24  25
ATOM     25  C   UNL     1      -3.901  11.161  18.300  0.00  0.00    +0.000 C 
BRANCH  25  27
ATOM     26  C   UNL     1      -4.557  12.645  20.207  0.00  0.00    +0.000 C 
ATOM     27  C   UNL     1      -4.936  12.144  18.826  0.00  0.00    +0.000 C 
ENDBRANCH  25  27
ENDBRANCH  24  25
ENDBRANCH  23  24
ENDBRANCH  22  23
ENDBRANCH   1  22
BRANCH   5  28
ATOM     28  C   UNL     1       2.895   6.094  19.638  0.00  0.00    +0.000 C 
BRANCH  28  29
ATOM     29  C   UNL     1       2.441   4.913  18.770  0.00  0.00    +0.000 C 
BRANCH  29  30
ATOM     30  O   UNL     1       1.564   4.069  19.524  0.00  0.00    +0.000 OA
BRANCH  30  31
ATOM     31  C   UNL     1       2.285   3.063  20.233  0.00  0.00    +0.000 C 
ATOM     32  C   UNL     1       1.585   2.803  21.552  0.00  0.00    +0.000 C 
ENDBRANCH  30  31
ENDBRANCH  29  30
ENDBRANCH  28  29
ENDBRANCH   5  28
TORSDOF 11
ENDMDL
MODEL 6
REMARK VINA RESULT:      -6.9      3.296      6.296
REMARK  Name = 
REMARK  14 active torsions:
REMARK  status: ('A' for Active; 'I' for Inactive)
REMARK    1  A    between atoms: C_1  and  C_2
REMARK    2  A    between atoms: C_2  and  C_3
REMARK    3  A    between atoms: C_3  and  O_4
REMARK    4  A    between atoms: O_4  and  C_5
REMARK    5  A    between atoms: C_5  and  C_6
REMARK    6  A    between atoms: C_6  and  N_7
REMARK    7  A    between atoms: N_11  and  C_12
REMARK    8  A    between atoms: C_12  and  C_13
REMARK    9  A    between atoms: C_13  and  O_14
REMARK   10  A    between atoms: O_14  and  C_15
REMARK   11  A    between atoms: C_15  and  C_16
REMARK   12  A    between atoms: C_21  and  C_22
REMARK   13  A    between atoms: C_25  and  O_26
REMARK   14  A    between atoms: O_26  and  C_27
REMARK                            x       y       z     vdW  Elec       q    Type
REMARK                         _______ _______ _______ _____ _____    ______ ____
ROOT
ATOM      1  N   UNL     1       3.508   4.715  19.840  0.00  0.00    +0.000 N 
ATOM      2  C   UNL     1       4.053   3.843  18.900  0.00  0.00    +0.000 A 
ATOM      3  O   UNL     1       4.237   2.637  19.068  0.00  0.00    +0.000 OA
ATOM      4  C   UNL     1       4.510   4.448  17.559  0.00  0.00    +0.000 A 
ATOM      5  N   UNL     1       5.263   3.628  16.754  0.00  0.00    +0.000 N 
ATOM      6  N   UNL     1       4.216   5.674  17.231  0.00  0.00    +0.000 NA
ATOM      7  C   UNL     1       3.455   6.441  18.124  0.00  0.00    +0.000 A 
ATOM      8  C   UNL     1       2.964   7.681  17.717  0.00  0.00    +0.000 A 
ATOM      9  N   UNL     1       2.201   8.509  18.480  0.00  0.00    +0.000 NA
ATOM     10  C   UNL     1       1.931   8.105  19.740  0.00  0.00    +0.000 A 
ATOM     11  C   UNL     1       2.453   6.914  20.249  0.00  0.00    +0.000 A 
ATOM     12  C   UNL     1       3.153   6.032  19.425  0.00  0.00    +0.000 A 
ATOM     13  H   UNL     1       5.251   2.629  16.961  0.00  0.00    +0.000 HD
ENDROOT
BRANCH  10  14
ATOM     14  C   UNL     1       0.999   8.929  20.531  0.00  0.00    +0.000 A 
ATOM     15  C   UNL     1       0.721   8.698  21.883  0.00  0.00    +0.000 A 
ATOM     16  C   UNL     1      -0.181   9.519  22.570  0.00  0.00    +0.000 A 
ATOM     17  C   UNL     1      -0.787  10.559  21.883  0.00  0.00    +0.000 A 
ATOM     18  N   UNL     1      -0.538  10.833  20.591  0.00  0.00    +0.000 NA
ATOM     19  C   UNL     1       0.351  10.032  19.965  0.00  0.00    +0.000 A 
BRANCH  17  20
ATOM     20  O   UNL     1      -1.676  11.349  22.579  0.00  0.00    +0.000 OA
ATOM     21  C   UNL     1      -2.200  12.411  21.781  0.00  0.00    +0.000 C 
ENDBRANCH  17  20
ENDBRANCH  10  14
BRANCH   1  22
ATOM     22  C   UNL     1       3.052   4.136  21.104  0.00  0.00    +0.000 C 
BRANCH  22  23
ATOM     23  C   UNL     1       1.578   3.722  21.110  0.00  0.00    +0.000 C 
BRANCH  23  24
ATOM     24  O   UNL     1       1.502   2.303  20.938  0.00  0.00    +0.000 OA
BRANCH  24  25
ATOM     25  C   UNL     1       1.207   1.971  19.582  0.00  0.00    +0.000 C 
BRANCH  25  27
ATOM     26  C   UNL     1       0.968   3.611  17.704  0.00  0.00    +0.000 C 
ATOM     27  C   UNL     1       0.348   3.074  18.981  0.00  0.00    +0.000 C 
ENDBRANCH  25  27
ENDBRANCH  24  25
ENDBRANCH  23  24
ENDBRANCH  22  23
ENDBRANCH   1  22
BRANCH   5  28
ATOM     28  C   UNL     1       6.015   4.059  15.600  0.00  0.00    +0.000 C 
BRANCH  28  29
ATOM     29  C   UNL     1       7.144   5.003  16.031  0.00  0.00    +0.000 C 
BRANCH  29  30
ATOM     30  O   UNL     1       7.837   4.447  17.154  0.00  0.00    +0.000 OA
BRANCH  30  31
ATOM     31  C   UNL     1       7.770   5.308  18.290  0.00  0.00    +0.000 C 
ATOM     32  C   UNL     1       7.564   6.730  17.810  0.00  0.00    +0.000 C 
ENDBRANCH  30  31
ENDBRANCH  29  30
ENDBRANCH  28  29
ENDBRANCH   5  28
TORSDOF 11
ENDMDL
MODEL 7
REMARK VINA RESULT:      -6.9      0.925      1.059
REMARK  Name = 
REMARK  14 active torsions:
REMARK  status: ('A' for Active; 'I' for Inactive)
REMARK    1  A    between atoms: C_1  and  C_2
REMARK    2  A    between atoms: C_2  and  C_3
REMARK    3  A    between atoms: C_3  and  O_4
REMARK    4  A    between atoms: O_4  and  C_5
REMARK    5  A    between atoms: C_5  and  C_6
REMARK    6  A    between atoms: C_6  and  N_7
REMARK    7  A    between atoms: N_11  and  C_12
REMARK    8  A    between atoms: C_12  and  C_13
REMARK    9  A    between atoms: C_13  and  O_14
REMARK   10  A    between atoms: O_14  and  C_15
REMARK   11  A    between atoms: C_15  and  C_16
REMARK   12  A    between atoms: C_21  and  C_22
REMARK   13  A    between atoms: C_25  and  O_26
REMARK   14  A    between atoms: O_26  and  C_27
REMARK                            x       y       z     vdW  Elec       q    Type
REMARK                         _______ _______ _______ _____ _____    ______ ____
ROOT
ATOM      1  N   UNL     1       0.341  10.166  19.159  0.00  0.00    +0.000 N 
ATOM      2  C   UNL     1       1.341   9.311  18.697  0.00  0.00    +0.000 A 
ATOM      3  O   UNL     1       1.843   9.343  17.573  0.00  0.00    +0.000 OA
ATOM      4  C   UNL     1       1.818   8.204  19.655  0.00  0.00    +0.000 A 
ATOM      5  N   UNL     1       2.614   7.230  19.100  0.00  0.00    +0.000 N 
ATOM      6  N   UNL     1       1.462   8.187  20.908  0.00  0.00    +0.000 NA
ATOM      7  C   UNL     1       0.634   9.215  21.381  0.00  0.00    +0.000 A 
ATOM      8  C   UNL     1       0.398   9.330  22.750  0.00  0.00    +0.000 A 
ATOM      9  N   UNL     1      -0.368  10.290  23.334  0.00  0.00    +0.000 NA
ATOM     10  C   UNL     1      -0.968  11.178  22.513  0.00  0.00    +0.000 A 
ATOM     11  C   UNL     1      -0.847  11.082  21.125  0.00  0.00    +0.000 A 
ATOM     12  C   UNL     1       0.018  10.151  20.548  0.00  0.00    +0.000 A 
ATOM     13  H   UNL     1       3.039   7.433  18.195  0.00  0.00    +0.000 HD
ENDROOT
BRANCH  10  14
ATOM     14  C   UNL     1      -1.692  12.299  23.140  0.00  0.00    +0.000 A 
ATOM     15  C   UNL     1      -3.000  12.197  23.627  0.00  0.00    +0.000 A 
ATOM     16  C   UNL     1      -3.628  13.306  24.205  0.00  0.00    +0.000 A 
ATOM     17  C   UNL     1      -2.928  14.499  24.283  0.00  0.00    +0.000 A 
ATOM     18  N   UNL     1      -1.664  14.642  23.848  0.00  0.00    +0.000 NA
ATOM     19  C   UNL     1      -1.083  13.547  23.312  0.00  0.00    +0.000 A 
BRANCH  17  20
ATOM     20  O   UNL     1      -3.569  15.579  24.851  0.00  0.00    +0.000 OA
ATOM     21  C   UNL     1      -2.654  16.548  25.361  0.00  0.00    +0.000 C 
ENDBRANCH  17  20
ENDBRANCH  10  14
BRANCH   1  22
ATOM     22  C   UNL     1      -0.095  11.232  18.258  0.00  0.00    +0.000 C 
BRANCH  22  23
ATOM     23  C   UNL     1      -1.546  11.102  17.786  0.00  0.00    +0.000 C 
BRANCH  23  24
ATOM     24  O   UNL     1      -1.708   9.826  17.157  0.00  0.00    +0.000 OA
BRANCH  24  25
ATOM     25  C   UNL     1      -2.965   9.747  16.486  0.00  0.00    +0.000 C 
BRANCH  25  27
ATOM     26  C   UNL     1      -3.429  10.070  14.047  0.00  0.00    +0.000 C 
ATOM     27  C   UNL     1      -2.969  10.736  15.330  0.00  0.00    +0.000 C 
ENDBRANCH  25  27
ENDBRANCH  24  25
ENDBRANCH  23  24
ENDBRANCH  22  23
ENDBRANCH   1  22
BRANCH   5  28
ATOM     28  C   UNL     1       2.949   5.974  19.727  0.00  0.00    +0.000 C 
BRANCH  28  29
ATOM     29  C   UNL     1       3.806   5.126  18.779  0.00  0.00    +0.000 C 
BRANCH  29  30
ATOM     30  O   UNL     1       3.750   5.672  17.457  0.00  0.00    +0.000 OA
BRANCH  30  31
ATOM     31  C   UNL     1       4.824   5.196  16.647  0.00  0.00    +0.000 C 
ATOM     32  C   UNL     1       6.006   4.884  17.543  0.00  0.00    +0.000 C 
ENDBRANCH  30  31
ENDBRANCH  29  30
ENDBRANCH  28  29
ENDBRANCH   5  28
TORSDOF 11
ENDMDL
MODEL 8
REMARK VINA RESULT:      -6.8      4.211      7.162
REMARK  Name = 
REMARK  14 active torsions:
REMARK  status: ('A' for Active; 'I' for Inactive)
REMARK    1  A    between atoms: C_1  and  C_2
REMARK    2  A    between atoms: C_2  and  C_3
REMARK    3  A    between atoms: C_3  and  O_4
REMARK    4  A    between atoms: O_4  and  C_5
REMARK    5  A    between atoms: C_5  and  C_6
REMARK    6  A    between atoms: C_6  and  N_7
REMARK    7  A    between atoms: N_11  and  C_12
REMARK    8  A    between atoms: C_12  and  C_13
REMARK    9  A    between atoms: C_13  and  O_14
REMARK   10  A    between atoms: O_14  and  C_15
REMARK   11  A    between atoms: C_15  and  C_16
REMARK   12  A    between atoms: C_21  and  C_22
REMARK   13  A    between atoms: C_25  and  O_26
REMARK   14  A    between atoms: O_26  and  C_27
REMARK                            x       y       z     vdW  Elec       q    Type
REMARK                         _______ _______ _______ _____ _____    ______ ____
ROOT
ATOM      1  N   UNL     1       4.667   5.909  17.804  0.00  0.00    +0.000 N 
ATOM      2  C   UNL     1       5.311   4.776  18.296  0.00  0.00    +0.000 A 
ATOM      3  O   UNL     1       6.389   4.336  17.892  0.00  0.00    +0.000 OA
ATOM      4  C   UNL     1       4.590   3.979  19.399  0.00  0.00    +0.000 A 
ATOM      5  N   UNL     1       5.117   2.743  19.690  0.00  0.00    +0.000 N 
ATOM      6  N   UNL     1       3.531   4.447  19.995  0.00  0.00    +0.000 NA
ATOM      7  C   UNL     1       3.057   5.712  19.619  0.00  0.00    +0.000 A 
ATOM      8  C   UNL     1       2.050   6.318  20.369  0.00  0.00    +0.000 A 
ATOM      9  N   UNL     1       1.520   7.545  20.121  0.00  0.00    +0.000 NA
ATOM     10  C   UNL     1       1.989   8.208  19.042  0.00  0.00    +0.000 A 
ATOM     11  C   UNL     1       2.940   7.636  18.194  0.00  0.00    +0.000 A 
ATOM     12  C   UNL     1       3.542   6.419  18.516  0.00  0.00    +0.000 A 
ATOM     13  H   UNL     1       6.063   2.549  19.364  0.00  0.00    +0.000 HD
ENDROOT
BRANCH  10  14
ATOM     14  C   UNL     1       1.518   9.590  18.838  0.00  0.00    +0.000 A 
ATOM     15  C   UNL     1       2.262  10.568  18.169  0.00  0.00    +0.000 A 
ATOM     16  C   UNL     1       1.754  11.863  18.017  0.00  0.00    +0.000 A 
ATOM     17  C   UNL     1       0.505  12.151  18.543  0.00  0.00    +0.000 A 
ATOM     18  N   UNL     1      -0.256  11.242  19.176  0.00  0.00    +0.000 NA
ATOM     19  C   UNL     1       0.258   9.998  19.288  0.00  0.00    +0.000 A 
BRANCH  17  20
ATOM     20  O   UNL     1       0.028  13.435  18.387  0.00  0.00    +0.000 OA
ATOM     21  C   UNL     1       0.916  14.413  18.928  0.00  0.00    +0.000 C 
ENDBRANCH  17  20
ENDBRANCH  10  14
BRANCH   1  22
ATOM     22  C   UNL     1       5.363   6.680  16.773  0.00  0.00    +0.000 C 
BRANCH  22  23
ATOM     23  C   UNL     1       5.190   6.132  15.354  0.00  0.00    +0.000 C 
BRANCH  23  24
ATOM     24  O   UNL     1       6.445   5.602  14.913  0.00  0.00    +0.000 OA
BRANCH  24  25
ATOM     25  C   UNL     1       6.301   4.251  14.478  0.00  0.00    +0.000 C 
BRANCH  25  27
ATOM     26  C   UNL     1       5.692   3.278  12.252  0.00  0.00    +0.000 C 
ATOM     27  C   UNL     1       6.666   4.167  13.003  0.00  0.00    +0.000 C 
ENDBRANCH  25  27
ENDBRANCH  24  25
ENDBRANCH  23  24
ENDBRANCH  22  23
ENDBRANCH   1  22
BRANCH   5  28
ATOM     28  C   UNL     1       4.462   1.726  20.478  0.00  0.00    +0.000 C 
BRANCH  28  29
ATOM     29  C   UNL     1       5.395   0.523  20.663  0.00  0.00    +0.000 C 
BRANCH  29  30
ATOM     30  O   UNL     1       6.103   0.646  21.901  0.00  0.00    +0.000 OA
BRANCH  30  31
ATOM     31  C   UNL     1       6.286  -0.622  22.529  0.00  0.00    +0.000 C 
ATOM     32  C   UNL     1       7.105  -1.504  21.609  0.00  0.00    +0.000 C 
ENDBRANCH  30  31
ENDBRANCH  29  30
ENDBRANCH  28  29
ENDBRANCH   5  28
TORSDOF 11
ENDMDL
MODEL 9
REMARK VINA RESULT:      -6.7      2.970      5.664
REMARK  Name = 
REMARK  14 active torsions:
REMARK  status: ('A' for Active; 'I' for Inactive)
REMARK    1  A    between atoms: C_1  and  C_2
REMARK    2  A    between atoms: C_2  and  C_3
REMARK    3  A    between atoms: C_3  and  O_4
REMARK    4  A    between atoms: O_4  and  C_5
REMARK    5  A    between atoms: C_5  and  C_6
REMARK    6  A    between atoms: C_6  and  N_7
REMARK    7  A    between atoms: N_11  and  C_12
REMARK    8  A    between atoms: C_12  and  C_13
REMARK    9  A    between atoms: C_13  and  O_14
REMARK   10  A    between atoms: O_14  and  C_15
REMARK   11  A    between atoms: C_15  and  C_16
REMARK   12  A    between atoms: C_21  and  C_22
REMARK   13  A    between atoms: C_25  and  O_26
REMARK   14  A    between atoms: O_26  and  C_27
REMARK                            x       y       z     vdW  Elec       q    Type
REMARK                         _______ _______ _______ _____ _____    ______ ____
ROOT
ATOM      1  N   UNL     1       2.889   6.116  19.795  0.00  0.00    +0.000 N 
ATOM      2  C   UNL     1       3.476   5.355  18.786  0.00  0.00    +0.000 A 
ATOM      3  O   UNL     1       3.733   4.153  18.857  0.00  0.00    +0.000 OA
ATOM      4  C   UNL     1       3.882   6.090  17.495  0.00  0.00    +0.000 A 
ATOM      5  N   UNL     1       4.675   5.383  16.623  0.00  0.00    +0.000 N 
ATOM      6  N   UNL     1       3.511   7.318  17.265  0.00  0.00    +0.000 NA
ATOM      7  C   UNL     1       2.716   7.966  18.221  0.00  0.00    +0.000 A 
ATOM      8  C   UNL     1       2.146   9.202  17.916  0.00  0.00    +0.000 A 
ATOM      9  N   UNL     1       1.344   9.919  18.745  0.00  0.00    +0.000 NA
ATOM     10  C   UNL     1       1.111   9.402  19.971  0.00  0.00    +0.000 A 
ATOM     11  C   UNL     1       1.709   8.209  20.382  0.00  0.00    +0.000 A 
ATOM     12  C   UNL     1       2.451   7.438  19.487  0.00  0.00    +0.000 A 
ATOM     13  H   UNL     1       4.725   4.372  16.751  0.00  0.00    +0.000 HD
ENDROOT
BRANCH  10  14
ATOM     14  C   UNL     1       0.139  10.104  20.830  0.00  0.00    +0.000 A 
ATOM     15  C   UNL     1      -0.610  11.207  20.405  0.00  0.00    +0.000 A 
ATOM     16  C   UNL     1      -1.511  11.828  21.277  0.00  0.00    +0.000 A 
ATOM     17  C   UNL     1      -1.642  11.328  22.563  0.00  0.00    +0.000 A 
ATOM     18  N   UNL     1      -0.960  10.260  23.011  0.00  0.00    +0.000 NA
ATOM     19  C   UNL     1      -0.113   9.675  22.137  0.00  0.00    +0.000 A 
BRANCH  17  20
ATOM     20  O   UNL     1      -2.530  11.961  23.405  0.00  0.00    +0.000 OA
ATOM     21  C   UNL     1      -2.741  13.326  23.047  0.00  0.00    +0.000 C 
ENDBRANCH  17  20
ENDBRANCH  10  14
BRANCH   1  22
ATOM     22  C   UNL     1       2.481   5.413  21.012  0.00  0.00    +0.000 C 
BRANCH  22  23
ATOM     23  C   UNL     1       1.250   4.521  20.839  0.00  0.00    +0.000 C 
BRANCH  23  24
ATOM     24  O   UNL     1       1.463   3.303  21.562  0.00  0.00    +0.000 OA
BRANCH  24  25
ATOM     25  C   UNL     1       1.451   2.181  20.681  0.00  0.00    +0.000 C 
BRANCH  25  27
ATOM     26  C   UNL     1       1.561   2.042  18.183  0.00  0.00    +0.000 C 
ATOM     27  C   UNL     1       0.794   2.591  19.372  0.00  0.00    +0.000 C 
ENDBRANCH  25  27
ENDBRANCH  24  25
ENDBRANCH  23  24
ENDBRANCH  22  23
ENDBRANCH   1  22
BRANCH   5  28
ATOM     28  C   UNL     1       5.388   5.948  15.503  0.00  0.00    +0.000 C 
BRANCH  28  29
ATOM     29  C   UNL     1       6.754   5.267  15.351  0.00  0.00    +0.000 C 
BRANCH  29  30
ATOM     30  O   UNL     1       6.948   4.872  13.989  0.00  0.00    +0.000 OA
BRANCH  30  31
ATOM     31  C   UNL     1       6.006   3.876  13.593  0.00  0.00    +0.000 C 
ATOM     32  C   UNL     1       6.378   3.379  12.210  0.00  0.00    +0.000 C 
ENDBRANCH  30  31
ENDBRANCH  29  30
ENDBRANCH  28  29
ENDBRANCH   5  28
TORSDOF 11
ENDMDL
