MODEL 1
REMARK VINA RESULT:      -3.4      0.000      0.000
REMARK  Name = 
REMARK  6 active torsions:
REMARK  status: ('A' for Active; 'I' for Inactive)
REMARK    1  A    between atoms: C_1  and  C_2
REMARK    2  A    between atoms: C_2  and  N_3
REMARK    3  A    between atoms: N_3  and  C_4
REMARK    4  A    between atoms: N_3  and  C_6
REMARK    5  A    between atoms: C_4  and  C_5
REMARK    6  A    between atoms: C_6  and  S_8
REMARK                            x       y       z     vdW  Elec       q    Type
REMARK                         _______ _______ _______ _____ _____    ______ ____
ROOT
ATOM      1  N   UNL     1       3.319   3.809  19.954  0.00  0.00    +0.000 N 
ENDROOT
BRANCH   1   3
ATOM      2  C   UNL     1       3.373   1.883  18.355  0.00  0.00    +0.000 C 
ATOM      3  C   UNL     1       3.824   2.443  19.697  0.00  0.00    +0.000 C 
ENDBRANCH   1   3
BRANCH   1   4
ATOM      4  C   UNL     1       2.261   3.978  20.974  0.00  0.00    +0.000 C 
ATOM      5  C   UNL     1       1.624   2.742  21.595  0.00  0.00    +0.000 C 
ENDBRANCH   1   4
BRANCH   1   6
ATOM      6  C   UNL     1       3.830   4.902  19.207  0.00  0.00    +0.000 C 
ATOM      7  S   UNL     1       2.902   6.063  18.404  0.00  0.00    +0.000 S 
BRANCH   6   8
ATOM      8  S   UNL     1       5.587   5.107  19.079  0.00  0.00    +0.000 S 
ATOM      9  H   UNL     1       5.719   6.399  19.367  0.00  0.00    +0.000 HD
ENDBRANCH   6   8
ENDBRANCH   1   6
TORSDOF 4
ENDMDL
MODEL 2
REMARK VINA RESULT:      -3.4      3.965      5.325
REMARK  Name = 
REMARK  6 active torsions:
REMARK  status: ('A' for Active; 'I' for Inactive)
REMARK    1  A    between atoms: C_1  and  C_2
REMARK    2  A    between atoms: C_2  and  N_3
REMARK    3  A    between atoms: N_3  and  C_4
REMARK    4  A    between atoms: N_3  and  C_6
REMARK    5  A    between atoms: C_4  and  C_5
REMARK    6  A    between atoms: C_6  and  S_8
REMARK                            x       y       z     vdW  Elec       q    Type
REMARK                         _______ _______ _______ _____ _____    ______ ____
ROOT
ATOM      1  N   UNL     1       6.557   4.828  16.808  0.00  0.00    +0.000 N 
ENDROOT
BRANCH   1   3
ATOM      2  C   UNL     1       7.720   5.768  18.815  0.00  0.00    +0.000 C 
ATOM      3  C   UNL     1       7.640   4.639  17.797  0.00  0.00    +0.000 C 
ENDBRANCH   1   3
BRANCH   1   4
ATOM      4  C   UNL     1       6.923   4.871  15.376  0.00  0.00    +0.000 C 
ATOM      5  C   UNL     1       6.194   3.962  14.395  0.00  0.00    +0.000 C 
ENDBRANCH   1   4
BRANCH   1   6
ATOM      6  C   UNL     1       5.218   4.991  17.251  0.00  0.00    +0.000 C 
ATOM      7  S   UNL     1       4.225   3.762  17.851  0.00  0.00    +0.000 S 
BRANCH   6   8
ATOM      8  S   UNL     1       4.485   6.604  17.191  0.00  0.00    +0.000 S 
ATOM      9  H   UNL     1       5.534   7.354  16.862  0.00  0.00    +0.000 HD
ENDBRANCH   6   8
ENDBRANCH   1   6
TORSDOF 4
ENDMDL
MODEL 3
REMARK VINA RESULT:      -3.4      3.585      4.790
REMARK  Name = 
REMARK  6 active torsions:
REMARK  status: ('A' for Active; 'I' for Inactive)
REMARK    1  A    between atoms: C_1  and  C_2
REMARK    2  A    between atoms: C_2  and  N_3
REMARK    3  A    between atoms: N_3  and  C_4
REMARK    4  A    between atoms: N_3  and  C_6
REMARK    5  A    between atoms: C_4  and  C_5
REMARK    6  A    between atoms: C_6  and  S_8
REMARK                            x       y       z     vdW  Elec       q    Type
REMARK                         _______ _______ _______ _____ _____    ______ ____
ROOT
ATOM      1  N   UNL     1       6.167   4.424  17.179  0.00  0.00    +0.000 N 
ENDROOT
BRANCH   1   3
ATOM      2  C   UNL     1       6.859   4.773  14.798  0.00  0.00    +0.000 C 
ATOM      3  C   UNL     1       6.044   3.947  15.784  0.00  0.00    +0.000 C 
ENDBRANCH   1   3
BRANCH   1   4
ATOM      4  C   UNL     1       7.522   4.690  17.705  0.00  0.00    +0.000 C 
ATOM      5  C   UNL     1       7.721   5.818  18.709  0.00  0.00    +0.000 C 
ENDBRANCH   1   4
BRANCH   1   6
ATOM      6  C   UNL     1       5.002   4.582  17.975  0.00  0.00    +0.000 C 
ATOM      7  S   UNL     1       4.494   3.528  19.193  0.00  0.00    +0.000 S 
BRANCH   6   8
ATOM      8  S   UNL     1       3.963   5.993  17.703  0.00  0.00    +0.000 S 
ATOM      9  H   UNL     1       2.756   5.432  17.716  0.00  0.00    +0.000 HD
ENDBRANCH   6   8
ENDBRANCH   1   6
TORSDOF 4
ENDMDL
MODEL 4
REMARK VINA RESULT:      -3.4      0.603      2.723
REMARK  Name = 
REMARK  6 active torsions:
REMARK  status: ('A' for Active; 'I' for Inactive)
REMARK    1  A    between atoms: C_1  and  C_2
REMARK    2  A    between atoms: C_2  and  N_3
REMARK    3  A    between atoms: N_3  and  C_4
REMARK    4  A    between atoms: N_3  and  C_6
REMARK    5  A    between atoms: C_4  and  C_5
REMARK    6  A    between atoms: C_6  and  S_8
REMARK                            x       y       z     vdW  Elec       q    Type
REMARK                         _______ _______ _______ _____ _____    ______ ____
ROOT
ATOM      1  N   UNL     1       2.965   3.877  19.938  0.00  0.00    +0.000 N 
ENDROOT
BRANCH   1   3
ATOM      2  C   UNL     1       1.496   2.701  21.589  0.00  0.00    +0.000 C 
ATOM      3  C   UNL     1       2.143   4.011  21.160  0.00  0.00    +0.000 C 
ENDBRANCH   1   3
BRANCH   1   4
ATOM      4  C   UNL     1       3.076   2.539  19.318  0.00  0.00    +0.000 C 
ATOM      5  C   UNL     1       2.474   2.307  17.939  0.00  0.00    +0.000 C 
ENDBRANCH   1   4
BRANCH   1   6
ATOM      6  C   UNL     1       3.641   5.011  19.414  0.00  0.00    +0.000 C 
ATOM      7  S   UNL     1       5.292   5.099  19.071  0.00  0.00    +0.000 S 
BRANCH   6   8
ATOM      8  S   UNL     1       2.711   6.482  19.075  0.00  0.00    +0.000 S 
ATOM      9  H   UNL     1       1.774   6.014  18.253  0.00  0.00    +0.000 HD
ENDBRANCH   6   8
ENDBRANCH   1   6
TORSDOF 4
ENDMDL
MODEL 5
REMARK VINA RESULT:      -3.3      0.267      1.488
REMARK  Name = 
REMARK  6 active torsions:
REMARK  status: ('A' for Active; 'I' for Inactive)
REMARK    1  A    between atoms: C_1  and  C_2
REMARK    2  A    between atoms: C_2  and  N_3
REMARK    3  A    between atoms: N_3  and  C_4
REMARK    4  A    between atoms: N_3  and  C_6
REMARK    5  A    between atoms: C_4  and  C_5
REMARK    6  A    between atoms: C_6  and  S_8
REMARK                            x       y       z     vdW  Elec       q    Type
REMARK                         _______ _______ _______ _____ _____    ______ ____
ROOT
ATOM      1  N   UNL     1       3.240   3.769  19.870  0.00  0.00    +0.000 N 
ENDROOT
BRANCH   1   3
ATOM      2  C   UNL     1       3.004   2.081  18.036  0.00  0.00    +0.000 C 
ATOM      3  C   UNL     1       3.532   2.386  19.431  0.00  0.00    +0.000 C 
ENDBRANCH   1   3
BRANCH   1   4
ATOM      4  C   UNL     1       2.291   3.958  20.987  0.00  0.00    +0.000 C 
ATOM      5  C   UNL     1       1.388   2.802  21.398  0.00  0.00    +0.000 C 
ENDBRANCH   1   4
BRANCH   1   6
ATOM      6  C   UNL     1       3.846   4.864  19.199  0.00  0.00    +0.000 C 
ATOM      7  S   UNL     1       5.507   5.149  19.084  0.00  0.00    +0.000 S 
BRANCH   6   8
ATOM      8  S   UNL     1       2.809   6.056  18.395  0.00  0.00    +0.000 S 
ATOM      9  H   UNL     1       2.468   5.401  17.289  0.00  0.00    +0.000 HD
ENDBRANCH   6   8
ENDBRANCH   1   6
TORSDOF 4
ENDMDL
MODEL 6
REMARK VINA RESULT:      -3.3      1.764      2.353
REMARK  Name = 
REMARK  6 active torsions:
REMARK  status: ('A' for Active; 'I' for Inactive)
REMARK    1  A    between atoms: C_1  and  C_2
REMARK    2  A    between atoms: C_2  and  N_3
REMARK    3  A    between atoms: N_3  and  C_4
REMARK    4  A    between atoms: N_3  and  C_6
REMARK    5  A    between atoms: C_4  and  C_5
REMARK    6  A    between atoms: C_6  and  S_8
REMARK                            x       y       z     vdW  Elec       q    Type
REMARK                         _______ _______ _______ _____ _____    ______ ____
ROOT
ATOM      1  N   UNL     1       3.729   3.210  18.609  0.00  0.00    +0.000 N 
ENDROOT
BRANCH   1   3
ATOM      2  C   UNL     1       1.623   4.255  17.747  0.00  0.00    +0.000 C 
ATOM      3  C   UNL     1       2.506   3.015  17.801  0.00  0.00    +0.000 C 
ENDBRANCH   1   3
BRANCH   1   4
ATOM      4  C   UNL     1       3.824   2.509  19.907  0.00  0.00    +0.000 C 
ATOM      5  C   UNL     1       2.770   2.775  20.973  0.00  0.00    +0.000 C 
ENDBRANCH   1   4
BRANCH   1   6
ATOM      6  C   UNL     1       4.752   4.076  18.140  0.00  0.00    +0.000 C 
ATOM      7  S   UNL     1       5.637   5.156  19.091  0.00  0.00    +0.000 S 
BRANCH   6   8
ATOM      8  S   UNL     1       5.172   4.054  16.418  0.00  0.00    +0.000 S 
ATOM      9  H   UNL     1       4.156   3.361  15.912  0.00  0.00    +0.000 HD
ENDBRANCH   6   8
ENDBRANCH   1   6
TORSDOF 4
ENDMDL
MODEL 7
REMARK VINA RESULT:      -3.3      0.392      2.320
REMARK  Name = 
REMARK  6 active torsions:
REMARK  status: ('A' for Active; 'I' for Inactive)
REMARK    1  A    between atoms: C_1  and  C_2
REMARK    2  A    between atoms: C_2  and  N_3
REMARK    3  A    between atoms: N_3  and  C_4
REMARK    4  A    between atoms: N_3  and  C_6
REMARK    5  A    between atoms: C_4  and  C_5
REMARK    6  A    between atoms: C_6  and  S_8
REMARK                            x       y       z     vdW  Elec       q    Type
REMARK                         _______ _______ _______ _____ _____    ______ ____
ROOT
ATOM      1  N   UNL     1       2.958   3.812  19.733  0.00  0.00    +0.000 N 
ENDROOT
BRANCH   1   3
ATOM      2  C   UNL     1       1.571   2.766  21.536  0.00  0.00    +0.000 C 
ATOM      3  C   UNL     1       1.704   3.887  20.513  0.00  0.00    +0.000 C 
ENDBRANCH   1   3
BRANCH   1   4
ATOM      4  C   UNL     1       3.580   2.485  19.542  0.00  0.00    +0.000 C 
ATOM      5  C   UNL     1       3.312   1.719  18.252  0.00  0.00    +0.000 C 
ENDBRANCH   1   4
BRANCH   1   6
ATOM      6  C   UNL     1       3.542   5.001  19.222  0.00  0.00    +0.000 C 
ATOM      7  S   UNL     1       2.695   6.361  18.688  0.00  0.00    +0.000 S 
BRANCH   6   8
ATOM      8  S   UNL     1       5.309   5.114  19.120  0.00  0.00    +0.000 S 
ATOM      9  H   UNL     1       5.678   4.316  20.119  0.00  0.00    +0.000 HD
ENDBRANCH   6   8
ENDBRANCH   1   6
TORSDOF 4
ENDMDL
MODEL 8
REMARK VINA RESULT:      -3.3      1.370      2.563
REMARK  Name = 
REMARK  6 active torsions:
REMARK  status: ('A' for Active; 'I' for Inactive)
REMARK    1  A    between atoms: C_1  and  C_2
REMARK    2  A    between atoms: C_2  and  N_3
REMARK    3  A    between atoms: N_3  and  C_4
REMARK    4  A    between atoms: N_3  and  C_6
REMARK    5  A    between atoms: C_4  and  C_5
REMARK    6  A    between atoms: C_6  and  S_8
REMARK                            x       y       z     vdW  Elec       q    Type
REMARK                         _______ _______ _______ _____ _____    ______ ____
ROOT
ATOM      1  N   UNL     1       1.990   4.521  19.313  0.00  0.00    +0.000 N 
ENDROOT
BRANCH   1   3
ATOM      2  C   UNL     1       1.571   3.018  21.271  0.00  0.00    +0.000 C 
ATOM      3  C   UNL     1       1.496   4.429  20.704  0.00  0.00    +0.000 C 
ENDBRANCH   1   3
BRANCH   1   4
ATOM      4  C   UNL     1       1.448   3.570  18.319  0.00  0.00    +0.000 C 
ATOM      5  C   UNL     1       2.373   2.522  17.713  0.00  0.00    +0.000 C 
ENDBRANCH   1   4
BRANCH   1   6
ATOM      6  C   UNL     1       2.979   5.483  18.977  0.00  0.00    +0.000 C 
ATOM      7  S   UNL     1       2.680   7.020  18.344  0.00  0.00    +0.000 S 
BRANCH   6   8
ATOM      8  S   UNL     1       4.687   5.081  19.231  0.00  0.00    +0.000 S 
ATOM      9  H   UNL     1       4.716   3.810  18.837  0.00  0.00    +0.000 HD
ENDBRANCH   6   8
ENDBRANCH   1   6
TORSDOF 4
ENDMDL
MODEL 9
REMARK VINA RESULT:      -3.3      1.417      1.853
REMARK  Name = 
REMARK  6 active torsions:
REMARK  status: ('A' for Active; 'I' for Inactive)
REMARK    1  A    between atoms: C_1  and  C_2
REMARK    2  A    between atoms: C_2  and  N_3
REMARK    3  A    between atoms: N_3  and  C_4
REMARK    4  A    between atoms: N_3  and  C_6
REMARK    5  A    between atoms: C_4  and  C_5
REMARK    6  A    between atoms: C_6  and  S_8
REMARK                            x       y       z     vdW  Elec       q    Type
REMARK                         _______ _______ _______ _____ _____    ______ ____
ROOT
ATOM      1  N   UNL     1       2.087   3.621  18.779  0.00  0.00    +0.000 N 
ENDROOT
BRANCH   1   3
ATOM      2  C   UNL     1       3.451   1.548  18.449  0.00  0.00    +0.000 C 
ATOM      3  C   UNL     1       2.341   2.445  17.918  0.00  0.00    +0.000 C 
ENDBRANCH   1   3
BRANCH   1   4
ATOM      4  C   UNL     1       1.026   3.517  19.803  0.00  0.00    +0.000 C 
ATOM      5  C   UNL     1       1.363   2.920  21.163  0.00  0.00    +0.000 C 
ENDBRANCH   1   4
BRANCH   1   6
ATOM      6  C   UNL     1       2.834   4.812  18.583  0.00  0.00    +0.000 C 
ATOM      7  S   UNL     1       4.032   5.040  17.414  0.00  0.00    +0.000 S 
BRANCH   6   8
ATOM      8  S   UNL     1       2.515   6.207  19.631  0.00  0.00    +0.000 S 
ATOM      9  H   UNL     1       2.060   7.094  18.751  0.00  0.00    +0.000 HD
ENDBRANCH   6   8
ENDBRANCH   1   6
TORSDOF 4
ENDMDL
