MODEL 1
REMARK VINA RESULT:      -8.7      0.000      0.000
REMARK  Name = 
REMARK  6 active torsions:
REMARK  status: ('A' for Active; 'I' for Inactive)
REMARK    1  A    between atoms: C_1  and  C_2
REMARK    2  A    between atoms: N_4  and  C_5
REMARK    3  A    between atoms: C_5  and  C_6
REMARK    4  A    between atoms: N_8  and  C_9
REMARK    5  A    between atoms: C_13  and  N_14
REMARK    6  A    between atoms: C_19  and  C_20
REMARK                            x       y       z     vdW  Elec       q    Type
REMARK                         _______ _______ _______ _____ _____    ______ ____
ROOT
ATOM      1  C   UNL     1       3.026   6.823  18.594  0.00  0.00    +0.000 A 
ATOM      2  C   UNL     1       2.516   6.733  19.882  0.00  0.00    +0.000 A 
ATOM      3  C   UNL     1       1.688   7.724  20.412  0.00  0.00    +0.000 A 
ATOM      4  F   UNL     1       1.315   7.534  21.686  0.00  0.00    +0.000 F 
ATOM      5  C   UNL     1       1.246   8.841  19.674  0.00  0.00    +0.000 A 
ATOM      6  C   UNL     1       1.828   8.935  18.393  0.00  0.00    +0.000 A 
ATOM      7  F   UNL     1       1.567   9.995  17.608  0.00  0.00    +0.000 F 
ATOM      8  C   UNL     1       2.704   7.963  17.865  0.00  0.00    +0.000 A 
ENDROOT
BRANCH   1  11
ATOM      9  C   UNL     1       5.680   4.460  17.623  0.00  0.00    +0.000 C 
ATOM     10  C   UNL     1       5.270   5.897  17.896  0.00  0.00    +0.000 C 
ATOM     11  N   UNL     1       3.854   5.792  18.074  0.00  0.00    +0.000 N 
ATOM     12  C   UNL     1       3.411   4.594  17.523  0.00  0.00    +0.000 C 
ATOM     13  O   UNL     1       2.267   4.214  17.343  0.00  0.00    +0.000 OA
ATOM     14  O   UNL     1       4.484   3.846  17.117  0.00  0.00    +0.000 OA
BRANCH   9  15
ATOM     15  C   UNL     1       6.790   4.344  16.577  0.00  0.00    +0.000 C 
BRANCH  15  19
ATOM     16  C   UNL     1       6.096   3.557  12.930  0.00  0.00    +0.000 C 
ATOM     17  C   UNL     1       6.593   4.346  14.112  0.00  0.00    +0.000 C 
ATOM     18  O   UNL     1       7.185   5.414  14.000  0.00  0.00    +0.000 OA
ATOM     19  N   UNL     1       6.330   3.757  15.327  0.00  0.00    +0.000 N 
ATOM     20  H   UNL     1       5.945   2.820  15.345  0.00  0.00    +0.000 HD
ENDBRANCH  15  19
ENDBRANCH   9  15
ENDBRANCH   1  11
BRANCH   5  21
ATOM     21  N   UNL     1       0.333   9.759  20.168  0.00  0.00    +0.000 N 
ATOM     22  C   UNL     1      -0.796  10.275  19.378  0.00  0.00    +0.000 C 
ATOM     23  C   UNL     1      -0.930  11.693  19.818  0.00  0.00    +0.000 C 
ATOM     24  C   UNL     1      -0.051  11.931  20.984  0.00  0.00    +0.000 C 
ATOM     25  C   UNL     1       0.631  10.635  21.325  0.00  0.00    +0.000 C 
ATOM     26  C   UNL     1       0.261  12.622  19.670  0.00  0.00    +0.000 C 
BRANCH  26  27
ATOM     27  C   UNL     1      -0.027  14.055  19.406  0.00  0.00    +0.000 C 
ATOM     28  O   UNL     1      -1.179  14.456  19.454  0.00  0.00    +0.000 OA
ATOM     29  N   UNL     1       1.106  14.749  19.050  0.00  0.00    +0.000 N 
ATOM     30  C   UNL     1       1.048  16.050  18.643  0.00  0.00    +0.000 A 
ATOM     31  N   UNL     1       0.042  16.883  18.692  0.00  0.00    +0.000 NA
ATOM     32  C   UNL     1       0.398  18.064  18.079  0.00  0.00    +0.000 A 
ATOM     33  C   UNL     1       1.680  18.109  17.573  0.00  0.00    +0.000 A 
ATOM     34  S   UNL     1       2.489  16.638  17.939  0.00  0.00    +0.000 S 
ATOM     35  H   UNL     1       1.992  14.278  18.952  0.00  0.00    +0.000 HD
ENDBRANCH  26  27
ENDBRANCH   5  21
TORSDOF 5
ENDMDL
MODEL 2
REMARK VINA RESULT:      -8.7      3.040      3.873
REMARK  Name = 
REMARK  6 active torsions:
REMARK  status: ('A' for Active; 'I' for Inactive)
REMARK    1  A    between atoms: C_1  and  C_2
REMARK    2  A    between atoms: N_4  and  C_5
REMARK    3  A    between atoms: C_5  and  C_6
REMARK    4  A    between atoms: N_8  and  C_9
REMARK    5  A    between atoms: C_13  and  N_14
REMARK    6  A    between atoms: C_19  and  C_20
REMARK                            x       y       z     vdW  Elec       q    Type
REMARK                         _______ _______ _______ _____ _____    ______ ____
ROOT
ATOM      1  C   UNL     1       2.511   7.096  19.288  0.00  0.00    +0.000 A 
ATOM      2  C   UNL     1       2.424   7.990  18.229  0.00  0.00    +0.000 A 
ATOM      3  C   UNL     1       1.674   9.164  18.321  0.00  0.00    +0.000 A 
ATOM      4  F   UNL     1       1.635   9.904  17.204  0.00  0.00    +0.000 F 
ATOM      5  C   UNL     1       1.015   9.571  19.498  0.00  0.00    +0.000 A 
ATOM      6  C   UNL     1       1.070   8.616  20.534  0.00  0.00    +0.000 A 
ATOM      7  F   UNL     1       0.412   8.830  21.688  0.00  0.00    +0.000 F 
ATOM      8  C   UNL     1       1.787   7.405  20.435  0.00  0.00    +0.000 A 
ENDROOT
BRANCH   1  11
ATOM      9  C   UNL     1       5.076   4.455  19.191  0.00  0.00    +0.000 C 
ATOM     10  C   UNL     1       4.700   5.898  18.902  0.00  0.00    +0.000 C 
ATOM     11  N   UNL     1       3.294   5.917  19.173  0.00  0.00    +0.000 N 
ATOM     12  C   UNL     1       2.806   4.615  19.153  0.00  0.00    +0.000 C 
ATOM     13  O   UNL     1       1.650   4.234  19.190  0.00  0.00    +0.000 OA
ATOM     14  O   UNL     1       3.845   3.733  19.021  0.00  0.00    +0.000 OA
BRANCH   9  15
ATOM     15  C   UNL     1       6.123   3.904  18.222  0.00  0.00    +0.000 C 
BRANCH  15  19
ATOM     16  C   UNL     1       5.963   4.197  14.443  0.00  0.00    +0.000 C 
ATOM     17  C   UNL     1       6.578   4.248  15.816  0.00  0.00    +0.000 C 
ATOM     18  O   UNL     1       7.759   4.513  16.010  0.00  0.00    +0.000 OA
ATOM     19  N   UNL     1       5.695   3.963  16.832  0.00  0.00    +0.000 N 
ATOM     20  H   UNL     1       4.765   3.636  16.598  0.00  0.00    +0.000 HD
ENDBRANCH  15  19
ENDBRANCH   9  15
ENDBRANCH   1  11
BRANCH   5  21
ATOM     21  N   UNL     1       0.368  10.791  19.618  0.00  0.00    +0.000 N 
ATOM     22  C   UNL     1       0.938  11.935  20.348  0.00  0.00    +0.000 C 
ATOM     23  C   UNL     1      -0.245  12.593  20.973  0.00  0.00    +0.000 C 
ATOM     24  C   UNL     1      -1.484  11.982  20.445  0.00  0.00    +0.000 C 
ATOM     25  C   UNL     1      -1.094  10.939  19.433  0.00  0.00    +0.000 C 
ATOM     26  C   UNL     1      -1.126  11.783  21.906  0.00  0.00    +0.000 C 
BRANCH  26  27
ATOM     27  C   UNL     1      -1.783  12.512  23.020  0.00  0.00    +0.000 C 
ATOM     28  O   UNL     1      -2.808  12.065  23.509  0.00  0.00    +0.000 OA
ATOM     29  N   UNL     1      -1.146  13.697  23.305  0.00  0.00    +0.000 N 
ATOM     30  C   UNL     1      -1.657  14.584  24.208  0.00  0.00    +0.000 A 
ATOM     31  N   UNL     1      -2.643  14.424  25.050  0.00  0.00    +0.000 NA
ATOM     32  C   UNL     1      -2.885  15.614  25.700  0.00  0.00    +0.000 A 
ATOM     33  C   UNL     1      -2.068  16.665  25.340  0.00  0.00    +0.000 A 
ATOM     34  S   UNL     1      -0.913  16.121  24.190  0.00  0.00    +0.000 S 
ATOM     35  H   UNL     1      -0.356  14.004  22.759  0.00  0.00    +0.000 HD
ENDBRANCH  26  27
ENDBRANCH   5  21
TORSDOF 5
ENDMDL
MODEL 3
REMARK VINA RESULT:      -8.7      3.238      3.906
REMARK  Name = 
REMARK  6 active torsions:
REMARK  status: ('A' for Active; 'I' for Inactive)
REMARK    1  A    between atoms: C_1  and  C_2
REMARK    2  A    between atoms: N_4  and  C_5
REMARK    3  A    between atoms: C_5  and  C_6
REMARK    4  A    between atoms: N_8  and  C_9
REMARK    5  A    between atoms: C_13  and  N_14
REMARK    6  A    between atoms: C_19  and  C_20
REMARK                            x       y       z     vdW  Elec       q    Type
REMARK                         _______ _______ _______ _____ _____    ______ ____
ROOT
ATOM      1  C   UNL     1       2.953   7.086  18.633  0.00  0.00    +0.000 A 
ATOM      2  C   UNL     1       2.295   7.181  19.852  0.00  0.00    +0.000 A 
ATOM      3  C   UNL     1       1.502   8.284  20.173  0.00  0.00    +0.000 A 
ATOM      4  F   UNL     1       0.973   8.267  21.404  0.00  0.00    +0.000 F 
ATOM      5  C   UNL     1       1.245   9.340  19.274  0.00  0.00    +0.000 A 
ATOM      6  C   UNL     1       1.974   9.245  18.070  0.00  0.00    +0.000 A 
ATOM      7  F   UNL     1       1.895  10.226  17.154  0.00  0.00    +0.000 F 
ATOM      8  C   UNL     1       2.815   8.157  17.757  0.00  0.00    +0.000 A 
ENDROOT
BRANCH   1  11
ATOM      9  C   UNL     1       5.495   4.453  18.215  0.00  0.00    +0.000 C 
ATOM     10  C   UNL     1       5.170   5.937  18.259  0.00  0.00    +0.000 C 
ATOM     11  N   UNL     1       3.741   5.944  18.327  0.00  0.00    +0.000 N 
ATOM     12  C   UNL     1       3.256   4.711  17.903  0.00  0.00    +0.000 C 
ATOM     13  O   UNL     1       2.105   4.382  17.677  0.00  0.00    +0.000 OA
ATOM     14  O   UNL     1       4.299   3.850  17.693  0.00  0.00    +0.000 OA
BRANCH   9  15
ATOM     15  C   UNL     1       6.670   4.126  17.292  0.00  0.00    +0.000 C 
BRANCH  15  19
ATOM     16  C   UNL     1       6.221   3.890  13.532  0.00  0.00    +0.000 C 
ATOM     17  C   UNL     1       6.715   4.446  14.841  0.00  0.00    +0.000 C 
ATOM     18  O   UNL     1       7.470   5.410  14.915  0.00  0.00    +0.000 OA
ATOM     19  N   UNL     1       6.251   3.770  15.945  0.00  0.00    +0.000 N 
ATOM     20  H   UNL     1       5.728   2.912  15.812  0.00  0.00    +0.000 HD
ENDBRANCH  15  19
ENDBRANCH   9  15
ENDBRANCH   1  11
BRANCH   5  21
ATOM     21  N   UNL     1       0.366  10.374  19.556  0.00  0.00    +0.000 N 
ATOM     22  C   UNL     1      -0.920  10.170  20.241  0.00  0.00    +0.000 C 
ATOM     23  C   UNL     1      -1.835  11.156  19.598  0.00  0.00    +0.000 C 
ATOM     24  C   UNL     1      -1.052  12.055  18.721  0.00  0.00    +0.000 C 
ATOM     25  C   UNL     1       0.397  11.665  18.832  0.00  0.00    +0.000 C 
ATOM     26  C   UNL     1      -2.044  11.091  18.097  0.00  0.00    +0.000 C 
BRANCH  26  27
ATOM     27  C   UNL     1      -3.374  11.501  17.580  0.00  0.00    +0.000 C 
ATOM     28  O   UNL     1      -3.580  11.495  16.377  0.00  0.00    +0.000 OA
ATOM     29  N   UNL     1      -4.207  11.929  18.587  0.00  0.00    +0.000 N 
ATOM     30  C   UNL     1      -5.431  12.469  18.320  0.00  0.00    +0.000 A 
ATOM     31  N   UNL     1      -6.086  12.506  17.190  0.00  0.00    +0.000 NA
ATOM     32  C   UNL     1      -7.240  13.239  17.354  0.00  0.00    +0.000 A 
ATOM     33  C   UNL     1      -7.446  13.747  18.620  0.00  0.00    +0.000 A 
ATOM     34  S   UNL     1      -6.176  13.231  19.655  0.00  0.00    +0.000 S 
ATOM     35  H   UNL     1      -3.883  11.978  19.540  0.00  0.00    +0.000 HD
ENDBRANCH  26  27
ENDBRANCH   5  21
TORSDOF 5
ENDMDL
MODEL 4
REMARK VINA RESULT:      -8.6      3.157      4.078
REMARK  Name = 
REMARK  6 active torsions:
REMARK  status: ('A' for Active; 'I' for Inactive)
REMARK    1  A    between atoms: C_1  and  C_2
REMARK    2  A    between atoms: N_4  and  C_5
REMARK    3  A    between atoms: C_5  and  C_6
REMARK    4  A    between atoms: N_8  and  C_9
REMARK    5  A    between atoms: C_13  and  N_14
REMARK    6  A    between atoms: C_19  and  C_20
REMARK                            x       y       z     vdW  Elec       q    Type
REMARK                         _______ _______ _______ _____ _____    ______ ____
ROOT
ATOM      1  C   UNL     1       3.217   6.822  18.827  0.00  0.00    +0.000 A 
ATOM      2  C   UNL     1       2.922   7.769  17.857  0.00  0.00    +0.000 A 
ATOM      3  C   UNL     1       1.999   8.791  18.087  0.00  0.00    +0.000 A 
ATOM      4  F   UNL     1       1.772   9.601  17.043  0.00  0.00    +0.000 F 
ATOM      5  C   UNL     1       1.357   8.988  19.326  0.00  0.00    +0.000 A 
ATOM      6  C   UNL     1       1.630   7.977  20.270  0.00  0.00    +0.000 A 
ATOM      7  F   UNL     1       1.019   7.987  21.468  0.00  0.00    +0.000 F 
ATOM      8  C   UNL     1       2.525   6.913  20.030  0.00  0.00    +0.000 A 
ENDROOT
BRANCH   1  11
ATOM      9  C   UNL     1       6.164   4.656  18.385  0.00  0.00    +0.000 C 
ATOM     10  C   UNL     1       5.548   6.037  18.250  0.00  0.00    +0.000 C 
ATOM     11  N   UNL     1       4.173   5.802  18.571  0.00  0.00    +0.000 N 
ATOM     12  C   UNL     1       3.899   4.444  18.443  0.00  0.00    +0.000 C 
ATOM     13  O   UNL     1       2.822   3.877  18.483  0.00  0.00    +0.000 OA
ATOM     14  O   UNL     1       5.058   3.760  18.189  0.00  0.00    +0.000 OA
BRANCH   9  15
ATOM     15  C   UNL     1       7.236   4.373  17.331  0.00  0.00    +0.000 C 
BRANCH  15  19
ATOM     16  C   UNL     1       6.125   3.786  13.751  0.00  0.00    +0.000 C 
ATOM     17  C   UNL     1       6.668   4.547  14.931  0.00  0.00    +0.000 C 
ATOM     18  O   UNL     1       7.063   5.706  14.854  0.00  0.00    +0.000 OA
ATOM     19  N   UNL     1       6.688   3.822  16.100  0.00  0.00    +0.000 N 
ATOM     20  H   UNL     1       6.461   2.836  16.071  0.00  0.00    +0.000 HD
ENDBRANCH  15  19
ENDBRANCH   9  15
ENDBRANCH   1  11
BRANCH   5  21
ATOM     21  N   UNL     1       0.530  10.071  19.584  0.00  0.00    +0.000 N 
ATOM     22  C   UNL     1      -0.779   9.944  20.244  0.00  0.00    +0.000 C 
ATOM     23  C   UNL     1      -1.625  10.974  19.576  0.00  0.00    +0.000 C 
ATOM     24  C   UNL     1      -0.775  11.822  18.710  0.00  0.00    +0.000 C 
ATOM     25  C   UNL     1       0.648  11.354  18.853  0.00  0.00    +0.000 C 
ATOM     26  C   UNL     1      -1.805  10.910  18.071  0.00  0.00    +0.000 C 
BRANCH  26  27
ATOM     27  C   UNL     1      -3.100  11.390  17.523  0.00  0.00    +0.000 C 
ATOM     28  O   UNL     1      -3.255  11.454  16.315  0.00  0.00    +0.000 OA
ATOM     29  N   UNL     1      -3.962  11.788  18.518  0.00  0.00    +0.000 N 
ATOM     30  C   UNL     1      -5.157  12.380  18.232  0.00  0.00    +0.000 A 
ATOM     31  N   UNL     1      -5.762  12.499  17.080  0.00  0.00    +0.000 NA
ATOM     32  C   UNL     1      -6.901  13.258  17.238  0.00  0.00    +0.000 A 
ATOM     33  C   UNL     1      -7.144  13.704  18.520  0.00  0.00    +0.000 A 
ATOM     34  S   UNL     1      -5.935  13.093  19.576  0.00  0.00    +0.000 S 
ATOM     35  H   UNL     1      -3.677  11.775  19.485  0.00  0.00    +0.000 HD
ENDBRANCH  26  27
ENDBRANCH   5  21
TORSDOF 5
ENDMDL
MODEL 5
REMARK VINA RESULT:      -8.6      1.269      1.981
REMARK  Name = 
REMARK  6 active torsions:
REMARK  status: ('A' for Active; 'I' for Inactive)
REMARK    1  A    between atoms: C_1  and  C_2
REMARK    2  A    between atoms: N_4  and  C_5
REMARK    3  A    between atoms: C_5  and  C_6
REMARK    4  A    between atoms: N_8  and  C_9
REMARK    5  A    between atoms: C_13  and  N_14
REMARK    6  A    between atoms: C_19  and  C_20
REMARK                            x       y       z     vdW  Elec       q    Type
REMARK                         _______ _______ _______ _____ _____    ______ ____
ROOT
ATOM      1  C   UNL     1       3.017   6.815  18.551  0.00  0.00    +0.000 A 
ATOM      2  C   UNL     1       2.756   7.943  17.786  0.00  0.00    +0.000 A 
ATOM      3  C   UNL     1       1.926   8.966  18.248  0.00  0.00    +0.000 A 
ATOM      4  F   UNL     1       1.719   9.968  17.382  0.00  0.00    +0.000 F 
ATOM      5  C   UNL     1       1.353   8.975  19.536  0.00  0.00    +0.000 A 
ATOM      6  C   UNL     1       1.586   7.790  20.265  0.00  0.00    +0.000 A 
ATOM      7  F   UNL     1       1.028   7.621  21.477  0.00  0.00    +0.000 F 
ATOM      8  C   UNL     1       2.385   6.731  19.788  0.00  0.00    +0.000 A 
ENDROOT
BRANCH   1  11
ATOM      9  C   UNL     1       5.757   4.535  17.622  0.00  0.00    +0.000 C 
ATOM     10  C   UNL     1       5.280   5.963  17.823  0.00  0.00    +0.000 C 
ATOM     11  N   UNL     1       3.879   5.797  18.063  0.00  0.00    +0.000 N 
ATOM     12  C   UNL     1       3.481   4.546  17.603  0.00  0.00    +0.000 C 
ATOM     13  O   UNL     1       2.354   4.098  17.492  0.00  0.00    +0.000 OA
ATOM     14  O   UNL     1       4.577   3.830  17.201  0.00  0.00    +0.000 OA
BRANCH   9  15
ATOM     15  C   UNL     1       6.832   4.410  16.542  0.00  0.00    +0.000 C 
BRANCH  15  19
ATOM     16  C   UNL     1       6.079   3.640  12.904  0.00  0.00    +0.000 C 
ATOM     17  C   UNL     1       6.644   4.396  14.076  0.00  0.00    +0.000 C 
ATOM     18  O   UNL     1       7.334   5.402  13.952  0.00  0.00    +0.000 OA
ATOM     19  N   UNL     1       6.324   3.851  15.298  0.00  0.00    +0.000 N 
ATOM     20  H   UNL     1       5.852   2.954  15.328  0.00  0.00    +0.000 HD
ENDBRANCH  15  19
ENDBRANCH   9  15
ENDBRANCH   1  11
BRANCH   5  21
ATOM     21  N   UNL     1       0.624  10.046  20.031  0.00  0.00    +0.000 N 
ATOM     22  C   UNL     1      -0.482  10.675  19.292  0.00  0.00    +0.000 C 
ATOM     23  C   UNL     1      -0.376  12.121  19.639  0.00  0.00    +0.000 C 
ATOM     24  C   UNL     1       0.622  12.295  20.717  0.00  0.00    +0.000 C 
ATOM     25  C   UNL     1       1.139  10.935  21.097  0.00  0.00    +0.000 C 
ATOM     26  C   UNL     1       0.918  12.853  19.337  0.00  0.00    +0.000 C 
BRANCH  26  27
ATOM     27  C   UNL     1       0.816  14.295  18.995  0.00  0.00    +0.000 C 
ATOM     28  O   UNL     1       1.764  14.857  18.472  0.00  0.00    +0.000 OA
ATOM     29  N   UNL     1      -0.377  14.838  19.411  0.00  0.00    +0.000 N 
ATOM     30  C   UNL     1      -0.626  16.176  19.311  0.00  0.00    +0.000 A 
ATOM     31  N   UNL     1       0.057  17.095  18.682  0.00  0.00    +0.000 NA
ATOM     32  C   UNL     1      -0.502  18.329  18.929  0.00  0.00    +0.000 A 
ATOM     33  C   UNL     1      -1.613  18.325  19.746  0.00  0.00    +0.000 A 
ATOM     34  S   UNL     1      -2.007  16.706  20.166  0.00  0.00    +0.000 S 
ATOM     35  H   UNL     1      -1.046  14.285  19.924  0.00  0.00    +0.000 HD
ENDBRANCH  26  27
ENDBRANCH   5  21
TORSDOF 5
ENDMDL
MODEL 6
REMARK VINA RESULT:      -8.5      1.464      1.587
REMARK  Name = 
REMARK  6 active torsions:
REMARK  status: ('A' for Active; 'I' for Inactive)
REMARK    1  A    between atoms: C_1  and  C_2
REMARK    2  A    between atoms: N_4  and  C_5
REMARK    3  A    between atoms: C_5  and  C_6
REMARK    4  A    between atoms: N_8  and  C_9
REMARK    5  A    between atoms: C_13  and  N_14
REMARK    6  A    between atoms: C_19  and  C_20
REMARK                            x       y       z     vdW  Elec       q    Type
REMARK                         _______ _______ _______ _____ _____    ______ ____
ROOT
ATOM      1  C   UNL     1       3.014   6.941  18.575  0.00  0.00    +0.000 A 
ATOM      2  C   UNL     1       2.416   6.865  19.825  0.00  0.00    +0.000 A 
ATOM      3  C   UNL     1       1.595   7.886  20.308  0.00  0.00    +0.000 A 
ATOM      4  F   UNL     1       1.132   7.704  21.553  0.00  0.00    +0.000 F 
ATOM      5  C   UNL     1       1.250   9.024  19.551  0.00  0.00    +0.000 A 
ATOM      6  C   UNL     1       1.919   9.101  18.312  0.00  0.00    +0.000 A 
ATOM      7  F   UNL     1       1.753  10.176  17.521  0.00  0.00    +0.000 F 
ATOM      8  C   UNL     1       2.787   8.097  17.836  0.00  0.00    +0.000 A 
ENDROOT
BRANCH   1  11
ATOM      9  C   UNL     1       5.645   4.511  17.714  0.00  0.00    +0.000 C 
ATOM     10  C   UNL     1       5.249   5.963  17.923  0.00  0.00    +0.000 C 
ATOM     11  N   UNL     1       3.832   5.880  18.102  0.00  0.00    +0.000 N 
ATOM     12  C   UNL     1       3.378   4.663  17.604  0.00  0.00    +0.000 C 
ATOM     13  O   UNL     1       2.231   4.287  17.438  0.00  0.00    +0.000 OA
ATOM     14  O   UNL     1       4.444   3.888  17.233  0.00  0.00    +0.000 OA
BRANCH   9  15
ATOM     15  C   UNL     1       6.755   4.338  16.676  0.00  0.00    +0.000 C 
BRANCH  15  19
ATOM     16  C   UNL     1       6.132   3.756  12.979  0.00  0.00    +0.000 C 
ATOM     17  C   UNL     1       6.711   4.410  14.204  0.00  0.00    +0.000 C 
ATOM     18  O   UNL     1       7.518   5.332  14.152  0.00  0.00    +0.000 OA
ATOM     19  N   UNL     1       6.259   3.874  15.388  0.00  0.00    +0.000 N 
ATOM     20  H   UNL     1       5.687   3.038  15.363  0.00  0.00    +0.000 HD
ENDBRANCH  15  19
ENDBRANCH   9  15
ENDBRANCH   1  11
BRANCH   5  21
ATOM     21  N   UNL     1       0.344   9.976  19.992  0.00  0.00    +0.000 N 
ATOM     22  C   UNL     1      -0.728  10.520  19.142  0.00  0.00    +0.000 C 
ATOM     23  C   UNL     1      -0.837  11.946  19.562  0.00  0.00    +0.000 C 
ATOM     24  C   UNL     1      -0.009  12.168  20.768  0.00  0.00    +0.000 C 
ATOM     25  C   UNL     1       0.613  10.854  21.154  0.00  0.00    +0.000 C 
ATOM     26  C   UNL     1       0.389  12.834  19.464  0.00  0.00    +0.000 C 
BRANCH  26  27
ATOM     27  C   UNL     1       0.161  14.273  19.174  0.00  0.00    +0.000 C 
ATOM     28  O   UNL     1       1.009  14.905  18.566  0.00  0.00    +0.000 OA
ATOM     29  N   UNL     1      -1.010  14.730  19.732  0.00  0.00    +0.000 N 
ATOM     30  C   UNL     1      -1.351  16.051  19.695  0.00  0.00    +0.000 A 
ATOM     31  N   UNL     1      -0.798  17.024  19.021  0.00  0.00    +0.000 NA
ATOM     32  C   UNL     1      -1.402  18.215  19.360  0.00  0.00    +0.000 A 
ATOM     33  C   UNL     1      -2.414  18.123  20.293  0.00  0.00    +0.000 A 
ATOM     34  S   UNL     1      -2.659  16.474  20.709  0.00  0.00    +0.000 S 
ATOM     35  H   UNL     1      -1.583  14.125  20.299  0.00  0.00    +0.000 HD
ENDBRANCH  26  27
ENDBRANCH   5  21
TORSDOF 5
ENDMDL
MODEL 7
REMARK VINA RESULT:      -8.5      3.012      3.608
REMARK  Name = 
REMARK  6 active torsions:
REMARK  status: ('A' for Active; 'I' for Inactive)
REMARK    1  A    between atoms: C_1  and  C_2
REMARK    2  A    between atoms: N_4  and  C_5
REMARK    3  A    between atoms: C_5  and  C_6
REMARK    4  A    between atoms: N_8  and  C_9
REMARK    5  A    between atoms: C_13  and  N_14
REMARK    6  A    between atoms: C_19  and  C_20
REMARK                            x       y       z     vdW  Elec       q    Type
REMARK                         _______ _______ _______ _____ _____    ______ ____
ROOT
ATOM      1  C   UNL     1       2.447   7.243  18.966  0.00  0.00    +0.000 A 
ATOM      2  C   UNL     1       1.746   7.540  20.127  0.00  0.00    +0.000 A 
ATOM      3  C   UNL     1       1.122   8.775  20.310  0.00  0.00    +0.000 A 
ATOM      4  F   UNL     1       0.530   8.943  21.501  0.00  0.00    +0.000 F 
ATOM      5  C   UNL     1       1.087   9.778  19.321  0.00  0.00    +0.000 A 
ATOM      6  C   UNL     1       1.857   9.472  18.180  0.00  0.00    +0.000 A 
ATOM      7  F   UNL     1       1.987  10.373  17.190  0.00  0.00    +0.000 F 
ATOM      8  C   UNL     1       2.530   8.245  18.005  0.00  0.00    +0.000 A 
ENDROOT
BRANCH   1  11
ATOM      9  C   UNL     1       4.500   4.184  19.005  0.00  0.00    +0.000 C 
ATOM     10  C   UNL     1       4.448   5.703  19.013  0.00  0.00    +0.000 C 
ATOM     11  N   UNL     1       3.059   5.972  18.799  0.00  0.00    +0.000 N 
ATOM     12  C   UNL     1       2.450   4.840  18.265  0.00  0.00    +0.000 C 
ATOM     13  O   UNL     1       1.326   4.721  17.813  0.00  0.00    +0.000 OA
ATOM     14  O   UNL     1       3.341   3.800  18.248  0.00  0.00    +0.000 OA
BRANCH   9  15
ATOM     15  C   UNL     1       5.754   3.632  18.325  0.00  0.00    +0.000 C 
BRANCH  15  19
ATOM     16  C   UNL     1       6.528   4.305  14.672  0.00  0.00    +0.000 C 
ATOM     17  C   UNL     1       6.724   4.342  16.164  0.00  0.00    +0.000 C 
ATOM     18  O   UNL     1       7.704   4.852  16.697  0.00  0.00    +0.000 OA
ATOM     19  N   UNL     1       5.708   3.746  16.875  0.00  0.00    +0.000 N 
ATOM     20  H   UNL     1       4.988   3.240  16.372  0.00  0.00    +0.000 HD
ENDBRANCH  15  19
ENDBRANCH   9  15
ENDBRANCH   1  11
BRANCH   5  21
ATOM     21  N   UNL     1       0.370  10.956  19.465  0.00  0.00    +0.000 N 
ATOM     22  C   UNL     1       0.902  12.143  20.153  0.00  0.00    +0.000 C 
ATOM     23  C   UNL     1      -0.285  12.730  20.837  0.00  0.00    +0.000 C 
ATOM     24  C   UNL     1      -1.509  12.033  20.382  0.00  0.00    +0.000 C 
ATOM     25  C   UNL     1      -1.107  11.006  19.360  0.00  0.00    +0.000 C 
ATOM     26  C   UNL     1      -1.060  11.875  21.823  0.00  0.00    +0.000 C 
BRANCH  26  27
ATOM     27  C   UNL     1      -1.702  12.574  22.965  0.00  0.00    +0.000 C 
ATOM     28  O   UNL     1      -2.696  12.091  23.483  0.00  0.00    +0.000 OA
ATOM     29  N   UNL     1      -1.093  13.775  23.241  0.00  0.00    +0.000 N 
ATOM     30  C   UNL     1      -1.600  14.638  24.169  0.00  0.00    +0.000 A 
ATOM     31  N   UNL     1      -2.553  14.440  25.041  0.00  0.00    +0.000 NA
ATOM     32  C   UNL     1      -2.810  15.616  25.711  0.00  0.00    +0.000 A 
ATOM     33  C   UNL     1      -2.038  16.695  25.335  0.00  0.00    +0.000 A 
ATOM     34  S   UNL     1      -0.906  16.198  24.143  0.00  0.00    +0.000 S 
ATOM     35  H   UNL     1      -0.331  14.112  22.672  0.00  0.00    +0.000 HD
ENDBRANCH  26  27
ENDBRANCH   5  21
TORSDOF 5
ENDMDL
MODEL 8
REMARK VINA RESULT:      -8.4      0.502      1.521
REMARK  Name = 
REMARK  6 active torsions:
REMARK  status: ('A' for Active; 'I' for Inactive)
REMARK    1  A    between atoms: C_1  and  C_2
REMARK    2  A    between atoms: N_4  and  C_5
REMARK    3  A    between atoms: C_5  and  C_6
REMARK    4  A    between atoms: N_8  and  C_9
REMARK    5  A    between atoms: C_13  and  N_14
REMARK    6  A    between atoms: C_19  and  C_20
REMARK                            x       y       z     vdW  Elec       q    Type
REMARK                         _______ _______ _______ _____ _____    ______ ____
ROOT
ATOM      1  C   UNL     1       3.043   6.615  18.814  0.00  0.00    +0.000 A 
ATOM      2  C   UNL     1       2.725   7.729  18.049  0.00  0.00    +0.000 A 
ATOM      3  C   UNL     1       1.825   8.696  18.500  0.00  0.00    +0.000 A 
ATOM      4  F   UNL     1       1.571   9.687  17.634  0.00  0.00    +0.000 F 
ATOM      5  C   UNL     1       1.232   8.664  19.779  0.00  0.00    +0.000 A 
ATOM      6  C   UNL     1       1.526   7.493  20.507  0.00  0.00    +0.000 A 
ATOM      7  F   UNL     1       0.959   7.285  21.709  0.00  0.00    +0.000 F 
ATOM      8  C   UNL     1       2.397   6.487  20.040  0.00  0.00    +0.000 A 
ENDROOT
BRANCH   1  11
ATOM      9  C   UNL     1       5.915   4.460  17.995  0.00  0.00    +0.000 C 
ATOM     10  C   UNL     1       5.388   5.859  18.264  0.00  0.00    +0.000 C 
ATOM     11  N   UNL     1       3.974   5.655  18.337  0.00  0.00    +0.000 N 
ATOM     12  C   UNL     1       3.655   4.443  17.734  0.00  0.00    +0.000 C 
ATOM     13  O   UNL     1       2.556   3.991  17.465  0.00  0.00    +0.000 OA
ATOM     14  O   UNL     1       4.803   3.779  17.392  0.00  0.00    +0.000 OA
BRANCH   9  15
ATOM     15  C   UNL     1       7.101   4.443  17.030  0.00  0.00    +0.000 C 
BRANCH  15  19
ATOM     16  C   UNL     1       6.243   3.733  13.403  0.00  0.00    +0.000 C 
ATOM     17  C   UNL     1       6.473   4.557  14.641  0.00  0.00    +0.000 C 
ATOM     18  O   UNL     1       6.396   5.781  14.653  0.00  0.00    +0.000 OA
ATOM     19  N   UNL     1       6.786   3.814  15.755  0.00  0.00    +0.000 N 
ATOM     20  H   UNL     1       6.950   2.820  15.653  0.00  0.00    +0.000 HD
ENDBRANCH  15  19
ENDBRANCH   9  15
ENDBRANCH   1  11
BRANCH   5  21
ATOM     21  N   UNL     1       0.430   9.686  20.264  0.00  0.00    +0.000 N 
ATOM     22  C   UNL     1      -0.683  10.267  19.498  0.00  0.00    +0.000 C 
ATOM     23  C   UNL     1      -0.667  11.711  19.871  0.00  0.00    +0.000 C 
ATOM     24  C   UNL     1       0.284  11.920  20.985  0.00  0.00    +0.000 C 
ATOM     25  C   UNL     1       0.861  10.582  21.362  0.00  0.00    +0.000 C 
ATOM     26  C   UNL     1       0.595  12.516  19.625  0.00  0.00    +0.000 C 
BRANCH  26  27
ATOM     27  C   UNL     1       0.427  13.956  19.302  0.00  0.00    +0.000 C 
ATOM     28  O   UNL     1      -0.678  14.467  19.391  0.00  0.00    +0.000 OA
ATOM     29  N   UNL     1       1.596  14.520  18.848  0.00  0.00    +0.000 N 
ATOM     30  C   UNL     1       1.635  15.800  18.376  0.00  0.00    +0.000 A 
ATOM     31  N   UNL     1       0.716  16.727  18.435  0.00  0.00    +0.000 NA
ATOM     32  C   UNL     1       1.143  17.838  17.742  0.00  0.00    +0.000 A 
ATOM     33  C   UNL     1       2.392  17.735  17.166  0.00  0.00    +0.000 A 
ATOM     34  S   UNL     1       3.080  16.213  17.565  0.00  0.00    +0.000 S 
ATOM     35  H   UNL     1       2.427  13.963  18.728  0.00  0.00    +0.000 HD
ENDBRANCH  26  27
ENDBRANCH   5  21
TORSDOF 5
ENDMDL
MODEL 9
REMARK VINA RESULT:      -8.4      0.945      1.773
REMARK  Name = 
REMARK  6 active torsions:
REMARK  status: ('A' for Active; 'I' for Inactive)
REMARK    1  A    between atoms: C_1  and  C_2
REMARK    2  A    between atoms: N_4  and  C_5
REMARK    3  A    between atoms: C_5  and  C_6
REMARK    4  A    between atoms: N_8  and  C_9
REMARK    5  A    between atoms: C_13  and  N_14
REMARK    6  A    between atoms: C_19  and  C_20
REMARK                            x       y       z     vdW  Elec       q    Type
REMARK                         _______ _______ _______ _____ _____    ______ ____
ROOT
ATOM      1  C   UNL     1       3.400   6.501  18.050  0.00  0.00    +0.000 A 
ATOM      2  C   UNL     1       3.023   7.726  17.517  0.00  0.00    +0.000 A 
ATOM      3  C   UNL     1       2.157   8.585  18.196  0.00  0.00    +0.000 A 
ATOM      4  F   UNL     1       1.835   9.707  17.538  0.00  0.00    +0.000 F 
ATOM      5  C   UNL     1       1.661   8.321  19.489  0.00  0.00    +0.000 A 
ATOM      6  C   UNL     1       2.012   7.046  19.978  0.00  0.00    +0.000 A 
ATOM      7  F   UNL     1       1.538   6.621  21.163  0.00  0.00    +0.000 F 
ATOM      8  C   UNL     1       2.849   6.150  19.278  0.00  0.00    +0.000 A 
ENDROOT
BRANCH   1  11
ATOM      9  C   UNL     1       6.158   4.858  16.243  0.00  0.00    +0.000 C 
ATOM     10  C   UNL     1       5.330   6.112  16.469  0.00  0.00    +0.000 C 
ATOM     11  N   UNL     1       4.296   5.654  17.345  0.00  0.00    +0.000 N 
ATOM     12  C   UNL     1       4.217   4.267  17.273  0.00  0.00    +0.000 C 
ATOM     13  O   UNL     1       3.375   3.526  17.748  0.00  0.00    +0.000 OA
ATOM     14  O   UNL     1       5.239   3.784  16.500  0.00  0.00    +0.000 OA
BRANCH   9  15
ATOM     15  C   UNL     1       6.685   4.740  14.812  0.00  0.00    +0.000 C 
BRANCH  15  19
ATOM     16  C   UNL     1       4.978   3.074  11.862  0.00  0.00    +0.000 C 
ATOM     17  C   UNL     1       6.079   3.763  12.623  0.00  0.00    +0.000 C 
ATOM     18  O   UNL     1       7.188   3.979  12.146  0.00  0.00    +0.000 OA
ATOM     19  N   UNL     1       5.731   4.119  13.906  0.00  0.00    +0.000 N 
ATOM     20  H   UNL     1       4.842   3.807  14.279  0.00  0.00    +0.000 HD
ENDBRANCH  15  19
ENDBRANCH   9  15
ENDBRANCH   1  11
BRANCH   5  21
ATOM     21  N   UNL     1       0.895   9.229  20.204  0.00  0.00    +0.000 N 
ATOM     22  C   UNL     1      -0.457   9.639  19.793  0.00  0.00    +0.000 C 
ATOM     23  C   UNL     1      -0.535  11.076  20.181  0.00  0.00    +0.000 C 
ATOM     24  C   UNL     1       0.652  11.432  20.990  0.00  0.00    +0.000 C 
ATOM     25  C   UNL     1       1.489  10.194  21.158  0.00  0.00    +0.000 C 
ATOM     26  C   UNL     1       0.484  12.045  19.612  0.00  0.00    +0.000 C 
BRANCH  26  27
ATOM     27  C   UNL     1       0.036  13.442  19.383  0.00  0.00    +0.000 C 
ATOM     28  O   UNL     1      -1.158  13.691  19.334  0.00  0.00    +0.000 OA
ATOM     29  N   UNL     1       1.096  14.293  19.171  0.00  0.00    +0.000 N 
ATOM     30  C   UNL     1       0.905  15.597  18.816  0.00  0.00    +0.000 A 
ATOM     31  N   UNL     1      -0.201  16.292  18.801  0.00  0.00    +0.000 NA
ATOM     32  C   UNL     1       0.051  17.541  18.278  0.00  0.00    +0.000 A 
ATOM     33  C   UNL     1       1.357  17.775  17.904  0.00  0.00    +0.000 A 
ATOM     34  S   UNL     1       2.315  16.401  18.284  0.00  0.00    +0.000 S 
ATOM     35  H   UNL     1       2.041  13.944  19.141  0.00  0.00    +0.000 HD
ENDBRANCH  26  27
ENDBRANCH   5  21
TORSDOF 5
ENDMDL
