MODEL 1
REMARK VINA RESULT:      -6.0      0.000      0.000
REMARK  Name = 
REMARK  5 active torsions:
REMARK  status: ('A' for Active; 'I' for Inactive)
REMARK    1  A    between atoms: C_1  and  O_2
REMARK    2  A    between atoms: O_2  and  C_3
REMARK    3  A    between atoms: C_6  and  C_8
REMARK    4  A    between atoms: C_8  and  C_9
REMARK    5  A    between atoms: N_18  and  C_19
REMARK                            x       y       z     vdW  Elec       q    Type
REMARK                         _______ _______ _______ _____ _____    ______ ____
ROOT
ATOM      1  C   UNL     1      -0.900  11.898  22.117  0.00  0.00    +0.000 C 
ATOM      2  C   UNL     1       0.384  11.436  21.345  0.00  0.00    +0.000 C 
ATOM      3  N   UNL     1       0.237  11.370  19.869  0.00  0.00    +0.000 N 
ATOM      4  C   UNL     1      -0.525  10.328  19.356  0.00  0.00    +0.000 C 
ATOM      5  O   UNL     1      -1.004   9.467  20.098  0.00  0.00    +0.000 OA
ATOM      6  C   UNL     1       0.798  12.477  19.087  0.00  0.00    +0.000 C 
ATOM      7  C   UNL     1      -0.270  13.331  18.413  0.00  0.00    +0.000 C 
ATOM      8  C   UNL     1      -0.387  14.571  19.242  0.00  0.00    +0.000 C 
ATOM      9  O   UNL     1       0.337  15.551  19.068  0.00  0.00    +0.000 OA
ATOM     10  N   UNL     1      -1.166  14.284  20.344  0.00  0.00    +0.000 N 
ATOM     11  C   UNL     1      -2.624  14.275  20.210  0.00  0.00    +0.000 C 
ATOM     12  C   UNL     1      -0.684  14.437  21.652  0.00  0.00    +0.000 A 
ATOM     13  C   UNL     1      -0.427  15.739  22.094  0.00  0.00    +0.000 A 
ATOM     14  C   UNL     1      -0.722  16.065  23.409  0.00  0.00    +0.000 A 
ATOM     15  C   UNL     1      -1.242  15.086  24.250  0.00  0.00    +0.000 A 
ATOM     16  C   UNL     1      -1.307  13.743  23.837  0.00  0.00    +0.000 A 
ATOM     17  C   UNL     1      -0.927  13.375  22.544  0.00  0.00    +0.000 A 
ENDROOT
BRANCH   1  19
ATOM     18  C   UNL     1      -0.263   9.866  23.248  0.00  0.00    +0.000 C 
ATOM     19  O   UNL     1      -0.974  11.094  23.315  0.00  0.00    +0.000 OA
ENDBRANCH   1  19
BRANCH   4  20
ATOM     20  C   UNL     1      -0.861  10.264  17.867  0.00  0.00    +0.000 C 
BRANCH  20  21
ATOM     21  C   UNL     1      -2.327  10.140  17.499  0.00  0.00    +0.000 C 
ATOM     22  C   UNL     1      -3.140  11.349  17.935  0.00  0.00    +0.000 C 
ATOM     23  C   UNL     1      -4.376  11.290  17.056  0.00  0.00    +0.000 C 
ATOM     24  C   UNL     1      -3.930  10.649  15.744  0.00  0.00    +0.000 C 
ATOM     25  C   UNL     1      -2.528  10.099  15.979  0.00  0.00    +0.000 C 
ENDBRANCH  20  21
ENDBRANCH   4  20
TORSDOF 3
ENDMDL
MODEL 2
REMARK VINA RESULT:      -6.0      8.447     10.677
REMARK  Name = 
REMARK  5 active torsions:
REMARK  status: ('A' for Active; 'I' for Inactive)
REMARK    1  A    between atoms: C_1  and  O_2
REMARK    2  A    between atoms: O_2  and  C_3
REMARK    3  A    between atoms: C_6  and  C_8
REMARK    4  A    between atoms: C_8  and  C_9
REMARK    5  A    between atoms: N_18  and  C_19
REMARK                            x       y       z     vdW  Elec       q    Type
REMARK                         _______ _______ _______ _____ _____    ______ ____
ROOT
ATOM      1  C   UNL     1       4.774   3.491  19.293  0.00  0.00    +0.000 C 
ATOM      2  C   UNL     1       5.765   4.703  19.385  0.00  0.00    +0.000 C 
ATOM      3  N   UNL     1       5.957   5.451  18.117  0.00  0.00    +0.000 N 
ATOM      4  C   UNL     1       6.705   4.831  17.124  0.00  0.00    +0.000 C 
ATOM      5  O   UNL     1       7.231   3.733  17.318  0.00  0.00    +0.000 OA
ATOM      6  C   UNL     1       5.238   6.722  17.971  0.00  0.00    +0.000 C 
ATOM      7  C   UNL     1       4.145   6.668  16.909  0.00  0.00    +0.000 C 
ATOM      8  C   UNL     1       2.855   6.543  17.657  0.00  0.00    +0.000 C 
ATOM      9  O   UNL     1       2.236   7.522  18.074  0.00  0.00    +0.000 OA
ATOM     10  N   UNL     1       2.697   5.225  18.031  0.00  0.00    +0.000 N 
ATOM     11  C   UNL     1       2.190   4.256  17.057  0.00  0.00    +0.000 C 
ATOM     12  C   UNL     1       2.569   4.847  19.376  0.00  0.00    +0.000 A 
ATOM     13  C   UNL     1       1.406   5.243  20.046  0.00  0.00    +0.000 A 
ATOM     14  C   UNL     1       0.833   4.368  20.956  0.00  0.00    +0.000 A 
ATOM     15  C   UNL     1       1.442   3.137  21.189  0.00  0.00    +0.000 A 
ATOM     16  C   UNL     1       2.709   2.848  20.652  0.00  0.00    +0.000 A 
ATOM     17  C   UNL     1       3.348   3.755  19.804  0.00  0.00    +0.000 A 
ENDROOT
BRANCH   1  19
ATOM     18  C   UNL     1       4.907   1.126  19.744  0.00  0.00    +0.000 C 
ATOM     19  O   UNL     1       5.339   2.433  20.097  0.00  0.00    +0.000 OA
ENDBRANCH   1  19
BRANCH   4  20
ATOM     20  C   UNL     1       6.828   5.453  15.733  0.00  0.00    +0.000 C 
BRANCH  20  21
ATOM     21  C   UNL     1       6.996   4.498  14.567  0.00  0.00    +0.000 C 
ATOM     22  C   UNL     1       5.664   4.012  14.017  0.00  0.00    +0.000 C 
ATOM     23  C   UNL     1       6.002   3.541  12.614  0.00  0.00    +0.000 C 
ATOM     24  C   UNL     1       7.160   4.417  12.143  0.00  0.00    +0.000 C 
ATOM     25  C   UNL     1       7.654   5.185  13.363  0.00  0.00    +0.000 C 
ENDBRANCH  20  21
ENDBRANCH   4  20
TORSDOF 3
ENDMDL
MODEL 3
REMARK VINA RESULT:      -5.8      3.879      7.947
REMARK  Name = 
REMARK  5 active torsions:
REMARK  status: ('A' for Active; 'I' for Inactive)
REMARK    1  A    between atoms: C_1  and  O_2
REMARK    2  A    between atoms: O_2  and  C_3
REMARK    3  A    between atoms: C_6  and  C_8
REMARK    4  A    between atoms: C_8  and  C_9
REMARK    5  A    between atoms: N_18  and  C_19
REMARK                            x       y       z     vdW  Elec       q    Type
REMARK                         _______ _______ _______ _____ _____    ______ ____
ROOT
ATOM      1  C   UNL     1      -4.170  13.057  20.615  0.00  0.00    +0.000 C 
ATOM      2  C   UNL     1      -3.563  12.716  22.020  0.00  0.00    +0.000 C 
ATOM      3  N   UNL     1      -4.071  13.548  23.139  0.00  0.00    +0.000 N 
ATOM      4  C   UNL     1      -3.633  14.865  23.197  0.00  0.00    +0.000 C 
ATOM      5  O   UNL     1      -2.812  15.297  22.384  0.00  0.00    +0.000 OA
ATOM      6  C   UNL     1      -5.088  12.952  24.013  0.00  0.00    +0.000 C 
ATOM      7  C   UNL     1      -6.453  13.617  23.878  0.00  0.00    +0.000 C 
ATOM      8  C   UNL     1      -7.278  12.691  23.040  0.00  0.00    +0.000 C 
ATOM      9  O   UNL     1      -7.915  11.756  23.523  0.00  0.00    +0.000 OA
ATOM     10  N   UNL     1      -6.939  12.885  21.717  0.00  0.00    +0.000 N 
ATOM     11  C   UNL     1      -7.518  14.013  20.984  0.00  0.00    +0.000 C 
ATOM     12  C   UNL     1      -6.439  11.844  20.920  0.00  0.00    +0.000 A 
ATOM     13  C   UNL     1      -7.313  10.798  20.609  0.00  0.00    +0.000 A 
ATOM     14  C   UNL     1      -7.248  10.232  19.345  0.00  0.00    +0.000 A 
ATOM     15  C   UNL     1      -6.306  10.707  18.436  0.00  0.00    +0.000 A 
ATOM     16  C   UNL     1      -5.315  11.621  18.839  0.00  0.00    +0.000 A 
ATOM     17  C   UNL     1      -5.305  12.136  20.138  0.00  0.00    +0.000 A 
ENDROOT
BRANCH   1  19
ATOM     18  C   UNL     1      -1.854  12.521  20.213  0.00  0.00    +0.000 C 
ATOM     19  O   UNL     1      -3.090  12.951  19.661  0.00  0.00    +0.000 OA
ENDBRANCH   1  19
BRANCH   4  20
ATOM     20  C   UNL     1      -4.217  15.840  24.218  0.00  0.00    +0.000 C 
BRANCH  20  21
ATOM     21  C   UNL     1      -3.303  16.287  25.343  0.00  0.00    +0.000 C 
ATOM     22  C   UNL     1      -2.207  15.274  25.638  0.00  0.00    +0.000 C 
ATOM     23  C   UNL     1      -1.147  16.087  26.359  0.00  0.00    +0.000 C 
ATOM     24  C   UNL     1      -1.248  17.503  25.797  0.00  0.00    +0.000 C 
ATOM     25  C   UNL     1      -2.528  17.558  24.972  0.00  0.00    +0.000 C 
ENDBRANCH  20  21
ENDBRANCH   4  20
TORSDOF 3
ENDMDL
MODEL 4
REMARK VINA RESULT:      -5.6      9.380     11.898
REMARK  Name = 
REMARK  5 active torsions:
REMARK  status: ('A' for Active; 'I' for Inactive)
REMARK    1  A    between atoms: C_1  and  O_2
REMARK    2  A    between atoms: O_2  and  C_3
REMARK    3  A    between atoms: C_6  and  C_8
REMARK    4  A    between atoms: C_8  and  C_9
REMARK    5  A    between atoms: N_18  and  C_19
REMARK                            x       y       z     vdW  Elec       q    Type
REMARK                         _______ _______ _______ _____ _____    ______ ____
ROOT
ATOM      1  C   UNL     1       9.333  15.617  20.366  0.00  0.00    +0.000 C 
ATOM      2  C   UNL     1      10.080  14.851  21.512  0.00  0.00    +0.000 C 
ATOM      3  N   UNL     1       9.539  13.502  21.818  0.00  0.00    +0.000 N 
ATOM      4  C   UNL     1       8.322  13.446  22.485  0.00  0.00    +0.000 C 
ATOM      5  O   UNL     1       7.752  14.476  22.855  0.00  0.00    +0.000 OA
ATOM      6  C   UNL     1      10.267  12.347  21.281  0.00  0.00    +0.000 C 
ATOM      7  C   UNL     1       9.489  11.602  20.203  0.00  0.00    +0.000 C 
ATOM      8  C   UNL     1      10.094  12.020  18.899  0.00  0.00    +0.000 C 
ATOM      9  O   UNL     1      11.074  11.454  18.415  0.00  0.00    +0.000 OA
ATOM     10  N   UNL     1       9.582  13.255  18.559  0.00  0.00    +0.000 N 
ATOM     11  C   UNL     1       8.259  13.337  17.936  0.00  0.00    +0.000 C 
ATOM     12  C   UNL     1      10.408  14.372  18.366  0.00  0.00    +0.000 A 
ATOM     13  C   UNL     1      11.265  14.352  17.260  0.00  0.00    +0.000 A 
ATOM     14  C   UNL     1      11.478  15.532  16.564  0.00  0.00    +0.000 A 
ATOM     15  C   UNL     1      10.851  16.698  16.996  0.00  0.00    +0.000 A 
ATOM     16  C   UNL     1      10.154  16.729  18.218  0.00  0.00    +0.000 A 
ATOM     17  C   UNL     1      10.005  15.570  18.984  0.00  0.00    +0.000 A 
ENDROOT
BRANCH   1  19
ATOM     18  C   UNL     1       9.817  17.271  22.052  0.00  0.00    +0.000 C 
ATOM     19  O   UNL     1       9.262  17.002  20.773  0.00  0.00    +0.000 OA
ENDBRANCH   1  19
BRANCH   4  20
ATOM     20  C   UNL     1       7.612  12.111  22.707  0.00  0.00    +0.000 C 
BRANCH  20  21
ATOM     21  C   UNL     1       7.563  11.587  24.130  0.00  0.00    +0.000 C 
ATOM     22  C   UNL     1       8.116  12.585  25.136  0.00  0.00    +0.000 C 
ATOM     23  C   UNL     1       7.518  12.136  26.457  0.00  0.00    +0.000 C 
ATOM     24  C   UNL     1       6.166  11.514  26.117  0.00  0.00    +0.000 C 
ATOM     25  C   UNL     1       6.122  11.360  24.602  0.00  0.00    +0.000 C 
ENDBRANCH  20  21
ENDBRANCH   4  20
TORSDOF 3
ENDMDL
MODEL 5
REMARK VINA RESULT:      -5.5      2.231      3.481
REMARK  Name = 
REMARK  5 active torsions:
REMARK  status: ('A' for Active; 'I' for Inactive)
REMARK    1  A    between atoms: C_1  and  O_2
REMARK    2  A    between atoms: O_2  and  C_3
REMARK    3  A    between atoms: C_6  and  C_8
REMARK    4  A    between atoms: C_8  and  C_9
REMARK    5  A    between atoms: N_18  and  C_19
REMARK                            x       y       z     vdW  Elec       q    Type
REMARK                         _______ _______ _______ _____ _____    ______ ____
ROOT
ATOM      1  C   UNL     1      -0.751  14.001  22.427  0.00  0.00    +0.000 C 
ATOM      2  C   UNL     1      -1.139  14.442  20.973  0.00  0.00    +0.000 C 
ATOM      3  N   UNL     1      -1.973  13.467  20.226  0.00  0.00    +0.000 N 
ATOM      4  C   UNL     1      -1.345  12.312  19.777  0.00  0.00    +0.000 C 
ATOM      5  O   UNL     1      -0.136  12.141  19.946  0.00  0.00    +0.000 OA
ATOM      6  C   UNL     1      -3.411  13.743  20.134  0.00  0.00    +0.000 C 
ATOM      7  C   UNL     1      -4.259  12.745  20.915  0.00  0.00    +0.000 C 
ATOM      8  C   UNL     1      -4.662  13.447  22.174  0.00  0.00    +0.000 C 
ATOM      9  O   UNL     1      -5.661  14.164  22.238  0.00  0.00    +0.000 OA
ATOM     10  N   UNL     1      -3.605  13.396  23.058  0.00  0.00    +0.000 N 
ATOM     11  C   UNL     1      -3.384  12.180  23.844  0.00  0.00    +0.000 C 
ATOM     12  C   UNL     1      -3.008  14.558  23.568  0.00  0.00    +0.000 A 
ATOM     13  C   UNL     1      -3.775  15.346  24.433  0.00  0.00    +0.000 A 
ATOM     14  C   UNL     1      -3.148  15.952  25.511  0.00  0.00    +0.000 A 
ATOM     15  C   UNL     1      -1.778  15.774  25.687  0.00  0.00    +0.000 A 
ATOM     16  C   UNL     1      -1.002  15.142  24.699  0.00  0.00    +0.000 A 
ATOM     17  C   UNL     1      -1.601  14.604  23.557  0.00  0.00    +0.000 A 
ENDROOT
BRANCH   1  19
ATOM     18  C   UNL     1       1.169  15.183  21.571  0.00  0.00    +0.000 C 
ATOM     19  O   UNL     1       0.616  14.421  22.635  0.00  0.00    +0.000 OA
ENDBRANCH   1  19
BRANCH   4  20
ATOM     20  C   UNL     1      -2.150  11.183  19.136  0.00  0.00    +0.000 C 
BRANCH  20  21
ATOM     21  C   UNL     1      -2.327  11.235  17.630  0.00  0.00    +0.000 C 
ATOM     22  C   UNL     1      -1.970   9.918  16.957  0.00  0.00    +0.000 C 
ATOM     23  C   UNL     1      -2.684   9.990  15.620  0.00  0.00    +0.000 C 
ATOM     24  C   UNL     1      -3.939  10.827  15.857  0.00  0.00    +0.000 C 
ATOM     25  C   UNL     1      -3.794  11.453  17.239  0.00  0.00    +0.000 C 
ENDBRANCH  20  21
ENDBRANCH   4  20
TORSDOF 3
ENDMDL
MODEL 6
REMARK VINA RESULT:      -5.5      9.804     11.171
REMARK  Name = 
REMARK  5 active torsions:
REMARK  status: ('A' for Active; 'I' for Inactive)
REMARK    1  A    between atoms: C_1  and  O_2
REMARK    2  A    between atoms: O_2  and  C_3
REMARK    3  A    between atoms: C_6  and  C_8
REMARK    4  A    between atoms: C_8  and  C_9
REMARK    5  A    between atoms: N_18  and  C_19
REMARK                            x       y       z     vdW  Elec       q    Type
REMARK                         _______ _______ _______ _____ _____    ______ ____
ROOT
ATOM      1  C   UNL     1       9.700  13.375  21.156  0.00  0.00    +0.000 C 
ATOM      2  C   UNL     1      10.752  12.235  20.921  0.00  0.00    +0.000 C 
ATOM      3  N   UNL     1      10.552  11.446  19.680  0.00  0.00    +0.000 N 
ATOM      4  C   UNL     1       9.487  10.555  19.662  0.00  0.00    +0.000 C 
ATOM      5  O   UNL     1       8.780  10.391  20.660  0.00  0.00    +0.000 OA
ATOM      6  C   UNL     1      11.414  11.762  18.535  0.00  0.00    +0.000 C 
ATOM      7  C   UNL     1      10.652  12.393  17.374  0.00  0.00    +0.000 C 
ATOM      8  C   UNL     1      10.956  13.857  17.433  0.00  0.00    +0.000 C 
ATOM      9  O   UNL     1      11.948  14.347  16.892  0.00  0.00    +0.000 OA
ATOM     10  N   UNL     1      10.156  14.428  18.400  0.00  0.00    +0.000 N 
ATOM     11  C   UNL     1       8.767  14.761  18.079  0.00  0.00    +0.000 C 
ATOM     12  C   UNL     1      10.697  15.104  19.504  0.00  0.00    +0.000 A 
ATOM     13  C   UNL     1      11.364  16.308  19.256  0.00  0.00    +0.000 A 
ATOM     14  C   UNL     1      11.222  17.346  20.164  0.00  0.00    +0.000 A 
ATOM     15  C   UNL     1      10.441  17.151  21.300  0.00  0.00    +0.000 A 
ATOM     16  C   UNL     1       9.944  15.875  21.622  0.00  0.00    +0.000 A 
ATOM     17  C   UNL     1      10.153  14.791  20.765  0.00  0.00    +0.000 A 
ENDROOT
BRANCH   1  19
ATOM     18  C   UNL     1       8.126  12.876  22.912  0.00  0.00    +0.000 C 
ATOM     19  O   UNL     1       9.408  13.383  22.571  0.00  0.00    +0.000 OA
ENDBRANCH   1  19
BRANCH   4  20
ATOM     20  C   UNL     1       9.108   9.813  18.381  0.00  0.00    +0.000 C 
BRANCH  20  21
ATOM     21  C   UNL     1       8.027   8.755  18.495  0.00  0.00    +0.000 C 
ATOM     22  C   UNL     1       7.425   8.392  17.146  0.00  0.00    +0.000 C 
ATOM     23  C   UNL     1       6.802   7.028  17.383  0.00  0.00    +0.000 C 
ATOM     24  C   UNL     1       7.660   6.352  18.448  0.00  0.00    +0.000 C 
ATOM     25  C   UNL     1       8.589   7.423  19.008  0.00  0.00    +0.000 C 
ENDBRANCH  20  21
ENDBRANCH   4  20
TORSDOF 3
ENDMDL
MODEL 7
REMARK VINA RESULT:      -5.5      3.616      7.582
REMARK  Name = 
REMARK  5 active torsions:
REMARK  status: ('A' for Active; 'I' for Inactive)
REMARK    1  A    between atoms: C_1  and  O_2
REMARK    2  A    between atoms: O_2  and  C_3
REMARK    3  A    between atoms: C_6  and  C_8
REMARK    4  A    between atoms: C_8  and  C_9
REMARK    5  A    between atoms: N_18  and  C_19
REMARK                            x       y       z     vdW  Elec       q    Type
REMARK                         _______ _______ _______ _____ _____    ______ ____
ROOT
ATOM      1  C   UNL     1      -3.406  12.993  20.798  0.00  0.00    +0.000 C 
ATOM      2  C   UNL     1      -2.865  12.276  22.084  0.00  0.00    +0.000 C 
ATOM      3  N   UNL     1      -3.193  12.954  23.363  0.00  0.00    +0.000 N 
ATOM      4  C   UNL     1      -2.507  14.128  23.650  0.00  0.00    +0.000 C 
ATOM      5  O   UNL     1      -1.625  14.547  22.898  0.00  0.00    +0.000 OA
ATOM      6  C   UNL     1      -4.299  12.402  24.153  0.00  0.00    +0.000 C 
ATOM      7  C   UNL     1      -5.510  13.326  24.209  0.00  0.00    +0.000 C 
ATOM      8  C   UNL     1      -6.506  12.754  23.249  0.00  0.00    +0.000 C 
ATOM      9  O   UNL     1      -7.308  11.879  23.574  0.00  0.00    +0.000 OA
ATOM     10  N   UNL     1      -6.146  13.135  21.973  0.00  0.00    +0.000 N 
ATOM     11  C   UNL     1      -6.501  14.473  21.495  0.00  0.00    +0.000 C 
ATOM     12  C   UNL     1      -5.864  12.195  20.971  0.00  0.00    +0.000 A 
ATOM     13  C   UNL     1      -6.927  11.413  20.506  0.00  0.00    +0.000 A 
ATOM     14  C   UNL     1      -6.984  11.103  19.156  0.00  0.00    +0.000 A 
ATOM     15  C   UNL     1      -5.974  11.561  18.312  0.00  0.00    +0.000 A 
ATOM     16  C   UNL     1      -4.822  12.174  18.836  0.00  0.00    +0.000 A 
ATOM     17  C   UNL     1      -4.702  12.414  20.207  0.00  0.00    +0.000 A 
ENDROOT
BRANCH   1  19
ATOM     18  C   UNL     1      -1.294  12.026  20.153  0.00  0.00    +0.000 C 
ATOM     19  O   UNL     1      -2.375  12.874  19.793  0.00  0.00    +0.000 OA
ENDBRANCH   1  19
BRANCH   4  20
ATOM     20  C   UNL     1      -2.883  14.977  24.864  0.00  0.00    +0.000 C 
BRANCH  20  21
ATOM     21  C   UNL     1      -3.141  16.451  24.617  0.00  0.00    +0.000 C 
ATOM     22  C   UNL     1      -4.570  16.855  24.949  0.00  0.00    +0.000 C 
ATOM     23  C   UNL     1      -4.484  18.357  25.148  0.00  0.00    +0.000 C 
ATOM     24  C   UNL     1      -3.083  18.631  25.690  0.00  0.00    +0.000 C 
ATOM     25  C   UNL     1      -2.293  17.337  25.537  0.00  0.00    +0.000 C 
ENDBRANCH  20  21
ENDBRANCH   4  20
TORSDOF 3
ENDMDL
MODEL 8
REMARK VINA RESULT:      -5.5      7.813      9.754
REMARK  Name = 
REMARK  5 active torsions:
REMARK  status: ('A' for Active; 'I' for Inactive)
REMARK    1  A    between atoms: C_1  and  O_2
REMARK    2  A    between atoms: O_2  and  C_3
REMARK    3  A    between atoms: C_6  and  C_8
REMARK    4  A    between atoms: C_8  and  C_9
REMARK    5  A    between atoms: N_18  and  C_19
REMARK                            x       y       z     vdW  Elec       q    Type
REMARK                         _______ _______ _______ _____ _____    ______ ____
ROOT
ATOM      1  C   UNL     1       5.821  14.385  21.552  0.00  0.00    +0.000 C 
ATOM      2  C   UNL     1       6.877  15.266  22.306  0.00  0.00    +0.000 C 
ATOM      3  N   UNL     1       8.238  15.257  21.714  0.00  0.00    +0.000 N 
ATOM      4  C   UNL     1       8.990  14.100  21.877  0.00  0.00    +0.000 C 
ATOM      5  O   UNL     1       8.560  13.152  22.538  0.00  0.00    +0.000 OA
ATOM      6  C   UNL     1       8.625  16.414  20.898  0.00  0.00    +0.000 C 
ATOM      7  C   UNL     1       8.783  16.074  19.420  0.00  0.00    +0.000 C 
ATOM      8  C   UNL     1       7.547  16.583  18.748  0.00  0.00    +0.000 C 
ATOM      9  O   UNL     1       7.444  17.743  18.348  0.00  0.00    +0.000 OA
ATOM     10  N   UNL     1       6.534  15.670  18.954  0.00  0.00    +0.000 N 
ATOM     11  C   UNL     1       6.462  14.475  18.111  0.00  0.00    +0.000 C 
ATOM     12  C   UNL     1       5.341  16.021  19.603  0.00  0.00    +0.000 A 
ATOM     13  C   UNL     1       4.489  16.913  18.941  0.00  0.00    +0.000 A 
ATOM     14  C   UNL     1       3.120  16.718  19.037  0.00  0.00    +0.000 A 
ATOM     15  C   UNL     1       2.637  15.659  19.802  0.00  0.00    +0.000 A 
ATOM     16  C   UNL     1       3.504  14.902  20.610  0.00  0.00    +0.000 A 
ATOM     17  C   UNL     1       4.880  15.140  20.600  0.00  0.00    +0.000 A 
ENDROOT
BRANCH   1  19
ATOM     18  C   UNL     1       5.338  14.120  23.899  0.00  0.00    +0.000 C 
ATOM     19  O   UNL     1       5.006  13.757  22.567  0.00  0.00    +0.000 OA
ENDBRANCH   1  19
BRANCH   4  20
ATOM     20  C   UNL     1      10.337  13.937  21.174  0.00  0.00    +0.000 C 
BRANCH  20  21
ATOM     21  C   UNL     1      10.581  12.624  20.455  0.00  0.00    +0.000 C 
ATOM     22  C   UNL     1       9.625  12.412  19.291  0.00  0.00    +0.000 C 
ATOM     23  C   UNL     1      10.332  11.386  18.424  0.00  0.00    +0.000 C 
ATOM     24  C   UNL     1      11.827  11.626  18.622  0.00  0.00    +0.000 C 
ATOM     25  C   UNL     1      11.965  12.588  19.795  0.00  0.00    +0.000 C 
ENDBRANCH  20  21
ENDBRANCH   4  20
TORSDOF 3
ENDMDL
MODEL 9
REMARK VINA RESULT:      -5.4      2.918      5.079
REMARK  Name = 
REMARK  5 active torsions:
REMARK  status: ('A' for Active; 'I' for Inactive)
REMARK    1  A    between atoms: C_1  and  O_2
REMARK    2  A    between atoms: O_2  and  C_3
REMARK    3  A    between atoms: C_6  and  C_8
REMARK    4  A    between atoms: C_8  and  C_9
REMARK    5  A    between atoms: N_18  and  C_19
REMARK                            x       y       z     vdW  Elec       q    Type
REMARK                         _______ _______ _______ _____ _____    ______ ____
ROOT
ATOM      1  C   UNL     1      -1.925  11.729  19.208  0.00  0.00    +0.000 C 
ATOM      2  C   UNL     1      -1.874  10.162  19.208  0.00  0.00    +0.000 C 
ATOM      3  N   UNL     1      -0.531   9.580  19.452  0.00  0.00    +0.000 N 
ATOM      4  C   UNL     1       0.396   9.674  18.422  0.00  0.00    +0.000 C 
ATOM      5  O   UNL     1       0.088  10.169  17.335  0.00  0.00    +0.000 OA
ATOM      6  C   UNL     1      -0.253   9.069  20.800  0.00  0.00    +0.000 C 
ATOM      7  C   UNL     1       0.785   9.898  21.548  0.00  0.00    +0.000 C 
ATOM      8  C   UNL     1       0.015  10.742  22.515  0.00  0.00    +0.000 C 
ATOM      9  O   UNL     1      -0.298  10.342  23.635  0.00  0.00    +0.000 OA
ATOM     10  N   UNL     1      -0.502  11.822  21.831  0.00  0.00    +0.000 N 
ATOM     11  C   UNL     1       0.355  12.976  21.554  0.00  0.00    +0.000 C 
ATOM     12  C   UNL     1      -1.882  12.071  21.776  0.00  0.00    +0.000 A 
ATOM     13  C   UNL     1      -2.516  12.441  22.967  0.00  0.00    +0.000 A 
ATOM     14  C   UNL     1      -3.522  13.393  22.916  0.00  0.00    +0.000 A 
ATOM     15  C   UNL     1      -3.882  13.935  21.685  0.00  0.00    +0.000 A 
ATOM     16  C   UNL     1      -3.367  13.405  20.488  0.00  0.00    +0.000 A 
ATOM     17  C   UNL     1      -2.418  12.380  20.511  0.00  0.00    +0.000 A 
ENDROOT
BRANCH   1  19
ATOM     18  C   UNL     1      -3.375  11.028  17.415  0.00  0.00    +0.000 C 
ATOM     19  O   UNL     1      -2.835  12.114  18.154  0.00  0.00    +0.000 OA
ENDBRANCH   1  19
BRANCH   4  20
ATOM     20  C   UNL     1       1.847   9.245  18.632  0.00  0.00    +0.000 C 
BRANCH  20  21
ATOM     21  C   UNL     1       2.194   7.807  18.292  0.00  0.00    +0.000 C 
ATOM     22  C   UNL     1       3.512   7.689  17.542  0.00  0.00    +0.000 C 
ATOM     23  C   UNL     1       3.925   6.246  17.762  0.00  0.00    +0.000 C 
ATOM     24  C   UNL     1       3.371   5.852  19.129  0.00  0.00    +0.000 C 
ATOM     25  C   UNL     1       2.421   6.966  19.554  0.00  0.00    +0.000 C 
ENDBRANCH  20  21
ENDBRANCH   4  20
TORSDOF 3
ENDMDL
