MODEL 1
REMARK VINA RESULT:      -7.5      0.000      0.000
REMARK  Name = 
REMARK  4 active torsions:
REMARK  status: ('A' for Active; 'I' for Inactive)
REMARK    1  A    between atoms: C_4  and  C_5
REMARK    2  A    between atoms: C_5  and  N_6
REMARK    3  A    between atoms: C_10  and  C_11
REMARK    4  A    between atoms: C_11  and  N_12
REMARK                            x       y       z     vdW  Elec       q    Type
REMARK                         _______ _______ _______ _____ _____    ______ ____
ROOT
ATOM      1  N   UNL     1       6.316   5.104  16.928  0.00  0.00    +0.000 N 
ATOM      2  N   UNL     1       7.580   4.626  16.954  0.00  0.00    +0.000 NA
ATOM      3  N   UNL     1       7.884   4.484  18.234  0.00  0.00    +0.000 NA
ATOM      4  N   UNL     1       6.835   4.858  19.032  0.00  0.00    +0.000 NA
ATOM      5  C   UNL     1       5.853   5.218  18.229  0.00  0.00    +0.000 A 
ENDROOT
BRANCH   1   6
ATOM      6  C   UNL     1       5.786   5.610  15.677  0.00  0.00    +0.000 C 
BRANCH   6  10
ATOM      7  C   UNL     1       6.997   3.825  11.916  0.00  0.00    +0.000 A 
ATOM      8  C   UNL     1       5.887   3.346  12.605  0.00  0.00    +0.000 A 
ATOM      9  C   UNL     1       5.536   3.899  13.841  0.00  0.00    +0.000 A 
ATOM     10  C   UNL     1       6.290   4.937  14.415  0.00  0.00    +0.000 A 
ATOM     11  C   UNL     1       7.405   5.412  13.701  0.00  0.00    +0.000 A 
ATOM     12  C   UNL     1       7.755   4.857  12.462  0.00  0.00    +0.000 A 
ENDBRANCH   6  10
ENDBRANCH   1   6
BRANCH   5  13
ATOM     13  C   UNL     1       4.421   5.341  18.633  0.00  0.00    +0.000 C 
BRANCH  13  14
ATOM     14  N   UNL     1       3.720   4.237  19.319  0.00  0.00    +0.000 NA
ATOM     15  C   UNL     1       3.894   2.839  18.872  0.00  0.00    +0.000 C 
ATOM     16  C   UNL     1       2.919   2.208  17.828  0.00  0.00    +0.000 C 
ATOM     17  O   UNL     1       1.604   2.760  17.796  0.00  0.00    +0.000 OA
ATOM     18  C   UNL     1       1.650   4.179  17.906  0.00  0.00    +0.000 C 
ATOM     19  C   UNL     1       2.255   4.533  19.270  0.00  0.00    +0.000 C 
ENDBRANCH  13  14
ENDBRANCH   5  13
TORSDOF 4
ENDMDL
MODEL 2
REMARK VINA RESULT:      -7.5      1.033      1.335
REMARK  Name = 
REMARK  4 active torsions:
REMARK  status: ('A' for Active; 'I' for Inactive)
REMARK    1  A    between atoms: C_4  and  C_5
REMARK    2  A    between atoms: C_5  and  N_6
REMARK    3  A    between atoms: C_10  and  C_11
REMARK    4  A    between atoms: C_11  and  N_12
REMARK                            x       y       z     vdW  Elec       q    Type
REMARK                         _______ _______ _______ _____ _____    ______ ____
ROOT
ATOM      1  N   UNL     1       6.187   4.775  16.846  0.00  0.00    +0.000 N 
ATOM      2  N   UNL     1       7.536   4.692  16.873  0.00  0.00    +0.000 NA
ATOM      3  N   UNL     1       7.862   4.551  18.147  0.00  0.00    +0.000 NA
ATOM      4  N   UNL     1       6.746   4.537  18.941  0.00  0.00    +0.000 NA
ATOM      5  C   UNL     1       5.705   4.649  18.139  0.00  0.00    +0.000 A 
ENDROOT
BRANCH   1   6
ATOM      6  C   UNL     1       5.537   5.192  15.620  0.00  0.00    +0.000 C 
BRANCH   6  10
ATOM      7  C   UNL     1       7.048   3.865  11.779  0.00  0.00    +0.000 A 
ATOM      8  C   UNL     1       5.912   3.284  12.335  0.00  0.00    +0.000 A 
ATOM      9  C   UNL     1       5.463   3.688  13.597  0.00  0.00    +0.000 A 
ATOM     10  C   UNL     1       6.143   4.676  14.330  0.00  0.00    +0.000 A 
ATOM     11  C   UNL     1       7.286   5.256  13.749  0.00  0.00    +0.000 A 
ATOM     12  C   UNL     1       7.734   4.849  12.484  0.00  0.00    +0.000 A 
ENDBRANCH   6  10
ENDBRANCH   1   6
BRANCH   5  13
ATOM     13  C   UNL     1       4.299   4.311  18.512  0.00  0.00    +0.000 C 
BRANCH  13  14
ATOM     14  N   UNL     1       3.836   2.911  18.571  0.00  0.00    +0.000 NA
ATOM     15  C   UNL     1       2.554   2.513  17.953  0.00  0.00    +0.000 C 
ATOM     16  C   UNL     1       1.233   2.511  18.786  0.00  0.00    +0.000 C 
ATOM     17  O   UNL     1       1.388   2.311  20.191  0.00  0.00    +0.000 OA
ATOM     18  C   UNL     1       2.498   3.051  20.686  0.00  0.00    +0.000 C 
ATOM     19  C   UNL     1       3.768   2.518  20.011  0.00  0.00    +0.000 C 
ENDBRANCH  13  14
ENDBRANCH   5  13
TORSDOF 4
ENDMDL
MODEL 3
REMARK VINA RESULT:      -7.3      3.000      6.454
REMARK  Name = 
REMARK  4 active torsions:
REMARK  status: ('A' for Active; 'I' for Inactive)
REMARK    1  A    between atoms: C_4  and  C_5
REMARK    2  A    between atoms: C_5  and  N_6
REMARK    3  A    between atoms: C_10  and  C_11
REMARK    4  A    between atoms: C_11  and  N_12
REMARK                            x       y       z     vdW  Elec       q    Type
REMARK                         _______ _______ _______ _____ _____    ______ ____
ROOT
ATOM      1  N   UNL     1       2.540   4.342  18.983  0.00  0.00    +0.000 N 
ATOM      2  N   UNL     1       1.316   3.872  19.312  0.00  0.00    +0.000 NA
ATOM      3  N   UNL     1       0.945   3.098  18.305  0.00  0.00    +0.000 NA
ATOM      4  N   UNL     1       1.911   3.058  17.335  0.00  0.00    +0.000 NA
ATOM      5  C   UNL     1       2.912   3.805  17.761  0.00  0.00    +0.000 A 
ENDROOT
BRANCH   1   6
ATOM      6  C   UNL     1       3.107   5.423  19.764  0.00  0.00    +0.000 C 
BRANCH   6  10
ATOM      7  C   UNL     1       1.415   9.273  18.712  0.00  0.00    +0.000 A 
ATOM      8  C   UNL     1       2.146   8.540  17.782  0.00  0.00    +0.000 A 
ATOM      9  C   UNL     1       2.727   7.322  18.148  0.00  0.00    +0.000 A 
ATOM     10  C   UNL     1       2.594   6.815  19.453  0.00  0.00    +0.000 A 
ATOM     11  C   UNL     1       1.847   7.568  20.377  0.00  0.00    +0.000 A 
ATOM     12  C   UNL     1       1.265   8.789  20.008  0.00  0.00    +0.000 A 
ENDBRANCH   6  10
ENDBRANCH   1   6
BRANCH   5  13
ATOM     13  C   UNL     1       4.303   3.757  17.220  0.00  0.00    +0.000 C 
BRANCH  13  14
ATOM     14  N   UNL     1       4.884   4.905  16.496  0.00  0.00    +0.000 NA
ATOM     15  C   UNL     1       5.367   4.754  15.107  0.00  0.00    +0.000 C 
ATOM     16  C   UNL     1       6.858   4.393  14.816  0.00  0.00    +0.000 C 
ATOM     17  O   UNL     1       7.799   4.796  15.809  0.00  0.00    +0.000 OA
ATOM     18  C   UNL     1       7.288   4.553  17.116  0.00  0.00    +0.000 C 
ATOM     19  C   UNL     1       6.033   5.414  17.306  0.00  0.00    +0.000 C 
ENDBRANCH  13  14
ENDBRANCH   5  13
TORSDOF 4
ENDMDL
MODEL 4
REMARK VINA RESULT:      -7.3      3.002      6.476
REMARK  Name = 
REMARK  4 active torsions:
REMARK  status: ('A' for Active; 'I' for Inactive)
REMARK    1  A    between atoms: C_4  and  C_5
REMARK    2  A    between atoms: C_5  and  N_6
REMARK    3  A    between atoms: C_10  and  C_11
REMARK    4  A    between atoms: C_11  and  N_12
REMARK                            x       y       z     vdW  Elec       q    Type
REMARK                         _______ _______ _______ _____ _____    ______ ____
ROOT
ATOM      1  N   UNL     1       2.417   4.228  19.145  0.00  0.00    +0.000 N 
ATOM      2  N   UNL     1       1.208   3.662  19.358  0.00  0.00    +0.000 NA
ATOM      3  N   UNL     1       1.013   2.839  18.341  0.00  0.00    +0.000 NA
ATOM      4  N   UNL     1       2.078   2.860  17.480  0.00  0.00    +0.000 NA
ATOM      5  C   UNL     1       2.961   3.699  17.985  0.00  0.00    +0.000 A 
ENDROOT
BRANCH   1   6
ATOM      6  C   UNL     1       2.805   5.370  19.948  0.00  0.00    +0.000 C 
BRANCH   6  10
ATOM      7  C   UNL     1       1.498   9.349  18.828  0.00  0.00    +0.000 A 
ATOM      8  C   UNL     1       1.318   8.881  20.125  0.00  0.00    +0.000 A 
ATOM      9  C   UNL     1       1.700   7.578  20.461  0.00  0.00    +0.000 A 
ATOM     10  C   UNL     1       2.265   6.716  19.506  0.00  0.00    +0.000 A 
ATOM     11  C   UNL     1       2.444   7.208  18.200  0.00  0.00    +0.000 A 
ATOM     12  C   UNL     1       2.060   8.514  17.865  0.00  0.00    +0.000 A 
ENDBRANCH   6  10
ENDBRANCH   1   6
BRANCH   5  13
ATOM     13  C   UNL     1       4.401   3.759  17.596  0.00  0.00    +0.000 C 
BRANCH  13  14
ATOM     14  N   UNL     1       4.929   4.868  16.777  0.00  0.00    +0.000 NA
ATOM     15  C   UNL     1       5.316   4.648  15.368  0.00  0.00    +0.000 C 
ATOM     16  C   UNL     1       6.784   4.271  14.993  0.00  0.00    +0.000 C 
ATOM     17  O   UNL     1       7.790   4.723  15.899  0.00  0.00    +0.000 OA
ATOM     18  C   UNL     1       7.370   4.546  17.248  0.00  0.00    +0.000 C 
ATOM     19  C   UNL     1       6.129   5.416  17.480  0.00  0.00    +0.000 C 
ENDBRANCH  13  14
ENDBRANCH   5  13
TORSDOF 4
ENDMDL
MODEL 5
REMARK VINA RESULT:      -7.3      1.157      1.565
REMARK  Name = 
REMARK  4 active torsions:
REMARK  status: ('A' for Active; 'I' for Inactive)
REMARK    1  A    between atoms: C_4  and  C_5
REMARK    2  A    between atoms: C_5  and  N_6
REMARK    3  A    between atoms: C_10  and  C_11
REMARK    4  A    between atoms: C_11  and  N_12
REMARK                            x       y       z     vdW  Elec       q    Type
REMARK                         _______ _______ _______ _____ _____    ______ ____
ROOT
ATOM      1  N   UNL     1       6.395   5.009  16.906  0.00  0.00    +0.000 N 
ATOM      2  N   UNL     1       7.682   4.951  17.316  0.00  0.00    +0.000 NA
ATOM      3  N   UNL     1       7.643   4.523  18.567  0.00  0.00    +0.000 NA
ATOM      4  N   UNL     1       6.352   4.298  18.968  0.00  0.00    +0.000 NA
ATOM      5  C   UNL     1       5.578   4.572  17.936  0.00  0.00    +0.000 A 
ENDROOT
BRANCH   1   6
ATOM      6  C   UNL     1       6.088   5.688  15.664  0.00  0.00    +0.000 C 
BRANCH   6  10
ATOM      7  C   UNL     1       6.720   3.661  11.884  0.00  0.00    +0.000 A 
ATOM      8  C   UNL     1       5.644   3.325  12.699  0.00  0.00    +0.000 A 
ATOM      9  C   UNL     1       5.478   3.953  13.938  0.00  0.00    +0.000 A 
ATOM     10  C   UNL     1       6.389   4.924  14.389  0.00  0.00    +0.000 A 
ATOM     11  C   UNL     1       7.468   5.254  13.550  0.00  0.00    +0.000 A 
ATOM     12  C   UNL     1       7.632   4.624  12.308  0.00  0.00    +0.000 A 
ENDBRANCH   6  10
ENDBRANCH   1   6
BRANCH   5  13
ATOM     13  C   UNL     1       4.161   4.126  17.790  0.00  0.00    +0.000 C 
BRANCH  13  14
ATOM     14  N   UNL     1       3.036   5.052  18.029  0.00  0.00    +0.000 NA
ATOM     15  C   UNL     1       2.932   5.802  19.298  0.00  0.00    +0.000 C 
ATOM     16  C   UNL     1       2.122   5.224  20.502  0.00  0.00    +0.000 C 
ATOM     17  O   UNL     1       1.059   4.334  20.163  0.00  0.00    +0.000 OA
ATOM     18  C   UNL     1       1.459   3.442  19.128  0.00  0.00    +0.000 C 
ATOM     19  C   UNL     1       1.769   4.272  17.876  0.00  0.00    +0.000 C 
ENDBRANCH  13  14
ENDBRANCH   5  13
TORSDOF 4
ENDMDL
MODEL 6
REMARK VINA RESULT:      -7.2      0.445      1.191
REMARK  Name = 
REMARK  4 active torsions:
REMARK  status: ('A' for Active; 'I' for Inactive)
REMARK    1  A    between atoms: C_4  and  C_5
REMARK    2  A    between atoms: C_5  and  N_6
REMARK    3  A    between atoms: C_10  and  C_11
REMARK    4  A    between atoms: C_11  and  N_12
REMARK                            x       y       z     vdW  Elec       q    Type
REMARK                         _______ _______ _______ _____ _____    ______ ____
ROOT
ATOM      1  N   UNL     1       6.526   5.008  16.779  0.00  0.00    +0.000 N 
ATOM      2  N   UNL     1       7.738   4.436  16.600  0.00  0.00    +0.000 NA
ATOM      3  N   UNL     1       8.217   4.221  17.814  0.00  0.00    +0.000 NA
ATOM      4  N   UNL     1       7.332   4.641  18.772  0.00  0.00    +0.000 NA
ATOM      5  C   UNL     1       6.273   5.105  18.138  0.00  0.00    +0.000 A 
ENDROOT
BRANCH   1   6
ATOM      6  C   UNL     1       5.858   5.601  15.638  0.00  0.00    +0.000 C 
BRANCH   6  10
ATOM      7  C   UNL     1       7.000   3.717  11.904  0.00  0.00    +0.000 A 
ATOM      8  C   UNL     1       7.739   4.777  12.420  0.00  0.00    +0.000 A 
ATOM      9  C   UNL     1       7.333   5.407  13.601  0.00  0.00    +0.000 A 
ATOM     10  C   UNL     1       6.176   4.994  14.285  0.00  0.00    +0.000 A 
ATOM     11  C   UNL     1       5.445   3.918  13.751  0.00  0.00    +0.000 A 
ATOM     12  C   UNL     1       5.854   3.288  12.567  0.00  0.00    +0.000 A 
ENDBRANCH   6  10
ENDBRANCH   1   6
BRANCH   5  13
ATOM     13  C   UNL     1       4.932   5.318  18.758  0.00  0.00    +0.000 C 
BRANCH  13  14
ATOM     14  N   UNL     1       4.122   4.183  19.244  0.00  0.00    +0.000 NA
ATOM     15  C   UNL     1       4.005   2.944  18.448  0.00  0.00    +0.000 C 
ATOM     16  C   UNL     1       2.834   2.758  17.430  0.00  0.00    +0.000 C 
ATOM     17  O   UNL     1       1.639   3.480  17.722  0.00  0.00    +0.000 OA
ATOM     18  C   UNL     1       1.942   4.797  18.170  0.00  0.00    +0.000 C 
ATOM     19  C   UNL     1       2.734   4.687  19.478  0.00  0.00    +0.000 C 
ENDBRANCH  13  14
ENDBRANCH   5  13
TORSDOF 4
ENDMDL
MODEL 7
REMARK VINA RESULT:      -7.2      0.747      1.735
REMARK  Name = 
REMARK  4 active torsions:
REMARK  status: ('A' for Active; 'I' for Inactive)
REMARK    1  A    between atoms: C_4  and  C_5
REMARK    2  A    between atoms: C_5  and  N_6
REMARK    3  A    between atoms: C_10  and  C_11
REMARK    4  A    between atoms: C_11  and  N_12
REMARK                            x       y       z     vdW  Elec       q    Type
REMARK                         _______ _______ _______ _____ _____    ______ ____
ROOT
ATOM      1  N   UNL     1       6.304   5.128  16.886  0.00  0.00    +0.000 N 
ATOM      2  N   UNL     1       7.598   4.745  16.958  0.00  0.00    +0.000 NA
ATOM      3  N   UNL     1       7.804   4.410  18.221  0.00  0.00    +0.000 NA
ATOM      4  N   UNL     1       6.662   4.567  18.962  0.00  0.00    +0.000 NA
ATOM      5  C   UNL     1       5.724   4.986  18.136  0.00  0.00    +0.000 A 
ENDROOT
BRANCH   1   6
ATOM      6  C   UNL     1       5.840   5.799  15.688  0.00  0.00    +0.000 C 
BRANCH   6  10
ATOM      7  C   UNL     1       6.826   3.610  12.078  0.00  0.00    +0.000 A 
ATOM      8  C   UNL     1       7.648   4.636  12.534  0.00  0.00    +0.000 A 
ATOM      9  C   UNL     1       7.293   5.366  13.673  0.00  0.00    +0.000 A 
ATOM     10  C   UNL     1       6.108   5.089  14.375  0.00  0.00    +0.000 A 
ATOM     11  C   UNL     1       5.293   4.044  13.903  0.00  0.00    +0.000 A 
ATOM     12  C   UNL     1       5.650   3.314  12.761  0.00  0.00    +0.000 A 
ENDBRANCH   6  10
ENDBRANCH   1   6
BRANCH   5  13
ATOM     13  C   UNL     1       4.258   4.935  18.413  0.00  0.00    +0.000 C 
BRANCH  13  14
ATOM     14  N   UNL     1       3.348   4.124  17.580  0.00  0.00    +0.000 NA
ATOM     15  C   UNL     1       1.886   4.175  17.790  0.00  0.00    +0.000 C 
ATOM     16  C   UNL     1       1.182   3.163  18.748  0.00  0.00    +0.000 C 
ATOM     17  O   UNL     1       1.836   1.905  18.910  0.00  0.00    +0.000 OA
ATOM     18  C   UNL     1       3.244   2.080  19.029  0.00  0.00    +0.000 C 
ATOM     19  C   UNL     1       3.761   2.694  17.722  0.00  0.00    +0.000 C 
ENDBRANCH  13  14
ENDBRANCH   5  13
TORSDOF 4
ENDMDL
MODEL 8
REMARK VINA RESULT:      -7.1      0.998      1.646
REMARK  Name = 
REMARK  4 active torsions:
REMARK  status: ('A' for Active; 'I' for Inactive)
REMARK    1  A    between atoms: C_4  and  C_5
REMARK    2  A    between atoms: C_5  and  N_6
REMARK    3  A    between atoms: C_10  and  C_11
REMARK    4  A    between atoms: C_11  and  N_12
REMARK                            x       y       z     vdW  Elec       q    Type
REMARK                         _______ _______ _______ _____ _____    ______ ____
ROOT
ATOM      1  N   UNL     1       6.248   4.992  16.796  0.00  0.00    +0.000 N 
ATOM      2  N   UNL     1       7.582   4.909  16.999  0.00  0.00    +0.000 NA
ATOM      3  N   UNL     1       7.731   4.495  18.246  0.00  0.00    +0.000 NA
ATOM      4  N   UNL     1       6.515   4.305  18.848  0.00  0.00    +0.000 NA
ATOM      5  C   UNL     1       5.594   4.586  17.948  0.00  0.00    +0.000 A 
ENDROOT
BRANCH   1   6
ATOM      6  C   UNL     1       5.763   5.665  15.608  0.00  0.00    +0.000 C 
BRANCH   6  10
ATOM      7  C   UNL     1       6.896   3.607  11.965  0.00  0.00    +0.000 A 
ATOM      8  C   UNL     1       7.693   4.621  12.485  0.00  0.00    +0.000 A 
ATOM      9  C   UNL     1       7.292   5.310  13.635  0.00  0.00    +0.000 A 
ATOM     10  C   UNL     1       6.083   5.002  14.283  0.00  0.00    +0.000 A 
ATOM     11  C   UNL     1       5.293   3.970  13.745  0.00  0.00    +0.000 A 
ATOM     12  C   UNL     1       5.697   3.281  12.593  0.00  0.00    +0.000 A 
ENDBRANCH   6  10
ENDBRANCH   1   6
BRANCH   5  13
ATOM     13  C   UNL     1       4.162   4.172  18.033  0.00  0.00    +0.000 C 
BRANCH  13  14
ATOM     14  N   UNL     1       3.774   2.864  18.598  0.00  0.00    +0.000 NA
ATOM     15  C   UNL     1       2.611   2.125  18.063  0.00  0.00    +0.000 C 
ATOM     16  C   UNL     1       1.192   2.310  18.688  0.00  0.00    +0.000 C 
ATOM     17  O   UNL     1       1.166   2.690  20.063  0.00  0.00    +0.000 OA
ATOM     18  C   UNL     1       2.156   3.677  20.332  0.00  0.00    +0.000 C 
ATOM     19  C   UNL     1       3.532   3.059  20.061  0.00  0.00    +0.000 C 
ENDBRANCH  13  14
ENDBRANCH   5  13
TORSDOF 4
ENDMDL
MODEL 9
REMARK VINA RESULT:      -7.1      2.934      6.512
REMARK  Name = 
REMARK  4 active torsions:
REMARK  status: ('A' for Active; 'I' for Inactive)
REMARK    1  A    between atoms: C_4  and  C_5
REMARK    2  A    between atoms: C_5  and  N_6
REMARK    3  A    between atoms: C_10  and  C_11
REMARK    4  A    between atoms: C_11  and  N_12
REMARK                            x       y       z     vdW  Elec       q    Type
REMARK                         _______ _______ _______ _____ _____    ______ ____
ROOT
ATOM      1  N   UNL     1       2.554   7.222  18.750  0.00  0.00    +0.000 N 
ATOM      2  N   UNL     1       1.657   8.213  18.548  0.00  0.00    +0.000 NA
ATOM      3  N   UNL     1       2.124   8.919  17.531  0.00  0.00    +0.000 NA
ATOM      4  N   UNL     1       3.303   8.395  17.071  0.00  0.00    +0.000 NA
ATOM      5  C   UNL     1       3.561   7.330  17.805  0.00  0.00    +0.000 A 
ENDROOT
BRANCH   1   6
ATOM      6  C   UNL     1       2.460   6.432  19.961  0.00  0.00    +0.000 C 
BRANCH   6  10
ATOM      7  C   UNL     1       1.056   2.363  19.440  0.00  0.00    +0.000 A 
ATOM      8  C   UNL     1       1.270   3.187  18.340  0.00  0.00    +0.000 A 
ATOM      9  C   UNL     1       1.677   4.513  18.524  0.00  0.00    +0.000 A 
ATOM     10  C   UNL     1       1.872   5.042  19.811  0.00  0.00    +0.000 A 
ATOM     11  C   UNL     1       1.656   4.193  20.911  0.00  0.00    +0.000 A 
ATOM     12  C   UNL     1       1.248   2.864  20.724  0.00  0.00    +0.000 A 
ENDBRANCH   6  10
ENDBRANCH   1   6
BRANCH   5  13
ATOM     13  C   UNL     1       4.523   6.250  17.434  0.00  0.00    +0.000 C 
BRANCH  13  14
ATOM     14  N   UNL     1       5.585   6.478  16.434  0.00  0.00    +0.000 NA
ATOM     15  C   UNL     1       5.763   5.550  15.298  0.00  0.00    +0.000 C 
ATOM     16  C   UNL     1       6.746   4.341  15.402  0.00  0.00    +0.000 C 
ATOM     17  O   UNL     1       7.837   4.505  16.307  0.00  0.00    +0.000 OA
ATOM     18  C   UNL     1       7.403   5.129  17.511  0.00  0.00    +0.000 C 
ATOM     19  C   UNL     1       6.889   6.531  17.164  0.00  0.00    +0.000 C 
ENDBRANCH  13  14
ENDBRANCH   5  13
TORSDOF 4
ENDMDL
