MODEL 1
REMARK VINA RESULT:      -6.3      0.000      0.000
REMARK  Name = 
REMARK  14 active torsions:
REMARK  status: ('A' for Active; 'I' for Inactive)
REMARK    1  A    between atoms: C_1  and  O_2
REMARK    2  A    between atoms: O_2  and  C_3
REMARK    3  A    between atoms: C_5  and  C_6
REMARK    4  A    between atoms: C_8  and  C_9
REMARK    5  A    between atoms: C_10  and  C_11
REMARK    6  A    between atoms: C_13  and  C_14
REMARK    7  A    between atoms: C_15  and  N_16
REMARK    8  A    between atoms: N_16  and  C_17
REMARK    9  A    between atoms: C_17  and  C_18
REMARK   10  A    between atoms: C_18  and  C_19
REMARK   11  A    between atoms: C_18  and  C_20
REMARK   12  A    between atoms: C_18  and  C_21
REMARK   13  A    between atoms: C_22  and  O_23
REMARK   14  A    between atoms: O_23  and  C_24
REMARK                            x       y       z     vdW  Elec       q    Type
REMARK                         _______ _______ _______ _____ _____    ______ ____
ROOT
ATOM      1  C   UNL     1       3.338   5.948  18.713  0.00  0.00    +0.000 A 
ATOM      2  N   UNL     1       2.827   5.003  17.913  0.00  0.00    +0.000 NA
ATOM      3  C   UNL     1       3.692   4.185  17.270  0.00  0.00    +0.000 A 
ATOM      4  C   UNL     1       3.030   3.110  16.453  0.00  0.00    +0.000 C 
ATOM      5  C   UNL     1       5.085   4.310  17.341  0.00  0.00    +0.000 A 
ATOM      6  C   UNL     1       5.488   5.357  18.176  0.00  0.00    +0.000 A 
ATOM      7  N   UNL     1       4.651   6.152  18.872  0.00  0.00    +0.000 NA
ENDROOT
BRANCH   1  15
ATOM      8  C   UNL     1       1.831   6.379  20.689  0.00  0.00    +0.000 A 
ATOM      9  C   UNL     1       0.972   7.211  21.423  0.00  0.00    +0.000 A 
ATOM     10  C   UNL     1       0.656   8.492  20.971  0.00  0.00    +0.000 A 
ATOM     11  C   UNL     1      -0.227   9.396  21.779  0.00  0.00    +0.000 C 
ATOM     12  C   UNL     1       1.202   8.939  19.772  0.00  0.00    +0.000 A 
ATOM     13  C   UNL     1       2.061   8.125  19.010  0.00  0.00    +0.000 A 
ATOM     14  C   UNL     1       2.601   8.714  17.728  0.00  0.00    +0.000 C 
ATOM     15  C   UNL     1       2.406   6.820  19.467  0.00  0.00    +0.000 A 
BRANCH   8  17
ATOM     16  C   UNL     1       1.354   4.057  20.925  0.00  0.00    +0.000 C 
ATOM     17  O   UNL     1       2.223   5.154  21.181  0.00  0.00    +0.000 OA
ENDBRANCH   8  17
ENDBRANCH   1  15
BRANCH   5  18
ATOM     18  N   UNL     1       5.897   3.495  16.544  0.00  0.00    +0.000 N 
ATOM     19  H   UNL     1       6.160   2.647  17.039  0.00  0.00    +0.000 HD
BRANCH  18  20
ATOM     20  C   UNL     1       6.976   4.022  15.712  0.00  0.00    +0.000 C 
BRANCH  20  21
ATOM     21  C   UNL     1       6.422   4.696  14.429  0.00  0.00    +0.000 C 
ATOM     22  C   UNL     1       7.590   5.120  13.521  0.00  0.00    +0.000 C 
ATOM     23  C   UNL     1       5.563   3.665  13.670  0.00  0.00    +0.000 C 
ATOM     24  C   UNL     1       5.548   5.917  14.752  0.00  0.00    +0.000 C 
ENDBRANCH  20  21
ENDBRANCH  18  20
ENDBRANCH   5  18
BRANCH   6  25
ATOM     25  O   UNL     1       6.842   5.565  18.373  0.00  0.00    +0.000 OA
ATOM     26  C   UNL     1       7.305   6.839  17.938  0.00  0.00    +0.000 C 
ENDBRANCH   6  25
TORSDOF 6
ENDMDL
MODEL 2
REMARK VINA RESULT:      -6.3      4.167      6.875
REMARK  Name = 
REMARK  14 active torsions:
REMARK  status: ('A' for Active; 'I' for Inactive)
REMARK    1  A    between atoms: C_1  and  O_2
REMARK    2  A    between atoms: O_2  and  C_3
REMARK    3  A    between atoms: C_5  and  C_6
REMARK    4  A    between atoms: C_8  and  C_9
REMARK    5  A    between atoms: C_10  and  C_11
REMARK    6  A    between atoms: C_13  and  C_14
REMARK    7  A    between atoms: C_15  and  N_16
REMARK    8  A    between atoms: N_16  and  C_17
REMARK    9  A    between atoms: C_17  and  C_18
REMARK   10  A    between atoms: C_18  and  C_19
REMARK   11  A    between atoms: C_18  and  C_20
REMARK   12  A    between atoms: C_18  and  C_21
REMARK   13  A    between atoms: C_22  and  O_23
REMARK   14  A    between atoms: O_23  and  C_24
REMARK                            x       y       z     vdW  Elec       q    Type
REMARK                         _______ _______ _______ _____ _____    ______ ____
ROOT
ATOM      1  C   UNL     1       1.022  10.882  19.660  0.00  0.00    +0.000 A 
ATOM      2  N   UNL     1       1.613  10.180  18.684  0.00  0.00    +0.000 NA
ATOM      3  C   UNL     1       1.905   8.882  18.927  0.00  0.00    +0.000 A 
ATOM      4  C   UNL     1       2.499   8.154  17.753  0.00  0.00    +0.000 C 
ATOM      5  C   UNL     1       1.687   8.249  20.158  0.00  0.00    +0.000 A 
ATOM      6  C   UNL     1       1.104   9.100  21.102  0.00  0.00    +0.000 A 
ATOM      7  N   UNL     1       0.750  10.380  20.871  0.00  0.00    +0.000 NA
ENDROOT
BRANCH   1  15
ATOM      8  C   UNL     1       1.454  13.358  19.871  0.00  0.00    +0.000 A 
ATOM      9  C   UNL     1       1.119  14.692  19.598  0.00  0.00    +0.000 A 
ATOM     10  C   UNL     1      -0.018  15.008  18.854  0.00  0.00    +0.000 A 
ATOM     11  C   UNL     1      -0.350  16.434  18.525  0.00  0.00    +0.000 C 
ATOM     12  C   UNL     1      -0.827  13.978  18.387  0.00  0.00    +0.000 A 
ATOM     13  C   UNL     1      -0.522  12.629  18.650  0.00  0.00    +0.000 A 
ATOM     14  C   UNL     1      -1.465  11.593  18.090  0.00  0.00    +0.000 C 
ATOM     15  C   UNL     1       0.646  12.290  19.395  0.00  0.00    +0.000 A 
BRANCH   8  17
ATOM     16  C   UNL     1       3.452  14.128  20.913  0.00  0.00    +0.000 C 
ATOM     17  O   UNL     1       2.626  13.039  20.519  0.00  0.00    +0.000 OA
ENDBRANCH   8  17
ENDBRANCH   1  15
BRANCH   5  18
ATOM     18  N   UNL     1       2.135   6.938  20.354  0.00  0.00    +0.000 N 
ATOM     19  H   UNL     1       2.953   6.742  19.782  0.00  0.00    +0.000 HD
BRANCH  18  20
ATOM     20  C   UNL     1       1.229   5.797  20.452  0.00  0.00    +0.000 C 
BRANCH  20  21
ATOM     21  C   UNL     1       1.808   4.551  19.730  0.00  0.00    +0.000 C 
ATOM     22  C   UNL     1       3.303   4.407  20.066  0.00  0.00    +0.000 C 
ATOM     23  C   UNL     1       1.069   3.301  20.247  0.00  0.00    +0.000 C 
ATOM     24  C   UNL     1       1.625   4.632  18.206  0.00  0.00    +0.000 C 
ENDBRANCH  20  21
ENDBRANCH  18  20
ENDBRANCH   5  18
BRANCH   6  25
ATOM     25  O   UNL     1       0.791   8.590  22.350  0.00  0.00    +0.000 OA
ATOM     26  C   UNL     1       0.039   9.477  23.170  0.00  0.00    +0.000 C 
ENDBRANCH   6  25
TORSDOF 6
ENDMDL
MODEL 3
REMARK VINA RESULT:      -6.1      4.214      6.962
REMARK  Name = 
REMARK  14 active torsions:
REMARK  status: ('A' for Active; 'I' for Inactive)
REMARK    1  A    between atoms: C_1  and  O_2
REMARK    2  A    between atoms: O_2  and  C_3
REMARK    3  A    between atoms: C_5  and  C_6
REMARK    4  A    between atoms: C_8  and  C_9
REMARK    5  A    between atoms: C_10  and  C_11
REMARK    6  A    between atoms: C_13  and  C_14
REMARK    7  A    between atoms: C_15  and  N_16
REMARK    8  A    between atoms: N_16  and  C_17
REMARK    9  A    between atoms: C_17  and  C_18
REMARK   10  A    between atoms: C_18  and  C_19
REMARK   11  A    between atoms: C_18  and  C_20
REMARK   12  A    between atoms: C_18  and  C_21
REMARK   13  A    between atoms: C_22  and  O_23
REMARK   14  A    between atoms: O_23  and  C_24
REMARK                            x       y       z     vdW  Elec       q    Type
REMARK                         _______ _______ _______ _____ _____    ______ ____
ROOT
ATOM      1  C   UNL     1       1.036  11.051  19.729  0.00  0.00    +0.000 A 
ATOM      2  N   UNL     1       1.560  10.287  18.762  0.00  0.00    +0.000 NA
ATOM      3  C   UNL     1       1.821   8.991  19.051  0.00  0.00    +0.000 A 
ATOM      4  C   UNL     1       2.339   8.193  17.887  0.00  0.00    +0.000 C 
ATOM      5  C   UNL     1       1.636   8.421  20.317  0.00  0.00    +0.000 A 
ATOM      6  C   UNL     1       1.122   9.332  21.246  0.00  0.00    +0.000 A 
ATOM      7  N   UNL     1       0.800  10.612  20.971  0.00  0.00    +0.000 NA
ENDROOT
BRANCH   1  15
ATOM      8  C   UNL     1      -0.463  12.770  18.653  0.00  0.00    +0.000 A 
ATOM      9  C   UNL     1      -0.808  14.101  18.378  0.00  0.00    +0.000 A 
ATOM     10  C   UNL     1      -0.023  15.156  18.844  0.00  0.00    +0.000 A 
ATOM     11  C   UNL     1      -0.419  16.580  18.588  0.00  0.00    +0.000 C 
ATOM     12  C   UNL     1       1.119  14.872  19.587  0.00  0.00    +0.000 A 
ATOM     13  C   UNL     1       1.495  13.546  19.872  0.00  0.00    +0.000 A 
ATOM     14  C   UNL     1       2.749  13.353  20.690  0.00  0.00    +0.000 C 
ATOM     15  C   UNL     1       0.694  12.458  19.416  0.00  0.00    +0.000 A 
BRANCH   8  17
ATOM     16  C   UNL     1      -2.589  11.715  18.853  0.00  0.00    +0.000 C 
ATOM     17  O   UNL     1      -1.287  11.732  18.279  0.00  0.00    +0.000 OA
ENDBRANCH   8  17
ENDBRANCH   1  15
BRANCH   5  18
ATOM     18  N   UNL     1       2.049   7.105  20.553  0.00  0.00    +0.000 N 
ATOM     19  H   UNL     1       2.946   6.919  20.110  0.00  0.00    +0.000 HD
BRANCH  18  20
ATOM     20  C   UNL     1       1.139   5.965  20.489  0.00  0.00    +0.000 C 
BRANCH  20  21
ATOM     21  C   UNL     1       1.868   4.688  19.993  0.00  0.00    +0.000 C 
ATOM     22  C   UNL     1       3.389   4.923  20.001  0.00  0.00    +0.000 C 
ATOM     23  C   UNL     1       1.548   3.535  20.966  0.00  0.00    +0.000 C 
ATOM     24  C   UNL     1       1.414   4.277  18.583  0.00  0.00    +0.000 C 
ENDBRANCH  20  21
ENDBRANCH  18  20
ENDBRANCH   5  18
BRANCH   6  25
ATOM     25  O   UNL     1       0.847   8.888  22.527  0.00  0.00    +0.000 OA
ATOM     26  C   UNL     1      -0.205   9.594  23.175  0.00  0.00    +0.000 C 
ENDBRANCH   6  25
TORSDOF 6
ENDMDL
MODEL 4
REMARK VINA RESULT:      -6.0      1.170      2.298
REMARK  Name = 
REMARK  14 active torsions:
REMARK  status: ('A' for Active; 'I' for Inactive)
REMARK    1  A    between atoms: C_1  and  O_2
REMARK    2  A    between atoms: O_2  and  C_3
REMARK    3  A    between atoms: C_5  and  C_6
REMARK    4  A    between atoms: C_8  and  C_9
REMARK    5  A    between atoms: C_10  and  C_11
REMARK    6  A    between atoms: C_13  and  C_14
REMARK    7  A    between atoms: C_15  and  N_16
REMARK    8  A    between atoms: N_16  and  C_17
REMARK    9  A    between atoms: C_17  and  C_18
REMARK   10  A    between atoms: C_18  and  C_19
REMARK   11  A    between atoms: C_18  and  C_20
REMARK   12  A    between atoms: C_18  and  C_21
REMARK   13  A    between atoms: C_22  and  O_23
REMARK   14  A    between atoms: O_23  and  C_24
REMARK                            x       y       z     vdW  Elec       q    Type
REMARK                         _______ _______ _______ _____ _____    ______ ____
ROOT
ATOM      1  C   UNL     1       3.186   6.252  18.730  0.00  0.00    +0.000 A 
ATOM      2  N   UNL     1       4.498   6.521  18.743  0.00  0.00    +0.000 NA
ATOM      3  C   UNL     1       5.317   5.707  18.038  0.00  0.00    +0.000 A 
ATOM      4  C   UNL     1       6.761   6.126  18.050  0.00  0.00    +0.000 C 
ATOM      5  C   UNL     1       4.882   4.567  17.351  0.00  0.00    +0.000 A 
ATOM      6  C   UNL     1       3.500   4.377  17.448  0.00  0.00    +0.000 A 
ATOM      7  N   UNL     1       2.653   5.201  18.096  0.00  0.00    +0.000 NA
ENDROOT
BRANCH   1  15
ATOM      8  C   UNL     1       1.707   6.783  20.703  0.00  0.00    +0.000 A 
ATOM      9  C   UNL     1       0.861   7.653  21.407  0.00  0.00    +0.000 A 
ATOM     10  C   UNL     1       0.542   8.912  20.897  0.00  0.00    +0.000 A 
ATOM     11  C   UNL     1      -0.327   9.857  21.673  0.00  0.00    +0.000 C 
ATOM     12  C   UNL     1       1.074   9.299  19.671  0.00  0.00    +0.000 A 
ATOM     13  C   UNL     1       1.920   8.446  18.938  0.00  0.00    +0.000 A 
ATOM     14  C   UNL     1       2.445   8.970  17.623  0.00  0.00    +0.000 C 
ATOM     15  C   UNL     1       2.267   7.163  19.453  0.00  0.00    +0.000 A 
BRANCH   8  17
ATOM     16  C   UNL     1       1.343   4.436  20.880  0.00  0.00    +0.000 C 
ATOM     17  O   UNL     1       2.102   5.582  21.247  0.00  0.00    +0.000 OA
ENDBRANCH   8  17
ENDBRANCH   1  15
BRANCH   5  18
ATOM     18  N   UNL     1       5.819   3.717  16.751  0.00  0.00    +0.000 N 
ATOM     19  H   UNL     1       6.767   3.982  17.006  0.00  0.00    +0.000 HD
BRANCH  18  20
ATOM     20  C   UNL     1       5.711   3.270  15.365  0.00  0.00    +0.000 C 
BRANCH  20  21
ATOM     21  C   UNL     1       6.228   4.352  14.381  0.00  0.00    +0.000 C 
ATOM     22  C   UNL     1       6.327   3.759  12.964  0.00  0.00    +0.000 C 
ATOM     23  C   UNL     1       5.212   5.512  14.354  0.00  0.00    +0.000 C 
ATOM     24  C   UNL     1       7.595   4.911  14.806  0.00  0.00    +0.000 C 
ENDBRANCH  20  21
ENDBRANCH  18  20
ENDBRANCH   5  18
BRANCH   6  25
ATOM     25  O   UNL     1       2.929   3.310  16.776  0.00  0.00    +0.000 OA
ATOM     26  C   UNL     1       2.571   2.217  17.616  0.00  0.00    +0.000 C 
ENDBRANCH   6  25
TORSDOF 6
ENDMDL
MODEL 5
REMARK VINA RESULT:      -6.0      4.208      6.975
REMARK  Name = 
REMARK  14 active torsions:
REMARK  status: ('A' for Active; 'I' for Inactive)
REMARK    1  A    between atoms: C_1  and  O_2
REMARK    2  A    between atoms: O_2  and  C_3
REMARK    3  A    between atoms: C_5  and  C_6
REMARK    4  A    between atoms: C_8  and  C_9
REMARK    5  A    between atoms: C_10  and  C_11
REMARK    6  A    between atoms: C_13  and  C_14
REMARK    7  A    between atoms: C_15  and  N_16
REMARK    8  A    between atoms: N_16  and  C_17
REMARK    9  A    between atoms: C_17  and  C_18
REMARK   10  A    between atoms: C_18  and  C_19
REMARK   11  A    between atoms: C_18  and  C_20
REMARK   12  A    between atoms: C_18  and  C_21
REMARK   13  A    between atoms: C_22  and  O_23
REMARK   14  A    between atoms: O_23  and  C_24
REMARK                            x       y       z     vdW  Elec       q    Type
REMARK                         _______ _______ _______ _____ _____    ______ ____
ROOT
ATOM      1  C   UNL     1       0.945  11.142  19.748  0.00  0.00    +0.000 A 
ATOM      2  N   UNL     1       1.394  10.405  18.724  0.00  0.00    +0.000 NA
ATOM      3  C   UNL     1       1.729   9.117  18.971  0.00  0.00    +0.000 A 
ATOM      4  C   UNL     1       2.152   8.346  17.752  0.00  0.00    +0.000 C 
ATOM      5  C   UNL     1       1.698   8.533  20.243  0.00  0.00    +0.000 A 
ATOM      6  C   UNL     1       1.250   9.417  21.230  0.00  0.00    +0.000 A 
ATOM      7  N   UNL     1       0.856  10.686  21.004  0.00  0.00    +0.000 NA
ENDROOT
BRANCH   1  15
ATOM      8  C   UNL     1      -0.843  12.913  19.599  0.00  0.00    +0.000 A 
ATOM      9  C   UNL     1      -1.246  14.240  19.382  0.00  0.00    +0.000 A 
ATOM     10  C   UNL     1      -0.317  15.225  19.047  0.00  0.00    +0.000 A 
ATOM     11  C   UNL     1      -0.743  16.651  18.859  0.00  0.00    +0.000 C 
ATOM     12  C   UNL     1       1.024  14.875  18.924  0.00  0.00    +0.000 A 
ATOM     13  C   UNL     1       1.458  13.552  19.128  0.00  0.00    +0.000 A 
ATOM     14  C   UNL     1       2.936  13.286  18.975  0.00  0.00    +0.000 C 
ATOM     15  C   UNL     1       0.523  12.537  19.487  0.00  0.00    +0.000 A 
BRANCH   8  17
ATOM     16  C   UNL     1      -3.092  12.130  19.615  0.00  0.00    +0.000 C 
ATOM     17  O   UNL     1      -1.741  11.960  20.025  0.00  0.00    +0.000 OA
ENDBRANCH   8  17
ENDBRANCH   1  15
BRANCH   5  18
ATOM     18  N   UNL     1       2.180   7.231  20.422  0.00  0.00    +0.000 N 
ATOM     19  H   UNL     1       2.997   7.062  19.841  0.00  0.00    +0.000 HD
BRANCH  18  20
ATOM     20  C   UNL     1       1.304   6.066  20.518  0.00  0.00    +0.000 C 
BRANCH  20  21
ATOM     21  C   UNL     1       2.053   4.763  20.133  0.00  0.00    +0.000 C 
ATOM     22  C   UNL     1       1.957   3.751  21.289  0.00  0.00    +0.000 C 
ATOM     23  C   UNL     1       1.367   4.155  18.894  0.00  0.00    +0.000 C 
ATOM     24  C   UNL     1       3.528   5.026  19.795  0.00  0.00    +0.000 C 
ENDBRANCH  20  21
ENDBRANCH  18  20
ENDBRANCH   5  18
BRANCH   6  25
ATOM     25  O   UNL     1       1.126   8.955  22.528  0.00  0.00    +0.000 OA
ATOM     26  C   UNL     1      -0.012   9.459  23.219  0.00  0.00    +0.000 C 
ENDBRANCH   6  25
TORSDOF 6
ENDMDL
MODEL 6
REMARK VINA RESULT:      -5.9      1.768      7.442
REMARK  Name = 
REMARK  14 active torsions:
REMARK  status: ('A' for Active; 'I' for Inactive)
REMARK    1  A    between atoms: C_1  and  O_2
REMARK    2  A    between atoms: O_2  and  C_3
REMARK    3  A    between atoms: C_5  and  C_6
REMARK    4  A    between atoms: C_8  and  C_9
REMARK    5  A    between atoms: C_10  and  C_11
REMARK    6  A    between atoms: C_13  and  C_14
REMARK    7  A    between atoms: C_15  and  N_16
REMARK    8  A    between atoms: N_16  and  C_17
REMARK    9  A    between atoms: C_17  and  C_18
REMARK   10  A    between atoms: C_18  and  C_19
REMARK   11  A    between atoms: C_18  and  C_20
REMARK   12  A    between atoms: C_18  and  C_21
REMARK   13  A    between atoms: C_22  and  O_23
REMARK   14  A    between atoms: O_23  and  C_24
REMARK                            x       y       z     vdW  Elec       q    Type
REMARK                         _______ _______ _______ _____ _____    ______ ____
ROOT
ATOM      1  C   UNL     1       3.666   6.001  18.068  0.00  0.00    +0.000 A 
ATOM      2  N   UNL     1       3.432   5.195  19.112  0.00  0.00    +0.000 NA
ATOM      3  C   UNL     1       2.636   5.660  20.103  0.00  0.00    +0.000 A 
ATOM      4  C   UNL     1       2.370   4.663  21.197  0.00  0.00    +0.000 C 
ATOM      5  C   UNL     1       2.099   6.952  20.132  0.00  0.00    +0.000 A 
ATOM      6  C   UNL     1       2.450   7.704  19.006  0.00  0.00    +0.000 A 
ATOM      7  N   UNL     1       3.194   7.250  17.978  0.00  0.00    +0.000 NA
ENDROOT
BRANCH   1  15
ATOM      8  C   UNL     1       5.620   6.222  16.489  0.00  0.00    +0.000 A 
ATOM      9  C   UNL     1       6.423   5.730  15.449  0.00  0.00    +0.000 A 
ATOM     10  C   UNL     1       6.133   4.511  14.835  0.00  0.00    +0.000 A 
ATOM     11  C   UNL     1       7.019   3.966  13.754  0.00  0.00    +0.000 C 
ATOM     12  C   UNL     1       5.028   3.784  15.265  0.00  0.00    +0.000 A 
ATOM     13  C   UNL     1       4.199   4.254  16.301  0.00  0.00    +0.000 A 
ATOM     14  C   UNL     1       3.031   3.381  16.692  0.00  0.00    +0.000 C 
ATOM     15  C   UNL     1       4.492   5.491  16.949  0.00  0.00    +0.000 A 
BRANCH   8  17
ATOM     16  C   UNL     1       7.330   7.533  17.502  0.00  0.00    +0.000 C 
ATOM     17  O   UNL     1       5.958   7.374  17.162  0.00  0.00    +0.000 OA
ENDBRANCH   8  17
ENDBRANCH   1  15
BRANCH   5  18
ATOM     18  N   UNL     1       1.389   7.385  21.258  0.00  0.00    +0.000 N 
ATOM     19  H   UNL     1       0.403   7.146  21.181  0.00  0.00    +0.000 HD
BRANCH  18  20
ATOM     20  C   UNL     1       1.608   8.687  21.881  0.00  0.00    +0.000 C 
BRANCH  20  21
ATOM     21  C   UNL     1       0.285   9.491  21.990  0.00  0.00    +0.000 C 
ATOM     22  C   UNL     1      -0.844   8.730  21.272  0.00  0.00    +0.000 C 
ATOM     23  C   UNL     1      -0.085   9.621  23.481  0.00  0.00    +0.000 C 
ATOM     24  C   UNL     1       0.419  10.902  21.395  0.00  0.00    +0.000 C 
ENDBRANCH  20  21
ENDBRANCH  18  20
ENDBRANCH   5  18
BRANCH   6  25
ATOM     25  O   UNL     1       1.948   8.988  18.883  0.00  0.00    +0.000 OA
ATOM     26  C   UNL     1       1.050   9.161  17.792  0.00  0.00    +0.000 C 
ENDBRANCH   6  25
TORSDOF 6
ENDMDL
MODEL 7
REMARK VINA RESULT:      -5.9      2.315      4.418
REMARK  Name = 
REMARK  14 active torsions:
REMARK  status: ('A' for Active; 'I' for Inactive)
REMARK    1  A    between atoms: C_1  and  O_2
REMARK    2  A    between atoms: O_2  and  C_3
REMARK    3  A    between atoms: C_5  and  C_6
REMARK    4  A    between atoms: C_8  and  C_9
REMARK    5  A    between atoms: C_10  and  C_11
REMARK    6  A    between atoms: C_13  and  C_14
REMARK    7  A    between atoms: C_15  and  N_16
REMARK    8  A    between atoms: N_16  and  C_17
REMARK    9  A    between atoms: C_17  and  C_18
REMARK   10  A    between atoms: C_18  and  C_19
REMARK   11  A    between atoms: C_18  and  C_20
REMARK   12  A    between atoms: C_18  and  C_21
REMARK   13  A    between atoms: C_22  and  O_23
REMARK   14  A    between atoms: O_23  and  C_24
REMARK                            x       y       z     vdW  Elec       q    Type
REMARK                         _______ _______ _______ _____ _____    ______ ____
ROOT
ATOM      1  C   UNL     1       1.416   8.438  19.813  0.00  0.00    +0.000 A 
ATOM      2  N   UNL     1       2.109   8.640  18.684  0.00  0.00    +0.000 NA
ATOM      3  C   UNL     1       2.870   7.622  18.219  0.00  0.00    +0.000 A 
ATOM      4  C   UNL     1       3.554   7.913  16.912  0.00  0.00    +0.000 C 
ATOM      5  C   UNL     1       3.025   6.398  18.880  0.00  0.00    +0.000 A 
ATOM      6  C   UNL     1       2.282   6.328  20.063  0.00  0.00    +0.000 A 
ATOM      7  N   UNL     1       1.473   7.304  20.522  0.00  0.00    +0.000 NA
ENDROOT
BRANCH   1  15
ATOM      8  C   UNL     1      -0.332  10.213  19.423  0.00  0.00    +0.000 A 
ATOM      9  C   UNL     1      -1.188  11.220  19.893  0.00  0.00    +0.000 A 
ATOM     10  C   UNL     1      -1.208  11.572  21.242  0.00  0.00    +0.000 A 
ATOM     11  C   UNL     1      -2.157  12.618  21.750  0.00  0.00    +0.000 C 
ATOM     12  C   UNL     1      -0.358  10.913  22.125  0.00  0.00    +0.000 A 
ATOM     13  C   UNL     1       0.517   9.904  21.683  0.00  0.00    +0.000 A 
ATOM     14  C   UNL     1       1.390   9.251  22.727  0.00  0.00    +0.000 C 
ATOM     15  C   UNL     1       0.537   9.522  20.310  0.00  0.00    +0.000 A 
BRANCH   8  17
ATOM     16  C   UNL     1      -1.592  10.043  17.409  0.00  0.00    +0.000 C 
ATOM     17  O   UNL     1      -0.380   9.795  18.112  0.00  0.00    +0.000 OA
ENDBRANCH   8  17
ENDBRANCH   1  15
BRANCH   5  18
ATOM     18  N   UNL     1       3.929   5.450  18.385  0.00  0.00    +0.000 N 
ATOM     19  H   UNL     1       3.499   4.530  18.331  0.00  0.00    +0.000 HD
BRANCH  18  20
ATOM     20  C   UNL     1       5.328   5.397  18.800  0.00  0.00    +0.000 C 
BRANCH  20  21
ATOM     21  C   UNL     1       6.282   5.492  17.580  0.00  0.00    +0.000 C 
ATOM     22  C   UNL     1       6.802   6.934  17.440  0.00  0.00    +0.000 C 
ATOM     23  C   UNL     1       7.486   4.561  17.830  0.00  0.00    +0.000 C 
ATOM     24  C   UNL     1       5.594   5.060  16.276  0.00  0.00    +0.000 C 
ENDBRANCH  20  21
ENDBRANCH  18  20
ENDBRANCH   5  18
BRANCH   6  25
ATOM     25  O   UNL     1       2.307   5.154  20.794  0.00  0.00    +0.000 OA
ATOM     26  C   UNL     1       1.209   4.285  20.539  0.00  0.00    +0.000 C 
ENDBRANCH   6  25
TORSDOF 6
ENDMDL
MODEL 8
REMARK VINA RESULT:      -5.9      1.567      7.508
REMARK  Name = 
REMARK  14 active torsions:
REMARK  status: ('A' for Active; 'I' for Inactive)
REMARK    1  A    between atoms: C_1  and  O_2
REMARK    2  A    between atoms: O_2  and  C_3
REMARK    3  A    between atoms: C_5  and  C_6
REMARK    4  A    between atoms: C_8  and  C_9
REMARK    5  A    between atoms: C_10  and  C_11
REMARK    6  A    between atoms: C_13  and  C_14
REMARK    7  A    between atoms: C_15  and  N_16
REMARK    8  A    between atoms: N_16  and  C_17
REMARK    9  A    between atoms: C_17  and  C_18
REMARK   10  A    between atoms: C_18  and  C_19
REMARK   11  A    between atoms: C_18  and  C_20
REMARK   12  A    between atoms: C_18  and  C_21
REMARK   13  A    between atoms: C_22  and  O_23
REMARK   14  A    between atoms: O_23  and  C_24
REMARK                            x       y       z     vdW  Elec       q    Type
REMARK                         _______ _______ _______ _____ _____    ______ ____
ROOT
ATOM      1  C   UNL     1       3.587   6.126  18.071  0.00  0.00    +0.000 A 
ATOM      2  N   UNL     1       2.987   7.306  17.866  0.00  0.00    +0.000 NA
ATOM      3  C   UNL     1       2.224   7.809  18.863  0.00  0.00    +0.000 A 
ATOM      4  C   UNL     1       1.650   9.169  18.574  0.00  0.00    +0.000 C 
ATOM      5  C   UNL     1       1.973   7.141  20.068  0.00  0.00    +0.000 A 
ATOM      6  C   UNL     1       2.624   5.905  20.141  0.00  0.00    +0.000 A 
ATOM      7  N   UNL     1       3.434   5.404  19.188  0.00  0.00    +0.000 NA
ENDROOT
BRANCH   1  15
ATOM      8  C   UNL     1       5.619   6.302  16.589  0.00  0.00    +0.000 A 
ATOM      9  C   UNL     1       6.475   5.780  15.607  0.00  0.00    +0.000 A 
ATOM     10  C   UNL     1       6.217   4.543  15.016  0.00  0.00    +0.000 A 
ATOM     11  C   UNL     1       7.157   3.966  13.999  0.00  0.00    +0.000 C 
ATOM     12  C   UNL     1       5.090   3.828  15.410  0.00  0.00    +0.000 A 
ATOM     13  C   UNL     1       4.209   4.328  16.387  0.00  0.00    +0.000 A 
ATOM     14  C   UNL     1       3.022   3.466  16.742  0.00  0.00    +0.000 C 
ATOM     15  C   UNL     1       4.468   5.584  17.012  0.00  0.00    +0.000 A 
BRANCH   8  17
ATOM     16  C   UNL     1       7.299   7.715  17.512  0.00  0.00    +0.000 C 
ATOM     17  O   UNL     1       5.923   7.474  17.244  0.00  0.00    +0.000 OA
ENDBRANCH   8  17
ENDBRANCH   1  15
BRANCH   5  18
ATOM     18  N   UNL     1       1.072   7.685  20.991  0.00  0.00    +0.000 N 
ATOM     19  H   UNL     1       0.136   7.743  20.596  0.00  0.00    +0.000 HD
BRANCH  18  20
ATOM     20  C   UNL     1       1.399   8.829  21.838  0.00  0.00    +0.000 C 
BRANCH  20  21
ATOM     21  C   UNL     1       0.240   9.859  21.868  0.00  0.00    +0.000 C 
ATOM     22  C   UNL     1      -0.872   9.418  20.899  0.00  0.00    +0.000 C 
ATOM     23  C   UNL     1      -0.343   9.895  23.295  0.00  0.00    +0.000 C 
ATOM     24  C   UNL     1       0.717  11.273  21.500  0.00  0.00    +0.000 C 
ENDBRANCH  20  21
ENDBRANCH  18  20
ENDBRANCH   5  18
BRANCH   6  25
ATOM     25  O   UNL     1       2.499   5.158  21.299  0.00  0.00    +0.000 OA
ATOM     26  C   UNL     1       1.831   3.914  21.120  0.00  0.00    +0.000 C 
ENDBRANCH   6  25
TORSDOF 6
ENDMDL
MODEL 9
REMARK VINA RESULT:      -5.8      5.346      9.426
REMARK  Name = 
REMARK  14 active torsions:
REMARK  status: ('A' for Active; 'I' for Inactive)
REMARK    1  A    between atoms: C_1  and  O_2
REMARK    2  A    between atoms: O_2  and  C_3
REMARK    3  A    between atoms: C_5  and  C_6
REMARK    4  A    between atoms: C_8  and  C_9
REMARK    5  A    between atoms: C_10  and  C_11
REMARK    6  A    between atoms: C_13  and  C_14
REMARK    7  A    between atoms: C_15  and  N_16
REMARK    8  A    between atoms: N_16  and  C_17
REMARK    9  A    between atoms: C_17  and  C_18
REMARK   10  A    between atoms: C_18  and  C_19
REMARK   11  A    between atoms: C_18  and  C_20
REMARK   12  A    between atoms: C_18  and  C_21
REMARK   13  A    between atoms: C_22  and  O_23
REMARK   14  A    between atoms: O_23  and  C_24
REMARK                            x       y       z     vdW  Elec       q    Type
REMARK                         _______ _______ _______ _____ _____    ______ ____
ROOT
ATOM      1  C   UNL     1       0.616  10.609  19.528  0.00  0.00    +0.000 A 
ATOM      2  N   UNL     1       1.377  11.628  19.950  0.00  0.00    +0.000 NA
ATOM      3  C   UNL     1       0.951  12.885  19.690  0.00  0.00    +0.000 A 
ATOM      4  C   UNL     1       1.829  13.963  20.262  0.00  0.00    +0.000 C 
ATOM      5  C   UNL     1      -0.201  13.182  18.951  0.00  0.00    +0.000 A 
ATOM      6  C   UNL     1      -0.884  12.034  18.536  0.00  0.00    +0.000 A 
ATOM      7  N   UNL     1      -0.514  10.771  18.829  0.00  0.00    +0.000 NA
ENDROOT
BRANCH   1  15
ATOM      8  C   UNL     1       0.616   8.602  21.054  0.00  0.00    +0.000 A 
ATOM      9  C   UNL     1       0.988   7.282  21.350  0.00  0.00    +0.000 A 
ATOM     10  C   UNL     1       1.786   6.548  20.473  0.00  0.00    +0.000 A 
ATOM     11  C   UNL     1       2.145   5.122  20.770  0.00  0.00    +0.000 C 
ATOM     12  C   UNL     1       2.217   7.145  19.292  0.00  0.00    +0.000 A 
ATOM     13  C   UNL     1       1.866   8.469  18.970  0.00  0.00    +0.000 A 
ATOM     14  C   UNL     1       2.384   9.014  17.661  0.00  0.00    +0.000 C 
ATOM     15  C   UNL     1       1.038   9.226  19.850  0.00  0.00    +0.000 A 
BRANCH   8  17
ATOM     16  C   UNL     1       0.138   9.446  23.229  0.00  0.00    +0.000 C 
ATOM     17  O   UNL     1      -0.251   9.294  21.870  0.00  0.00    +0.000 OA
ENDBRANCH   8  17
ENDBRANCH   1  15
BRANCH   5  18
ATOM     18  N   UNL     1      -0.496  14.512  18.628  0.00  0.00    +0.000 N 
ATOM     19  H   UNL     1       0.285  14.952  18.147  0.00  0.00    +0.000 HD
BRANCH  18  20
ATOM     20  C   UNL     1      -1.178  15.419  19.547  0.00  0.00    +0.000 C 
BRANCH  20  21
ATOM     21  C   UNL     1      -0.708  16.884  19.347  0.00  0.00    +0.000 C 
ATOM     22  C   UNL     1      -1.910  17.766  18.964  0.00  0.00    +0.000 C 
ATOM     23  C   UNL     1      -0.131  17.398  20.681  0.00  0.00    +0.000 C 
ATOM     24  C   UNL     1       0.382  16.997  18.269  0.00  0.00    +0.000 C 
ENDBRANCH  20  21
ENDBRANCH  18  20
ENDBRANCH   5  18
BRANCH   6  25
ATOM     25  O   UNL     1      -2.067  12.183  17.835  0.00  0.00    +0.000 OA
ATOM     26  C   UNL     1      -3.152  11.423  18.356  0.00  0.00    +0.000 C 
ENDBRANCH   6  25
TORSDOF 6
ENDMDL
