MODEL 1
REMARK VINA RESULT:      -8.5      0.000      0.000
REMARK  Name = 
REMARK  14 active torsions:
REMARK  status: ('A' for Active; 'I' for Inactive)
REMARK    1  A    between atoms: C_1  and  C_2
REMARK    2  A    between atoms: C_2  and  C_3
REMARK    3  A    between atoms: C_3  and  C_4
REMARK    4  A    between atoms: C_4  and  N_5
REMARK    5  A    between atoms: N_5  and  C_6
REMARK    6  A    between atoms: C_6  and  C_7
REMARK    7  A    between atoms: N_9  and  O_10
REMARK    8  A    between atoms: C_11  and  C_13
REMARK    9  A    between atoms: C_13  and  N_14
REMARK   10  A    between atoms: N_14  and  C_15
REMARK   11  A    between atoms: C_15  and  C_16
REMARK   12  A    between atoms: N_24  and  C_25
REMARK   13  A    between atoms: C_28  and  N_29
REMARK   14  A    between atoms: C_33  and  C_34
REMARK                            x       y       z     vdW  Elec       q    Type
REMARK                         _______ _______ _______ _____ _____    ______ ____
ROOT
ATOM      1  N   UNL     1       3.190   7.079  18.799  0.00  0.00    +0.000 N 
ATOM      2  C   UNL     1       2.156   8.027  18.738  0.00  0.00    +0.000 C 
ATOM      3  O   UNL     1       1.873   8.606  17.695  0.00  0.00    +0.000 OA
ATOM      4  N   UNL     1       1.612   8.333  19.992  0.00  0.00    +0.000 N 
ATOM      5  H   UNL     1       2.224   8.149  20.768  0.00  0.00    +0.000 HD
ENDROOT
BRANCH   4   6
ATOM      6  C   UNL     1       0.644   9.357  20.158  0.00  0.00    +0.000 A 
ATOM      7  C   UNL     1       0.030   9.934  19.036  0.00  0.00    +0.000 A 
ATOM      8  C   UNL     1      -0.874  10.991  19.173  0.00  0.00    +0.000 A 
ATOM      9  C   UNL     1      -1.177  11.473  20.450  0.00  0.00    +0.000 A 
ATOM     10  C   UNL     1      -0.606  10.880  21.583  0.00  0.00    +0.000 A 
ATOM     11  C   UNL     1       0.308   9.813  21.449  0.00  0.00    +0.000 A 
ATOM     12  C   UNL     1       0.941   9.256  22.696  0.00  0.00    +0.000 C 
BRANCH   9  13
ATOM     13  N   UNL     1      -2.080  12.622  20.598  0.00  0.00    +0.000 N 
ATOM     14  O   UNL     1      -1.816  13.458  21.474  0.00  0.00    +0.000 OA
ATOM     15  O   UNL     1      -3.059  12.685  19.840  0.00  0.00    +0.000 OA
ENDBRANCH   9  13
ENDBRANCH   4   6
BRANCH   1  16
ATOM     16  C   UNL     1       3.958   6.881  17.526  0.00  0.00    +0.000 C 
BRANCH  16  18
ATOM     17  N   UNL     1       6.445   6.111  16.811  0.00  0.00    +0.000 N 
ATOM     18  C   UNL     1       5.079   5.844  17.026  0.00  0.00    +0.000 C 
ATOM     19  O   UNL     1       4.667   4.691  16.808  0.00  0.00    +0.000 OA
BRANCH  17  20
ATOM     20  C   UNL     1       6.952   7.471  16.736  0.00  0.00    +0.000 C 
BRANCH  20  21
ATOM     21  C   UNL     1       7.852   7.827  17.915  0.00  0.00    +0.000 C 
BRANCH  21  23
ATOM     22  C   UNL     1       9.141   9.615  19.086  0.00  0.00    +0.000 C 
ATOM     23  C   UNL     1       8.201   9.308  17.934  0.00  0.00    +0.000 C 
ENDBRANCH  21  23
ENDBRANCH  20  21
ENDBRANCH  17  20
BRANCH  17  24
ATOM     24  C   UNL     1       7.244   5.040  16.107  0.00  0.00    +0.000 C 
BRANCH  24  25
ATOM     25  C   UNL     1       7.169   4.654  14.601  0.00  0.00    +0.000 C 
ATOM     26  O   UNL     1       7.763   5.327  13.743  0.00  0.00    +0.000 OA
ATOM     27  N   UNL     1       6.356   3.607  14.230  0.00  0.00    +0.000 N 
ATOM     28  H   UNL     1       6.141   2.840  14.845  0.00  0.00    +0.000 HD
BRANCH  27  29
ATOM     29  O   UNL     1       6.409   3.292  12.838  0.00  0.00    +0.000 OA
ATOM     30  H   UNL     1       7.073   2.580  12.782  0.00  0.00    +0.000 HD
ENDBRANCH  27  29
ENDBRANCH  24  25
ENDBRANCH  17  24
ENDBRANCH  16  18
ENDBRANCH   1  16
BRANCH   1  31
ATOM     31  C   UNL     1       2.959   5.871  19.648  0.00  0.00    +0.000 C 
BRANCH  31  32
ATOM     32  C   UNL     1       1.622   5.173  19.339  0.00  0.00    +0.000 C 
ATOM     33  C   UNL     1       1.693   4.414  18.017  0.00  0.00    +0.000 C 
ATOM     34  C   UNL     1       1.913   2.917  18.048  0.00  0.00    +0.000 C 
ATOM     35  C   UNL     1       1.460   2.132  19.262  0.00  0.00    +0.000 C 
ATOM     36  C   UNL     1       1.146   2.875  20.547  0.00  0.00    +0.000 C 
ATOM     37  C   UNL     1       1.032   4.392  20.520  0.00  0.00    +0.000 C 
ENDBRANCH  31  32
ENDBRANCH   1  31
TORSDOF 12
ENDMDL
MODEL 2
REMARK VINA RESULT:      -8.4      0.960      1.200
REMARK  Name = 
REMARK  14 active torsions:
REMARK  status: ('A' for Active; 'I' for Inactive)
REMARK    1  A    between atoms: C_1  and  C_2
REMARK    2  A    between atoms: C_2  and  C_3
REMARK    3  A    between atoms: C_3  and  C_4
REMARK    4  A    between atoms: C_4  and  N_5
REMARK    5  A    between atoms: N_5  and  C_6
REMARK    6  A    between atoms: C_6  and  C_7
REMARK    7  A    between atoms: N_9  and  O_10
REMARK    8  A    between atoms: C_11  and  C_13
REMARK    9  A    between atoms: C_13  and  N_14
REMARK   10  A    between atoms: N_14  and  C_15
REMARK   11  A    between atoms: C_15  and  C_16
REMARK   12  A    between atoms: N_24  and  C_25
REMARK   13  A    between atoms: C_28  and  N_29
REMARK   14  A    between atoms: C_33  and  C_34
REMARK                            x       y       z     vdW  Elec       q    Type
REMARK                         _______ _______ _______ _____ _____    ______ ____
ROOT
ATOM      1  N   UNL     1       2.959   6.848  18.795  0.00  0.00    +0.000 N 
ATOM      2  C   UNL     1       2.031   7.895  18.671  0.00  0.00    +0.000 C 
ATOM      3  O   UNL     1       1.601   8.247  17.579  0.00  0.00    +0.000 OA
ATOM      4  N   UNL     1       1.784   8.560  19.879  0.00  0.00    +0.000 N 
ATOM      5  H   UNL     1       2.520   8.476  20.559  0.00  0.00    +0.000 HD
ENDROOT
BRANCH   4   6
ATOM      6  C   UNL     1       0.973   9.723  19.939  0.00  0.00    +0.000 A 
ATOM      7  C   UNL     1       1.202  10.788  19.055  0.00  0.00    +0.000 A 
ATOM      8  C   UNL     1       0.461  11.970  19.143  0.00  0.00    +0.000 A 
ATOM      9  C   UNL     1      -0.529  12.087  20.123  0.00  0.00    +0.000 A 
ATOM     10  C   UNL     1      -0.799  11.017  20.986  0.00  0.00    +0.000 A 
ATOM     11  C   UNL     1      -0.053   9.822  20.901  0.00  0.00    +0.000 A 
ATOM     12  C   UNL     1      -0.342   8.730  21.895  0.00  0.00    +0.000 C 
BRANCH   9  13
ATOM     13  N   UNL     1      -1.270  13.347  20.261  0.00  0.00    +0.000 N 
ATOM     14  O   UNL     1      -0.620  14.387  20.438  0.00  0.00    +0.000 OA
ATOM     15  O   UNL     1      -2.507  13.296  20.198  0.00  0.00    +0.000 OA
ENDBRANCH   9  13
ENDBRANCH   4   6
BRANCH   1  16
ATOM     16  C   UNL     1       3.431   6.249  17.504  0.00  0.00    +0.000 C 
BRANCH  16  18
ATOM     17  N   UNL     1       6.069   5.924  17.030  0.00  0.00    +0.000 N 
ATOM     18  C   UNL     1       4.744   5.448  17.037  0.00  0.00    +0.000 C 
ATOM     19  O   UNL     1       4.537   4.289  16.638  0.00  0.00    +0.000 OA
BRANCH  17  20
ATOM     20  C   UNL     1       6.371   7.338  17.174  0.00  0.00    +0.000 C 
BRANCH  20  21
ATOM     21  C   UNL     1       7.753   7.584  17.772  0.00  0.00    +0.000 C 
BRANCH  21  23
ATOM     22  C   UNL     1       8.875   9.485  18.937  0.00  0.00    +0.000 C 
ATOM     23  C   UNL     1       8.162   9.046  17.671  0.00  0.00    +0.000 C 
ENDBRANCH  21  23
ENDBRANCH  20  21
ENDBRANCH  17  20
BRANCH  17  24
ATOM     24  C   UNL     1       7.093   5.072  16.315  0.00  0.00    +0.000 C 
BRANCH  24  25
ATOM     25  C   UNL     1       7.115   4.707  14.803  0.00  0.00    +0.000 C 
ATOM     26  O   UNL     1       7.763   5.392  13.994  0.00  0.00    +0.000 OA
ATOM     27  N   UNL     1       6.330   3.665  14.366  0.00  0.00    +0.000 N 
ATOM     28  H   UNL     1       6.077   2.889  14.955  0.00  0.00    +0.000 HD
BRANCH  27  29
ATOM     29  O   UNL     1       6.473   3.369  12.976  0.00  0.00    +0.000 OA
ATOM     30  H   UNL     1       6.940   4.145  12.616  0.00  0.00    +0.000 HD
ENDBRANCH  27  29
ENDBRANCH  24  25
ENDBRANCH  17  24
ENDBRANCH  16  18
ENDBRANCH   1  16
BRANCH   1  31
ATOM     31  C   UNL     1       2.789   5.918  19.953  0.00  0.00    +0.000 C 
BRANCH  31  32
ATOM     32  C   UNL     1       2.650   4.447  19.519  0.00  0.00    +0.000 C 
ATOM     33  C   UNL     1       3.477   3.530  20.414  0.00  0.00    +0.000 C 
ATOM     34  C   UNL     1       2.777   2.766  21.518  0.00  0.00    +0.000 C 
ATOM     35  C   UNL     1       1.310   2.423  21.360  0.00  0.00    +0.000 C 
ATOM     36  C   UNL     1       0.492   3.149  20.308  0.00  0.00    +0.000 C 
ATOM     37  C   UNL     1       1.204   3.999  19.267  0.00  0.00    +0.000 C 
ENDBRANCH  31  32
ENDBRANCH   1  31
TORSDOF 12
ENDMDL
MODEL 3
REMARK VINA RESULT:      -8.4      1.038      1.537
REMARK  Name = 
REMARK  14 active torsions:
REMARK  status: ('A' for Active; 'I' for Inactive)
REMARK    1  A    between atoms: C_1  and  C_2
REMARK    2  A    between atoms: C_2  and  C_3
REMARK    3  A    between atoms: C_3  and  C_4
REMARK    4  A    between atoms: C_4  and  N_5
REMARK    5  A    between atoms: N_5  and  C_6
REMARK    6  A    between atoms: C_6  and  C_7
REMARK    7  A    between atoms: N_9  and  O_10
REMARK    8  A    between atoms: C_11  and  C_13
REMARK    9  A    between atoms: C_13  and  N_14
REMARK   10  A    between atoms: N_14  and  C_15
REMARK   11  A    between atoms: C_15  and  C_16
REMARK   12  A    between atoms: N_24  and  C_25
REMARK   13  A    between atoms: C_28  and  N_29
REMARK   14  A    between atoms: C_33  and  C_34
REMARK                            x       y       z     vdW  Elec       q    Type
REMARK                         _______ _______ _______ _____ _____    ______ ____
ROOT
ATOM      1  N   UNL     1       2.858   7.189  18.080  0.00  0.00    +0.000 N 
ATOM      2  C   UNL     1       2.228   8.432  18.248  0.00  0.00    +0.000 C 
ATOM      3  O   UNL     1       2.620   9.437  17.666  0.00  0.00    +0.000 OA
ATOM      4  N   UNL     1       1.235   8.420  19.237  0.00  0.00    +0.000 N 
ATOM      5  H   UNL     1       1.340   7.693  19.923  0.00  0.00    +0.000 HD
ENDROOT
BRANCH   4   6
ATOM      6  C   UNL     1       0.570   9.605  19.642  0.00  0.00    +0.000 A 
ATOM      7  C   UNL     1      -0.107  10.392  18.698  0.00  0.00    +0.000 A 
ATOM      8  C   UNL     1      -0.709  11.599  19.064  0.00  0.00    +0.000 A 
ATOM      9  C   UNL     1      -0.645  12.022  20.395  0.00  0.00    +0.000 A 
ATOM     10  C   UNL     1      -0.011  11.227  21.358  0.00  0.00    +0.000 A 
ATOM     11  C   UNL     1       0.600  10.008  20.993  0.00  0.00    +0.000 A 
ATOM     12  C   UNL     1       1.322   9.226  22.057  0.00  0.00    +0.000 C 
BRANCH   9  13
ATOM     13  N   UNL     1      -1.224  13.316  20.776  0.00  0.00    +0.000 N 
ATOM     14  O   UNL     1      -1.898  13.367  21.814  0.00  0.00    +0.000 OA
ATOM     15  O   UNL     1      -1.008  14.283  20.030  0.00  0.00    +0.000 OA
ENDBRANCH   9  13
ENDBRANCH   4   6
BRANCH   1  16
ATOM     16  C   UNL     1       4.074   7.197  17.202  0.00  0.00    +0.000 C 
BRANCH  16  18
ATOM     17  N   UNL     1       5.933   5.238  17.224  0.00  0.00    +0.000 N 
ATOM     18  C   UNL     1       5.011   6.065  16.551  0.00  0.00    +0.000 C 
ATOM     19  O   UNL     1       4.895   5.931  15.321  0.00  0.00    +0.000 OA
BRANCH  17  20
ATOM     20  C   UNL     1       6.363   5.526  18.581  0.00  0.00    +0.000 C 
BRANCH  20  21
ATOM     21  C   UNL     1       7.869   5.746  18.684  0.00  0.00    +0.000 C 
BRANCH  21  23
ATOM     22  C   UNL     1       7.803   7.975  17.564  0.00  0.00    +0.000 C 
ATOM     23  C   UNL     1       8.218   7.221  18.815  0.00  0.00    +0.000 C 
ENDBRANCH  21  23
ENDBRANCH  20  21
ENDBRANCH  17  20
BRANCH  17  24
ATOM     24  C   UNL     1       6.872   4.427  16.362  0.00  0.00    +0.000 C 
BRANCH  24  25
ATOM     25  C   UNL     1       7.050   4.529  14.819  0.00  0.00    +0.000 C 
ATOM     26  O   UNL     1       7.763   5.416  14.320  0.00  0.00    +0.000 OA
ATOM     27  N   UNL     1       6.331   3.674  14.016  0.00  0.00    +0.000 N 
ATOM     28  H   UNL     1       6.034   2.761  14.319  0.00  0.00    +0.000 HD
BRANCH  27  29
ATOM     29  O   UNL     1       6.616   3.804  12.623  0.00  0.00    +0.000 OA
ATOM     30  H   UNL     1       7.372   4.419  12.592  0.00  0.00    +0.000 HD
ENDBRANCH  27  29
ENDBRANCH  24  25
ENDBRANCH  17  24
ENDBRANCH  16  18
ENDBRANCH   1  16
BRANCH   1  31
ATOM     31  C   UNL     1       1.980   5.982  18.014  0.00  0.00    +0.000 C 
BRANCH  31  32
ATOM     32  C   UNL     1       2.638   4.733  18.631  0.00  0.00    +0.000 C 
ATOM     33  C   UNL     1       2.905   4.933  20.120  0.00  0.00    +0.000 C 
ATOM     34  C   UNL     1       1.943   4.325  21.118  0.00  0.00    +0.000 C 
ATOM     35  C   UNL     1       1.155   3.093  20.725  0.00  0.00    +0.000 C 
ATOM     36  C   UNL     1       1.058   2.715  19.259  0.00  0.00    +0.000 C 
ATOM     37  C   UNL     1       1.959   3.411  18.251  0.00  0.00    +0.000 C 
ENDBRANCH  31  32
ENDBRANCH   1  31
TORSDOF 12
ENDMDL
MODEL 4
REMARK VINA RESULT:      -8.3      1.622      2.004
REMARK  Name = 
REMARK  14 active torsions:
REMARK  status: ('A' for Active; 'I' for Inactive)
REMARK    1  A    between atoms: C_1  and  C_2
REMARK    2  A    between atoms: C_2  and  C_3
REMARK    3  A    between atoms: C_3  and  C_4
REMARK    4  A    between atoms: C_4  and  N_5
REMARK    5  A    between atoms: N_5  and  C_6
REMARK    6  A    between atoms: C_6  and  C_7
REMARK    7  A    between atoms: N_9  and  O_10
REMARK    8  A    between atoms: C_11  and  C_13
REMARK    9  A    between atoms: C_13  and  N_14
REMARK   10  A    between atoms: N_14  and  C_15
REMARK   11  A    between atoms: C_15  and  C_16
REMARK   12  A    between atoms: N_24  and  C_25
REMARK   13  A    between atoms: C_28  and  N_29
REMARK   14  A    between atoms: C_33  and  C_34
REMARK                            x       y       z     vdW  Elec       q    Type
REMARK                         _______ _______ _______ _____ _____    ______ ____
ROOT
ATOM      1  N   UNL     1       3.360   7.012  18.043  0.00  0.00    +0.000 N 
ATOM      2  C   UNL     1       2.626   8.204  18.150  0.00  0.00    +0.000 C 
ATOM      3  O   UNL     1       2.975   9.229  17.575  0.00  0.00    +0.000 OA
ATOM      4  N   UNL     1       1.578   8.127  19.076  0.00  0.00    +0.000 N 
ATOM      5  H   UNL     1       1.695   7.419  19.781  0.00  0.00    +0.000 HD
ENDROOT
BRANCH   4   6
ATOM      6  C   UNL     1       0.798   9.261  19.420  0.00  0.00    +0.000 A 
ATOM      7  C   UNL     1       0.201  10.037  18.414  0.00  0.00    +0.000 A 
ATOM      8  C   UNL     1      -0.512  11.198  18.726  0.00  0.00    +0.000 A 
ATOM      9  C   UNL     1      -0.639  11.585  20.063  0.00  0.00    +0.000 A 
ATOM     10  C   UNL     1      -0.086  10.799  21.082  0.00  0.00    +0.000 A 
ATOM     11  C   UNL     1       0.635   9.627  20.771  0.00  0.00    +0.000 A 
ATOM     12  C   UNL     1       1.263   8.857  21.901  0.00  0.00    +0.000 C 
BRANCH   9  13
ATOM     13  N   UNL     1      -1.336  12.835  20.395  0.00  0.00    +0.000 N 
ATOM     14  O   UNL     1      -2.039  12.854  21.415  0.00  0.00    +0.000 OA
ATOM     15  O   UNL     1      -1.184  13.798  19.629  0.00  0.00    +0.000 OA
ENDBRANCH   9  13
ENDBRANCH   4   6
BRANCH   1  16
ATOM     16  C   UNL     1       4.623   7.103  17.241  0.00  0.00    +0.000 C 
BRANCH  16  18
ATOM     17  N   UNL     1       5.752   5.090  15.839  0.00  0.00    +0.000 N 
ATOM     18  C   UNL     1       5.186   6.378  15.922  0.00  0.00    +0.000 C 
ATOM     19  O   UNL     1       5.106   7.050  14.879  0.00  0.00    +0.000 OA
BRANCH  17  20
ATOM     20  C   UNL     1       6.170   4.365  17.026  0.00  0.00    +0.000 C 
BRANCH  20  21
ATOM     21  C   UNL     1       7.604   4.688  17.435  0.00  0.00    +0.000 C 
BRANCH  21  23
ATOM     22  C   UNL     1       7.878   5.576  19.751  0.00  0.00    +0.000 C 
ATOM     23  C   UNL     1       7.679   5.943  18.292  0.00  0.00    +0.000 C 
ENDBRANCH  21  23
ENDBRANCH  20  21
ENDBRANCH  17  20
BRANCH  17  24
ATOM     24  C   UNL     1       6.431   4.730  14.538  0.00  0.00    +0.000 C 
BRANCH  24  25
ATOM     25  C   UNL     1       5.852   3.851  13.392  0.00  0.00    +0.000 C 
ATOM     26  O   UNL     1       4.644   3.899  13.103  0.00  0.00    +0.000 OA
ATOM     27  N   UNL     1       6.686   2.953  12.766  0.00  0.00    +0.000 N 
ATOM     28  H   UNL     1       7.679   3.093  12.691  0.00  0.00    +0.000 HD
BRANCH  27  29
ATOM     29  O   UNL     1       6.076   2.245  11.686  0.00  0.00    +0.000 OA
ATOM     30  H   UNL     1       5.125   2.256  11.903  0.00  0.00    +0.000 HD
ENDBRANCH  27  29
ENDBRANCH  24  25
ENDBRANCH  17  24
ENDBRANCH  16  18
ENDBRANCH   1  16
BRANCH   1  31
ATOM     31  C   UNL     1       2.583   5.739  17.945  0.00  0.00    +0.000 C 
BRANCH  31  32
ATOM     32  C   UNL     1       3.003   4.703  19.004  0.00  0.00    +0.000 C 
ATOM     33  C   UNL     1       2.276   4.942  20.324  0.00  0.00    +0.000 C 
ATOM     34  C   UNL     1       1.076   4.083  20.660  0.00  0.00    +0.000 C 
ATOM     35  C   UNL     1       0.979   2.691  20.070  0.00  0.00    +0.000 C 
ATOM     36  C   UNL     1       1.864   2.325  18.893  0.00  0.00    +0.000 C 
ATOM     37  C   UNL     1       3.003   3.253  18.502  0.00  0.00    +0.000 C 
ENDBRANCH  31  32
ENDBRANCH   1  31
TORSDOF 12
ENDMDL
MODEL 5
REMARK VINA RESULT:      -8.3      1.005      1.383
REMARK  Name = 
REMARK  14 active torsions:
REMARK  status: ('A' for Active; 'I' for Inactive)
REMARK    1  A    between atoms: C_1  and  C_2
REMARK    2  A    between atoms: C_2  and  C_3
REMARK    3  A    between atoms: C_3  and  C_4
REMARK    4  A    between atoms: C_4  and  N_5
REMARK    5  A    between atoms: N_5  and  C_6
REMARK    6  A    between atoms: C_6  and  C_7
REMARK    7  A    between atoms: N_9  and  O_10
REMARK    8  A    between atoms: C_11  and  C_13
REMARK    9  A    between atoms: C_13  and  N_14
REMARK   10  A    between atoms: N_14  and  C_15
REMARK   11  A    between atoms: C_15  and  C_16
REMARK   12  A    between atoms: N_24  and  C_25
REMARK   13  A    between atoms: C_28  and  N_29
REMARK   14  A    between atoms: C_33  and  C_34
REMARK                            x       y       z     vdW  Elec       q    Type
REMARK                         _______ _______ _______ _____ _____    ______ ____
ROOT
ATOM      1  N   UNL     1       3.483   7.214  18.337  0.00  0.00    +0.000 N 
ATOM      2  C   UNL     1       2.415   8.125  18.346  0.00  0.00    +0.000 C 
ATOM      3  O   UNL     1       2.125   8.788  17.357  0.00  0.00    +0.000 OA
ATOM      4  N   UNL     1       1.841   8.291  19.613  0.00  0.00    +0.000 N 
ATOM      5  H   UNL     1       2.448   8.057  20.380  0.00  0.00    +0.000 HD
ENDROOT
BRANCH   4   6
ATOM      6  C   UNL     1       0.832   9.258  19.856  0.00  0.00    +0.000 A 
ATOM      7  C   UNL     1       0.130   9.828  18.783  0.00  0.00    +0.000 A 
ATOM      8  C   UNL     1      -0.819  10.833  18.995  0.00  0.00    +0.000 A 
ATOM      9  C   UNL     1      -1.078  11.268  20.298  0.00  0.00    +0.000 A 
ATOM     10  C   UNL     1      -0.418  10.678  21.383  0.00  0.00    +0.000 A 
ATOM     11  C   UNL     1       0.542   9.665  21.174  0.00  0.00    +0.000 A 
ATOM     12  C   UNL     1       1.267   9.112  22.371  0.00  0.00    +0.000 C 
BRANCH   9  13
ATOM     13  N   UNL     1      -2.030  12.363  20.523  0.00  0.00    +0.000 N 
ATOM     14  O   UNL     1      -1.916  13.025  21.565  0.00  0.00    +0.000 OA
ATOM     15  O   UNL     1      -2.896  12.558  19.659  0.00  0.00    +0.000 OA
ENDBRANCH   9  13
ENDBRANCH   4   6
BRANCH   1  16
ATOM     16  C   UNL     1       4.277   7.166  17.066  0.00  0.00    +0.000 C 
BRANCH  16  18
ATOM     17  N   UNL     1       5.842   4.976  16.838  0.00  0.00    +0.000 N 
ATOM     18  C   UNL     1       5.087   6.024  16.275  0.00  0.00    +0.000 C 
ATOM     19  O   UNL     1       5.027   6.101  15.036  0.00  0.00    +0.000 OA
BRANCH  17  20
ATOM     20  C   UNL     1       6.225   4.983  18.240  0.00  0.00    +0.000 C 
BRANCH  20  21
ATOM     21  C   UNL     1       7.729   5.145  18.435  0.00  0.00    +0.000 C 
BRANCH  21  23
ATOM     22  C   UNL     1       7.856   7.556  17.803  0.00  0.00    +0.000 C 
ATOM     23  C   UNL     1       8.091   6.545  18.911  0.00  0.00    +0.000 C 
ENDBRANCH  21  23
ENDBRANCH  20  21
ENDBRANCH  17  20
BRANCH  17  24
ATOM     24  C   UNL     1       6.709   4.180  15.892  0.00  0.00    +0.000 C 
BRANCH  24  25
ATOM     25  C   UNL     1       7.048   4.530  14.414  0.00  0.00    +0.000 C 
ATOM     26  O   UNL     1       6.520   3.908  13.477  0.00  0.00    +0.000 OA
ATOM     27  N   UNL     1       8.013   5.479  14.167  0.00  0.00    +0.000 N 
ATOM     28  H   UNL     1       8.215   6.230  14.805  0.00  0.00    +0.000 HD
BRANCH  27  29
ATOM     29  O   UNL     1       8.201   5.774  12.782  0.00  0.00    +0.000 OA
ATOM     30  H   UNL     1       7.404   6.280  12.538  0.00  0.00    +0.000 HD
ENDBRANCH  27  29
ENDBRANCH  24  25
ENDBRANCH  17  24
ENDBRANCH  16  18
ENDBRANCH   1  16
BRANCH   1  31
ATOM     31  C   UNL     1       3.287   5.924  19.065  0.00  0.00    +0.000 C 
BRANCH  31  32
ATOM     32  C   UNL     1       1.930   5.265  18.753  0.00  0.00    +0.000 C 
ATOM     33  C   UNL     1       2.056   4.264  17.609  0.00  0.00    +0.000 C 
ATOM     34  C   UNL     1       2.149   2.790  17.939  0.00  0.00    +0.000 C 
ATOM     35  C   UNL     1       1.528   2.283  19.224  0.00  0.00    +0.000 C 
ATOM     36  C   UNL     1       1.162   3.278  20.310  0.00  0.00    +0.000 C 
ATOM     37  C   UNL     1       1.175   4.765  19.991  0.00  0.00    +0.000 C 
ENDBRANCH  31  32
ENDBRANCH   1  31
TORSDOF 12
ENDMDL
MODEL 6
REMARK VINA RESULT:      -8.3      1.073      1.781
REMARK  Name = 
REMARK  14 active torsions:
REMARK  status: ('A' for Active; 'I' for Inactive)
REMARK    1  A    between atoms: C_1  and  C_2
REMARK    2  A    between atoms: C_2  and  C_3
REMARK    3  A    between atoms: C_3  and  C_4
REMARK    4  A    between atoms: C_4  and  N_5
REMARK    5  A    between atoms: N_5  and  C_6
REMARK    6  A    between atoms: C_6  and  C_7
REMARK    7  A    between atoms: N_9  and  O_10
REMARK    8  A    between atoms: C_11  and  C_13
REMARK    9  A    between atoms: C_13  and  N_14
REMARK   10  A    between atoms: N_14  and  C_15
REMARK   11  A    between atoms: C_15  and  C_16
REMARK   12  A    between atoms: N_24  and  C_25
REMARK   13  A    between atoms: C_28  and  N_29
REMARK   14  A    between atoms: C_33  and  C_34
REMARK                            x       y       z     vdW  Elec       q    Type
REMARK                         _______ _______ _______ _____ _____    ______ ____
ROOT
ATOM      1  N   UNL     1       2.997   7.394  18.396  0.00  0.00    +0.000 N 
ATOM      2  C   UNL     1       2.316   8.620  18.327  0.00  0.00    +0.000 C 
ATOM      3  O   UNL     1       2.666   9.508  17.558  0.00  0.00    +0.000 OA
ATOM      4  N   UNL     1       1.327   8.759  19.309  0.00  0.00    +0.000 N 
ATOM      5  H   UNL     1       1.464   8.183  20.122  0.00  0.00    +0.000 HD
ENDROOT
BRANCH   4   6
ATOM      6  C   UNL     1       0.614   9.973  19.485  0.00  0.00    +0.000 A 
ATOM      7  C   UNL     1       0.935  10.831  20.547  0.00  0.00    +0.000 A 
ATOM      8  C   UNL     1       0.199  11.997  20.781  0.00  0.00    +0.000 A 
ATOM      9  C   UNL     1      -0.867  12.315  19.935  0.00  0.00    +0.000 A 
ATOM     10  C   UNL     1      -1.174  11.491  18.844  0.00  0.00    +0.000 A 
ATOM     11  C   UNL     1      -0.434  10.313  18.606  0.00  0.00    +0.000 A 
ATOM     12  C   UNL     1      -0.848   9.432  17.458  0.00  0.00    +0.000 C 
BRANCH   9  13
ATOM     13  N   UNL     1      -1.682  13.506  20.208  0.00  0.00    +0.000 N 
ATOM     14  O   UNL     1      -1.189  14.615  19.961  0.00  0.00    +0.000 OA
ATOM     15  O   UNL     1      -2.816  13.330  20.677  0.00  0.00    +0.000 OA
ENDBRANCH   9  13
ENDBRANCH   4   6
BRANCH   1  16
ATOM     16  C   UNL     1       4.210   7.281  17.521  0.00  0.00    +0.000 C 
BRANCH  16  18
ATOM     17  N   UNL     1       6.315   5.601  17.318  0.00  0.00    +0.000 N 
ATOM     18  C   UNL     1       5.051   6.060  16.899  0.00  0.00    +0.000 C 
ATOM     19  O   UNL     1       4.507   5.482  15.943  0.00  0.00    +0.000 OA
BRANCH  17  20
ATOM     20  C   UNL     1       7.157   6.391  18.201  0.00  0.00    +0.000 C 
BRANCH  20  21
ATOM     21  C   UNL     1       7.658   7.672  17.542  0.00  0.00    +0.000 C 
BRANCH  21  23
ATOM     22  C   UNL     1       8.566   9.950  18.005  0.00  0.00    +0.000 C 
ATOM     23  C   UNL     1       8.481   8.518  18.503  0.00  0.00    +0.000 C 
ENDBRANCH  21  23
ENDBRANCH  20  21
ENDBRANCH  17  20
BRANCH  17  24
ATOM     24  C   UNL     1       7.007   4.603  16.420  0.00  0.00    +0.000 C 
BRANCH  24  25
ATOM     25  C   UNL     1       7.066   4.625  14.866  0.00  0.00    +0.000 C 
ATOM     26  O   UNL     1       7.709   5.504  14.267  0.00  0.00    +0.000 OA
ATOM     27  N   UNL     1       6.316   3.707  14.165  0.00  0.00    +0.000 N 
ATOM     28  H   UNL     1       6.074   2.804  14.537  0.00  0.00    +0.000 HD
BRANCH  27  29
ATOM     29  O   UNL     1       6.492   3.769  12.749  0.00  0.00    +0.000 OA
ATOM     30  H   UNL     1       7.334   4.248  12.636  0.00  0.00    +0.000 HD
ENDBRANCH  27  29
ENDBRANCH  24  25
ENDBRANCH  17  24
ENDBRANCH  16  18
ENDBRANCH   1  16
BRANCH   1  31
ATOM     31  C   UNL     1       2.170   6.162  18.573  0.00  0.00    +0.000 C 
BRANCH  31  32
ATOM     32  C   UNL     1       2.556   5.362  19.831  0.00  0.00    +0.000 C 
ATOM     33  C   UNL     1       1.316   4.889  20.583  0.00  0.00    +0.000 C 
ATOM     34  C   UNL     1       0.859   3.457  20.402  0.00  0.00    +0.000 C 
ATOM     35  C   UNL     1       1.879   2.399  20.034  0.00  0.00    +0.000 C 
ATOM     36  C   UNL     1       3.231   2.832  19.499  0.00  0.00    +0.000 C 
ATOM     37  C   UNL     1       3.633   4.296  19.592  0.00  0.00    +0.000 C 
ENDBRANCH  31  32
ENDBRANCH   1  31
TORSDOF 12
ENDMDL
MODEL 7
REMARK VINA RESULT:      -8.2      1.504      1.890
REMARK  Name = 
REMARK  14 active torsions:
REMARK  status: ('A' for Active; 'I' for Inactive)
REMARK    1  A    between atoms: C_1  and  C_2
REMARK    2  A    between atoms: C_2  and  C_3
REMARK    3  A    between atoms: C_3  and  C_4
REMARK    4  A    between atoms: C_4  and  N_5
REMARK    5  A    between atoms: N_5  and  C_6
REMARK    6  A    between atoms: C_6  and  C_7
REMARK    7  A    between atoms: N_9  and  O_10
REMARK    8  A    between atoms: C_11  and  C_13
REMARK    9  A    between atoms: C_13  and  N_14
REMARK   10  A    between atoms: N_14  and  C_15
REMARK   11  A    between atoms: C_15  and  C_16
REMARK   12  A    between atoms: N_24  and  C_25
REMARK   13  A    between atoms: C_28  and  N_29
REMARK   14  A    between atoms: C_33  and  C_34
REMARK                            x       y       z     vdW  Elec       q    Type
REMARK                         _______ _______ _______ _____ _____    ______ ____
ROOT
ATOM      1  N   UNL     1       3.156   6.891  18.129  0.00  0.00    +0.000 N 
ATOM      2  C   UNL     1       2.534   8.143  18.258  0.00  0.00    +0.000 C 
ATOM      3  O   UNL     1       3.041   9.163  17.807  0.00  0.00    +0.000 OA
ATOM      4  N   UNL     1       1.388   8.111  19.064  0.00  0.00    +0.000 N 
ATOM      5  H   UNL     1       1.360   7.346  19.717  0.00  0.00    +0.000 HD
ENDROOT
BRANCH   4   6
ATOM      6  C   UNL     1       0.690   9.293  19.418  0.00  0.00    +0.000 A 
ATOM      7  C   UNL     1       0.063  10.065  18.428  0.00  0.00    +0.000 A 
ATOM      8  C   UNL     1      -0.570  11.270  18.745  0.00  0.00    +0.000 A 
ATOM      9  C   UNL     1      -0.588  11.706  20.073  0.00  0.00    +0.000 A 
ATOM     10  C   UNL     1      -0.005  10.926  21.080  0.00  0.00    +0.000 A 
ATOM     11  C   UNL     1       0.637   9.710  20.764  0.00  0.00    +0.000 A 
ATOM     12  C   UNL     1       1.303   8.945  21.876  0.00  0.00    +0.000 C 
BRANCH   9  13
ATOM     13  N   UNL     1      -1.199  12.999  20.406  0.00  0.00    +0.000 N 
ATOM     14  O   UNL     1      -1.897  13.064  21.427  0.00  0.00    +0.000 OA
ATOM     15  O   UNL     1      -0.985  13.949  19.640  0.00  0.00    +0.000 OA
ENDBRANCH   9  13
ENDBRANCH   4   6
BRANCH   1  16
ATOM     16  C   UNL     1       4.503   6.906  17.470  0.00  0.00    +0.000 C 
BRANCH  16  18
ATOM     17  N   UNL     1       5.744   5.060  15.939  0.00  0.00    +0.000 N 
ATOM     18  C   UNL     1       5.106   6.305  16.107  0.00  0.00    +0.000 C 
ATOM     19  O   UNL     1       4.989   7.040  15.112  0.00  0.00    +0.000 OA
BRANCH  17  20
ATOM     20  C   UNL     1       6.202   4.280  17.076  0.00  0.00    +0.000 C 
BRANCH  20  21
ATOM     21  C   UNL     1       7.625   4.637  17.496  0.00  0.00    +0.000 C 
BRANCH  21  23
ATOM     22  C   UNL     1       7.989   6.925  18.423  0.00  0.00    +0.000 C 
ATOM     23  C   UNL     1       7.646   5.485  18.760  0.00  0.00    +0.000 C 
ENDBRANCH  21  23
ENDBRANCH  20  21
ENDBRANCH  17  20
BRANCH  17  24
ATOM     24  C   UNL     1       6.443   4.828  14.620  0.00  0.00    +0.000 C 
BRANCH  24  25
ATOM     25  C   UNL     1       5.967   3.911  13.456  0.00  0.00    +0.000 C 
ATOM     26  O   UNL     1       4.769   3.869  13.131  0.00  0.00    +0.000 OA
ATOM     27  N   UNL     1       6.885   3.079  12.856  0.00  0.00    +0.000 N 
ATOM     28  H   UNL     1       7.867   3.293  12.812  0.00  0.00    +0.000 HD
BRANCH  27  29
ATOM     29  O   UNL     1       6.363   2.330  11.759  0.00  0.00    +0.000 OA
ATOM     30  H   UNL     1       6.875   2.646  10.991  0.00  0.00    +0.000 HD
ENDBRANCH  27  29
ENDBRANCH  24  25
ENDBRANCH  17  24
ENDBRANCH  16  18
ENDBRANCH   1  16
BRANCH   1  31
ATOM     31  C   UNL     1       2.276   5.716  17.849  0.00  0.00    +0.000 C 
BRANCH  31  32
ATOM     32  C   UNL     1       2.136   4.775  19.060  0.00  0.00    +0.000 C 
ATOM     33  C   UNL     1       1.316   3.539  18.703  0.00  0.00    +0.000 C 
ATOM     34  C   UNL     1       2.044   2.248  18.397  0.00  0.00    +0.000 C 
ATOM     35  C   UNL     1       3.408   2.008  19.009  0.00  0.00    +0.000 C 
ATOM     36  C   UNL     1       4.169   3.181  19.598  0.00  0.00    +0.000 C 
ATOM     37  C   UNL     1       3.451   4.506  19.803  0.00  0.00    +0.000 C 
ENDBRANCH  31  32
ENDBRANCH   1  31
TORSDOF 12
ENDMDL
MODEL 8
REMARK VINA RESULT:      -8.2      1.529      2.317
REMARK  Name = 
REMARK  14 active torsions:
REMARK  status: ('A' for Active; 'I' for Inactive)
REMARK    1  A    between atoms: C_1  and  C_2
REMARK    2  A    between atoms: C_2  and  C_3
REMARK    3  A    between atoms: C_3  and  C_4
REMARK    4  A    between atoms: C_4  and  N_5
REMARK    5  A    between atoms: N_5  and  C_6
REMARK    6  A    between atoms: C_6  and  C_7
REMARK    7  A    between atoms: N_9  and  O_10
REMARK    8  A    between atoms: C_11  and  C_13
REMARK    9  A    between atoms: C_13  and  N_14
REMARK   10  A    between atoms: N_14  and  C_15
REMARK   11  A    between atoms: C_15  and  C_16
REMARK   12  A    between atoms: N_24  and  C_25
REMARK   13  A    between atoms: C_28  and  N_29
REMARK   14  A    between atoms: C_33  and  C_34
REMARK                            x       y       z     vdW  Elec       q    Type
REMARK                         _______ _______ _______ _____ _____    ______ ____
ROOT
ATOM      1  N   UNL     1       3.066   5.160  18.528  0.00  0.00    +0.000 N 
ATOM      2  C   UNL     1       2.944   6.526  18.833  0.00  0.00    +0.000 C 
ATOM      3  O   UNL     1       3.876   7.306  18.673  0.00  0.00    +0.000 OA
ATOM      4  N   UNL     1       1.733   6.847  19.459  0.00  0.00    +0.000 N 
ATOM      5  H   UNL     1       1.290   6.076  19.929  0.00  0.00    +0.000 HD
ENDROOT
BRANCH   4   6
ATOM      6  C   UNL     1       1.472   8.149  19.957  0.00  0.00    +0.000 A 
ATOM      7  C   UNL     1       1.409   8.375  21.340  0.00  0.00    +0.000 A 
ATOM      8  C   UNL     1       1.084   9.634  21.852  0.00  0.00    +0.000 A 
ATOM      9  C   UNL     1       0.826  10.687  20.969  0.00  0.00    +0.000 A 
ATOM     10  C   UNL     1       0.927  10.489  19.586  0.00  0.00    +0.000 A 
ATOM     11  C   UNL     1       1.254   9.219  19.065  0.00  0.00    +0.000 A 
ATOM     12  C   UNL     1       1.284   9.048  17.571  0.00  0.00    +0.000 C 
BRANCH   9  13
ATOM     13  N   UNL     1       0.426  11.997  21.497  0.00  0.00    +0.000 N 
ATOM     14  O   UNL     1       1.243  12.925  21.427  0.00  0.00    +0.000 OA
ATOM     15  O   UNL     1      -0.708  12.096  21.989  0.00  0.00    +0.000 OA
ENDBRANCH   9  13
ENDBRANCH   4   6
BRANCH   1  16
ATOM     16  C   UNL     1       4.423   4.721  18.066  0.00  0.00    +0.000 C 
BRANCH  16  18
ATOM     17  N   UNL     1       6.668   4.745  16.566  0.00  0.00    +0.000 N 
ATOM     18  C   UNL     1       5.276   4.901  16.716  0.00  0.00    +0.000 C 
ATOM     19  O   UNL     1       4.613   5.218  15.714  0.00  0.00    +0.000 OA
BRANCH  17  20
ATOM     20  C   UNL     1       7.556   4.687  17.715  0.00  0.00    +0.000 C 
BRANCH  20  21
ATOM     21  C   UNL     1       7.277   5.793  18.728  0.00  0.00    +0.000 C 
BRANCH  21  23
ATOM     22  C   UNL     1       7.561   8.000  17.596  0.00  0.00    +0.000 C 
ATOM     23  C   UNL     1       8.200   6.987  18.530  0.00  0.00    +0.000 C 
ENDBRANCH  21  23
ENDBRANCH  20  21
ENDBRANCH  17  20
BRANCH  17  24
ATOM     24  C   UNL     1       7.267   5.209  15.259  0.00  0.00    +0.000 C 
BRANCH  24  25
ATOM     25  C   UNL     1       7.097   4.543  13.863  0.00  0.00    +0.000 C 
ATOM     26  O   UNL     1       7.615   5.046  12.852  0.00  0.00    +0.000 OA
ATOM     27  N   UNL     1       6.285   3.436  13.757  0.00  0.00    +0.000 N 
ATOM     28  H   UNL     1       6.131   2.798  14.519  0.00  0.00    +0.000 HD
BRANCH  27  29
ATOM     29  O   UNL     1       6.249   2.862  12.449  0.00  0.00    +0.000 OA
ATOM     30  H   UNL     1       6.807   3.457  11.914  0.00  0.00    +0.000 HD
ENDBRANCH  27  29
ENDBRANCH  24  25
ENDBRANCH  17  24
ENDBRANCH  16  18
ENDBRANCH   1  16
BRANCH   1  31
ATOM     31  C   UNL     1       1.886   4.494  17.898  0.00  0.00    +0.000 C 
BRANCH  31  32
ATOM     32  C   UNL     1       1.332   3.337  18.750  0.00  0.00    +0.000 C 
ATOM     33  C   UNL     1       2.286   2.146  18.746  0.00  0.00    +0.000 C 
ATOM     34  C   UNL     1       3.200   1.943  19.935  0.00  0.00    +0.000 C 
ATOM     35  C   UNL     1       2.776   2.472  21.289  0.00  0.00    +0.000 C 
ATOM     36  C   UNL     1       1.656   3.493  21.365  0.00  0.00    +0.000 C 
ATOM     37  C   UNL     1       0.811   3.763  20.129  0.00  0.00    +0.000 C 
ENDBRANCH  31  32
ENDBRANCH   1  31
TORSDOF 12
ENDMDL
MODEL 9
REMARK VINA RESULT:      -8.1      1.025      1.468
REMARK  Name = 
REMARK  14 active torsions:
REMARK  status: ('A' for Active; 'I' for Inactive)
REMARK    1  A    between atoms: C_1  and  C_2
REMARK    2  A    between atoms: C_2  and  C_3
REMARK    3  A    between atoms: C_3  and  C_4
REMARK    4  A    between atoms: C_4  and  N_5
REMARK    5  A    between atoms: N_5  and  C_6
REMARK    6  A    between atoms: C_6  and  C_7
REMARK    7  A    between atoms: N_9  and  O_10
REMARK    8  A    between atoms: C_11  and  C_13
REMARK    9  A    between atoms: C_13  and  N_14
REMARK   10  A    between atoms: N_14  and  C_15
REMARK   11  A    between atoms: C_15  and  C_16
REMARK   12  A    between atoms: N_24  and  C_25
REMARK   13  A    between atoms: C_28  and  N_29
REMARK   14  A    between atoms: C_33  and  C_34
REMARK                            x       y       z     vdW  Elec       q    Type
REMARK                         _______ _______ _______ _____ _____    ______ ____
ROOT
ATOM      1  N   UNL     1       2.973   7.146  18.306  0.00  0.00    +0.000 N 
ATOM      2  C   UNL     1       2.266   8.358  18.366  0.00  0.00    +0.000 C 
ATOM      3  O   UNL     1       2.560   9.311  17.654  0.00  0.00    +0.000 OA
ATOM      4  N   UNL     1       1.323   8.397  19.401  0.00  0.00    +0.000 N 
ATOM      5  H   UNL     1       1.509   7.763  20.159  0.00  0.00    +0.000 HD
ENDROOT
BRANCH   4   6
ATOM      6  C   UNL     1       0.595   9.576  19.705  0.00  0.00    +0.000 A 
ATOM      7  C   UNL     1      -0.113  10.247  18.697  0.00  0.00    +0.000 A 
ATOM      8  C   UNL     1      -0.778  11.448  18.959  0.00  0.00    +0.000 A 
ATOM      9  C   UNL     1      -0.744  11.982  20.251  0.00  0.00    +0.000 A 
ATOM     10  C   UNL     1      -0.078  11.303  21.279  0.00  0.00    +0.000 A 
ATOM     11  C   UNL     1       0.595  10.091  21.018  0.00  0.00    +0.000 A 
ATOM     12  C   UNL     1       1.349   9.437  22.145  0.00  0.00    +0.000 C 
BRANCH   9  13
ATOM     13  N   UNL     1      -1.391  13.273  20.521  0.00  0.00    +0.000 N 
ATOM     14  O   UNL     1      -2.610  13.363  20.325  0.00  0.00    +0.000 OA
ATOM     15  O   UNL     1      -0.674  14.200  20.926  0.00  0.00    +0.000 OA
ENDBRANCH   9  13
ENDBRANCH   4   6
BRANCH   1  16
ATOM     16  C   UNL     1       4.144   7.129  17.369  0.00  0.00    +0.000 C 
BRANCH  16  18
ATOM     17  N   UNL     1       6.360   5.596  17.197  0.00  0.00    +0.000 N 
ATOM     18  C   UNL     1       5.083   5.983  16.746  0.00  0.00    +0.000 C 
ATOM     19  O   UNL     1       4.609   5.396  15.758  0.00  0.00    +0.000 OA
BRANCH  17  20
ATOM     20  C   UNL     1       7.119   6.415  18.126  0.00  0.00    +0.000 C 
BRANCH  20  21
ATOM     21  C   UNL     1       7.732   7.643  17.461  0.00  0.00    +0.000 C 
BRANCH  21  23
ATOM     22  C   UNL     1       8.414   9.964  18.075  0.00  0.00    +0.000 C 
ATOM     23  C   UNL     1       8.509   8.497  18.452  0.00  0.00    +0.000 C 
ENDBRANCH  21  23
ENDBRANCH  20  21
ENDBRANCH  17  20
BRANCH  17  24
ATOM     24  C   UNL     1       7.144   4.669  16.298  0.00  0.00    +0.000 C 
BRANCH  24  25
ATOM     25  C   UNL     1       7.201   4.697  14.743  0.00  0.00    +0.000 C 
ATOM     26  O   UNL     1       6.531   3.896  14.069  0.00  0.00    +0.000 OA
ATOM     27  N   UNL     1       8.076   5.566  14.133  0.00  0.00    +0.000 N 
ATOM     28  H   UNL     1       8.366   6.432  14.553  0.00  0.00    +0.000 HD
BRANCH  27  29
ATOM     29  O   UNL     1       8.003   5.561  12.706  0.00  0.00    +0.000 OA
ATOM     30  H   UNL     1       7.048   5.623  12.518  0.00  0.00    +0.000 HD
ENDBRANCH  27  29
ENDBRANCH  24  25
ENDBRANCH  17  24
ENDBRANCH  16  18
ENDBRANCH   1  16
BRANCH   1  31
ATOM     31  C   UNL     1       2.179   5.886  18.424  0.00  0.00    +0.000 C 
BRANCH  31  32
ATOM     32  C   UNL     1       2.602   5.026  19.629  0.00  0.00    +0.000 C 
ATOM     33  C   UNL     1       1.394   4.632  20.474  0.00  0.00    +0.000 C 
ATOM     34  C   UNL     1       0.810   3.246  20.306  0.00  0.00    +0.000 C 
ATOM     35  C   UNL     1       1.708   2.121  19.834  0.00  0.00    +0.000 C 
ATOM     36  C   UNL     1       3.042   2.460  19.195  0.00  0.00    +0.000 C 
ATOM     37  C   UNL     1       3.567   3.885  19.281  0.00  0.00    +0.000 C 
ENDBRANCH  31  32
ENDBRANCH   1  31
TORSDOF 12
ENDMDL
