MODEL 1
REMARK VINA RESULT:      -9.0      0.000      0.000
REMARK  Name = 
REMARK  8 active torsions:
REMARK  status: ('A' for Active; 'I' for Inactive)
REMARK    1  A    between atoms: C_1  and  C_2
REMARK    2  A    between atoms: C_4  and  N_5
REMARK    3  A    between atoms: C_10  and  C_11
REMARK    4  A    between atoms: C_17  and  C_18
REMARK    5  A    between atoms: C_21  and  C_22
REMARK    6  A    between atoms: C_22  and  C_24
REMARK    7  A    between atoms: C_27  and  C_28
REMARK    8  A    between atoms: C_28  and  O_30
REMARK                            x       y       z     vdW  Elec       q    Type
REMARK                         _______ _______ _______ _____ _____    ______ ____
ROOT
ATOM      1  C   UNL     1       1.005  14.395  19.222  0.00  0.00    +0.000 C 
ATOM      2  C   UNL     1       0.331  13.086  18.938  0.00  0.00    +0.000 A 
ATOM      3  C   UNL     1      -0.957  13.033  18.381  0.00  0.00    +0.000 A 
ATOM      4  C   UNL     1      -1.586  11.808  18.120  0.00  0.00    +0.000 A 
ATOM      5  C   UNL     1      -0.919  10.641  18.518  0.00  0.00    +0.000 A 
ATOM      6  C   UNL     1       0.368  10.658  19.078  0.00  0.00    +0.000 A 
ATOM      7  C   UNL     1       0.991  11.893  19.263  0.00  0.00    +0.000 A 
ENDROOT
BRANCH   4   8
ATOM      8  N   UNL     1      -2.844  11.792  17.487  0.00  0.00    +0.000 N 
ATOM      9  C   UNL     1      -4.115  11.850  18.067  0.00  0.00    +0.000 A 
ATOM     10  N   UNL     1      -5.138  11.380  17.341  0.00  0.00    +0.000 NA
ATOM     11  C   UNL     1      -6.342  11.320  17.947  0.00  0.00    +0.000 A 
ATOM     12  C   UNL     1      -6.568  11.707  19.248  0.00  0.00    +0.000 A 
ATOM     13  C   UNL     1      -5.474  12.203  19.922  0.00  0.00    +0.000 A 
ATOM     14  N   UNL     1      -4.266  12.282  19.323  0.00  0.00    +0.000 NA
ATOM     15  H   UNL     1      -2.908  11.277  16.621  0.00  0.00    +0.000 HD
BRANCH  13  16
ATOM     16  C   UNL     1      -5.565  12.645  21.369  0.00  0.00    +0.000 C 
ATOM     17  F   UNL     1      -5.766  13.988  21.510  0.00  0.00    +0.000 F 
ATOM     18  F   UNL     1      -6.591  12.050  22.044  0.00  0.00    +0.000 F 
ATOM     19  F   UNL     1      -4.438  12.367  22.086  0.00  0.00    +0.000 F 
ENDBRANCH  13  16
ENDBRANCH   4   8
BRANCH   6  20
ATOM     20  C   UNL     1       1.047   9.415  19.454  0.00  0.00    +0.000 A 
ATOM     21  C   UNL     1       1.058   8.733  20.656  0.00  0.00    +0.000 A 
ATOM     22  N   UNL     1       1.792   7.560  20.688  0.00  0.00    +0.000 NA
ATOM     23  C   UNL     1       2.338   7.347  19.507  0.00  0.00    +0.000 A 
ATOM     24  S   UNL     1       1.983   8.534  18.314  0.00  0.00    +0.000 S 
BRANCH  23  25
ATOM     25  C   UNL     1       3.201   6.159  19.165  0.00  0.00    +0.000 C 
ATOM     26  F   UNL     1       2.652   4.994  19.612  0.00  0.00    +0.000 F 
BRANCH  25  27
ATOM     27  C   UNL     1       3.507   6.047  17.653  0.00  0.00    +0.000 C 
ATOM     28  C   UNL     1       4.777   6.828  17.273  0.00  0.00    +0.000 C 
ATOM     29  C   UNL     1       6.078   6.164  17.727  0.00  0.00    +0.000 C 
ATOM     30  C   UNL     1       6.182   4.667  17.406  0.00  0.00    +0.000 C 
ATOM     31  C   UNL     1       4.884   3.881  17.613  0.00  0.00    +0.000 C 
ATOM     32  C   UNL     1       3.637   4.611  17.122  0.00  0.00    +0.000 C 
BRANCH  30  33
ATOM     33  C   UNL     1       6.720   4.426  16.005  0.00  0.00    +0.000 C 
ATOM     34  O   UNL     1       7.430   5.204  15.382  0.00  0.00    +0.000 OA
BRANCH  33  35
ATOM     35  O   UNL     1       6.321   3.243  15.484  0.00  0.00    +0.000 OA
ATOM     36  H   UNL     1       5.356   3.094  15.529  0.00  0.00    +0.000 HD
ENDBRANCH  33  35
ENDBRANCH  30  33
ENDBRANCH  25  27
ENDBRANCH  23  25
ENDBRANCH   6  20
TORSDOF 7
ENDMDL
MODEL 2
REMARK VINA RESULT:      -8.7      1.183      1.599
REMARK  Name = 
REMARK  8 active torsions:
REMARK  status: ('A' for Active; 'I' for Inactive)
REMARK    1  A    between atoms: C_1  and  C_2
REMARK    2  A    between atoms: C_4  and  N_5
REMARK    3  A    between atoms: C_10  and  C_11
REMARK    4  A    between atoms: C_17  and  C_18
REMARK    5  A    between atoms: C_21  and  C_22
REMARK    6  A    between atoms: C_22  and  C_24
REMARK    7  A    between atoms: C_27  and  C_28
REMARK    8  A    between atoms: C_28  and  O_30
REMARK                            x       y       z     vdW  Elec       q    Type
REMARK                         _______ _______ _______ _____ _____    ______ ____
ROOT
ATOM      1  C   UNL     1       1.887  14.243  18.495  0.00  0.00    +0.000 C 
ATOM      2  C   UNL     1       0.941  13.099  18.702  0.00  0.00    +0.000 A 
ATOM      3  C   UNL     1      -0.450  13.278  18.636  0.00  0.00    +0.000 A 
ATOM      4  C   UNL     1      -1.331  12.206  18.834  0.00  0.00    +0.000 A 
ATOM      5  C   UNL     1      -0.775  10.969  19.188  0.00  0.00    +0.000 A 
ATOM      6  C   UNL     1       0.610  10.755  19.264  0.00  0.00    +0.000 A 
ATOM      7  C   UNL     1       1.459  11.830  18.996  0.00  0.00    +0.000 A 
ENDROOT
BRANCH   4   8
ATOM      8  N   UNL     1      -2.717  12.406  18.681  0.00  0.00    +0.000 N 
ATOM      9  C   UNL     1      -3.700  12.511  19.669  0.00  0.00    +0.000 A 
ATOM     10  N   UNL     1      -4.962  12.254  19.304  0.00  0.00    +0.000 NA
ATOM     11  C   UNL     1      -5.890  12.231  20.282  0.00  0.00    +0.000 A 
ATOM     12  C   UNL     1      -5.612  12.453  21.611  0.00  0.00    +0.000 A 
ATOM     13  C   UNL     1      -4.297  12.736  21.907  0.00  0.00    +0.000 A 
ATOM     14  N   UNL     1      -3.360  12.776  20.935  0.00  0.00    +0.000 NA
ATOM     15  H   UNL     1      -3.139  12.027  17.845  0.00  0.00    +0.000 HD
BRANCH  13  16
ATOM     16  C   UNL     1      -3.836  12.977  23.330  0.00  0.00    +0.000 C 
ATOM     17  F   UNL     1      -4.849  12.918  24.243  0.00  0.00    +0.000 F 
ATOM     18  F   UNL     1      -2.911  12.067  23.752  0.00  0.00    +0.000 F 
ATOM     19  F   UNL     1      -3.259  14.202  23.506  0.00  0.00    +0.000 F 
ENDBRANCH  13  16
ENDBRANCH   4   8
BRANCH   6  20
ATOM     20  C   UNL     1       1.156   9.439  19.607  0.00  0.00    +0.000 A 
ATOM     21  C   UNL     1       1.118   8.741  20.800  0.00  0.00    +0.000 A 
ATOM     22  N   UNL     1       1.718   7.495  20.799  0.00  0.00    +0.000 NA
ATOM     23  C   UNL     1       2.212   7.241  19.603  0.00  0.00    +0.000 A 
ATOM     24  S   UNL     1       1.963   8.478  18.434  0.00  0.00    +0.000 S 
BRANCH  23  25
ATOM     25  C   UNL     1       2.930   5.971  19.225  0.00  0.00    +0.000 C 
ATOM     26  F   UNL     1       2.225   4.865  19.598  0.00  0.00    +0.000 F 
BRANCH  25  27
ATOM     27  C   UNL     1       3.268   5.891  17.718  0.00  0.00    +0.000 C 
ATOM     28  C   UNL     1       4.566   6.649  17.388  0.00  0.00    +0.000 C 
ATOM     29  C   UNL     1       5.839   5.940  17.853  0.00  0.00    +0.000 C 
ATOM     30  C   UNL     1       5.913   4.450  17.495  0.00  0.00    +0.000 C 
ATOM     31  C   UNL     1       4.592   3.692  17.651  0.00  0.00    +0.000 C 
ATOM     32  C   UNL     1       3.375   4.466  17.151  0.00  0.00    +0.000 C 
BRANCH  30  33
ATOM     33  C   UNL     1       6.477   4.232  16.100  0.00  0.00    +0.000 C 
ATOM     34  O   UNL     1       6.018   3.460  15.269  0.00  0.00    +0.000 OA
BRANCH  33  35
ATOM     35  O   UNL     1       7.577   4.981  15.854  0.00  0.00    +0.000 OA
ATOM     36  H   UNL     1       7.985   4.814  14.983  0.00  0.00    +0.000 HD
ENDBRANCH  33  35
ENDBRANCH  30  33
ENDBRANCH  25  27
ENDBRANCH  23  25
ENDBRANCH   6  20
TORSDOF 7
ENDMDL
MODEL 3
REMARK VINA RESULT:      -8.7      1.251      1.508
REMARK  Name = 
REMARK  8 active torsions:
REMARK  status: ('A' for Active; 'I' for Inactive)
REMARK    1  A    between atoms: C_1  and  C_2
REMARK    2  A    between atoms: C_4  and  N_5
REMARK    3  A    between atoms: C_10  and  C_11
REMARK    4  A    between atoms: C_17  and  C_18
REMARK    5  A    between atoms: C_21  and  C_22
REMARK    6  A    between atoms: C_22  and  C_24
REMARK    7  A    between atoms: C_27  and  C_28
REMARK    8  A    between atoms: C_28  and  O_30
REMARK                            x       y       z     vdW  Elec       q    Type
REMARK                         _______ _______ _______ _____ _____    ______ ____
ROOT
ATOM      1  C   UNL     1       1.605  14.382  18.859  0.00  0.00    +0.000 C 
ATOM      2  C   UNL     1       0.731  13.164  18.853  0.00  0.00    +0.000 A 
ATOM      3  C   UNL     1      -0.665  13.266  18.738  0.00  0.00    +0.000 A 
ATOM      4  C   UNL     1      -1.480  12.126  18.736  0.00  0.00    +0.000 A 
ATOM      5  C   UNL     1      -0.857  10.886  18.943  0.00  0.00    +0.000 A 
ATOM      6  C   UNL     1       0.534  10.748  19.062  0.00  0.00    +0.000 A 
ATOM      7  C   UNL     1       1.320  11.900  18.993  0.00  0.00    +0.000 A 
ENDROOT
BRANCH   4   8
ATOM      8  N   UNL     1      -2.868  12.261  18.538  0.00  0.00    +0.000 N 
ATOM      9  C   UNL     1      -3.879  12.383  19.495  0.00  0.00    +0.000 A 
ATOM     10  N   UNL     1      -5.121  12.055  19.115  0.00  0.00    +0.000 NA
ATOM     11  C   UNL     1      -6.073  12.051  20.071  0.00  0.00    +0.000 A 
ATOM     12  C   UNL     1      -5.838  12.360  21.391  0.00  0.00    +0.000 A 
ATOM     13  C   UNL     1      -4.543  12.711  21.702  0.00  0.00    +0.000 A 
ATOM     14  N   UNL     1      -3.583  12.733  20.751  0.00  0.00    +0.000 NA
ATOM     15  H   UNL     1      -3.253  11.818  17.717  0.00  0.00    +0.000 HD
BRANCH  13  16
ATOM     16  C   UNL     1      -4.129  13.052  23.119  0.00  0.00    +0.000 C 
ATOM     17  F   UNL     1      -3.298  14.133  23.192  0.00  0.00    +0.000 F 
ATOM     18  F   UNL     1      -5.189  13.351  23.925  0.00  0.00    +0.000 F 
ATOM     19  F   UNL     1      -3.463  12.037  23.741  0.00  0.00    +0.000 F 
ENDBRANCH  13  16
ENDBRANCH   4   8
BRANCH   6  20
ATOM     20  C   UNL     1       1.152   9.432  19.247  0.00  0.00    +0.000 A 
ATOM     21  C   UNL     1       1.269   8.654  20.383  0.00  0.00    +0.000 A 
ATOM     22  N   UNL     1       1.900   7.432  20.225  0.00  0.00    +0.000 NA
ATOM     23  C   UNL     1       2.261   7.279  18.966  0.00  0.00    +0.000 A 
ATOM     24  S   UNL     1       1.846   8.583  17.925  0.00  0.00    +0.000 S 
BRANCH  23  25
ATOM     25  C   UNL     1       2.966   6.064  18.420  0.00  0.00    +0.000 C 
ATOM     26  F   UNL     1       2.102   5.228  17.776  0.00  0.00    +0.000 F 
BRANCH  25  27
ATOM     27  C   UNL     1       4.147   6.417  17.486  0.00  0.00    +0.000 C 
ATOM     28  C   UNL     1       5.421   6.746  18.283  0.00  0.00    +0.000 C 
ATOM     29  C   UNL     1       6.099   5.526  18.908  0.00  0.00    +0.000 C 
ATOM     30  C   UNL     1       6.284   4.335  17.959  0.00  0.00    +0.000 C 
ATOM     31  C   UNL     1       5.097   4.077  17.026  0.00  0.00    +0.000 C 
ATOM     32  C   UNL     1       4.488   5.347  16.437  0.00  0.00    +0.000 C 
BRANCH  30  33
ATOM     33  C   UNL     1       7.566   4.451  17.150  0.00  0.00    +0.000 C 
ATOM     34  O   UNL     1       7.656   4.971  16.046  0.00  0.00    +0.000 OA
BRANCH  33  35
ATOM     35  O   UNL     1       8.633   3.900  17.773  0.00  0.00    +0.000 OA
ATOM     36  H   UNL     1       9.282   4.551  18.102  0.00  0.00    +0.000 HD
ENDBRANCH  33  35
ENDBRANCH  30  33
ENDBRANCH  25  27
ENDBRANCH  23  25
ENDBRANCH   6  20
TORSDOF 7
ENDMDL
MODEL 4
REMARK VINA RESULT:      -8.6      5.229     11.374
REMARK  Name = 
REMARK  8 active torsions:
REMARK  status: ('A' for Active; 'I' for Inactive)
REMARK    1  A    between atoms: C_1  and  C_2
REMARK    2  A    between atoms: C_4  and  N_5
REMARK    3  A    between atoms: C_10  and  C_11
REMARK    4  A    between atoms: C_17  and  C_18
REMARK    5  A    between atoms: C_21  and  C_22
REMARK    6  A    between atoms: C_22  and  C_24
REMARK    7  A    between atoms: C_27  and  C_28
REMARK    8  A    between atoms: C_28  and  O_30
REMARK                            x       y       z     vdW  Elec       q    Type
REMARK                         _______ _______ _______ _____ _____    ______ ____
ROOT
ATOM      1  C   UNL     1       3.463   2.193  17.804  0.00  0.00    +0.000 C 
ATOM      2  C   UNL     1       3.810   3.632  17.567  0.00  0.00    +0.000 A 
ATOM      3  C   UNL     1       4.890   3.999  16.748  0.00  0.00    +0.000 A 
ATOM      4  C   UNL     1       5.214   5.346  16.532  0.00  0.00    +0.000 A 
ATOM      5  C   UNL     1       4.475   6.309  17.235  0.00  0.00    +0.000 A 
ATOM      6  C   UNL     1       3.391   5.977  18.061  0.00  0.00    +0.000 A 
ATOM      7  C   UNL     1       3.056   4.629  18.201  0.00  0.00    +0.000 A 
ENDROOT
BRANCH   4   8
ATOM      8  N   UNL     1       6.253   5.678  15.642  0.00  0.00    +0.000 N 
ATOM      9  C   UNL     1       6.494   5.187  14.356  0.00  0.00    +0.000 A 
ATOM     10  N   UNL     1       7.743   5.297  13.885  0.00  0.00    +0.000 NA
ATOM     11  C   UNL     1       8.003   4.710  12.698  0.00  0.00    +0.000 A 
ATOM     12  C   UNL     1       7.070   4.018  11.962  0.00  0.00    +0.000 A 
ATOM     13  C   UNL     1       5.803   3.968  12.498  0.00  0.00    +0.000 A 
ATOM     14  N   UNL     1       5.525   4.564  13.678  0.00  0.00    +0.000 NA
ATOM     15  H   UNL     1       7.135   5.944  16.056  0.00  0.00    +0.000 HD
BRANCH  13  16
ATOM     16  C   UNL     1       4.677   3.220  11.812  0.00  0.00    +0.000 C 
ATOM     17  F   UNL     1       4.200   3.861  10.705  0.00  0.00    +0.000 F 
ATOM     18  F   UNL     1       5.048   1.979  11.384  0.00  0.00    +0.000 F 
ATOM     19  F   UNL     1       3.593   3.027  12.618  0.00  0.00    +0.000 F 
ENDBRANCH  13  16
ENDBRANCH   4   8
BRANCH   6  20
ATOM     20  C   UNL     1       2.622   7.014  18.756  0.00  0.00    +0.000 A 
ATOM     21  C   UNL     1       2.144   7.052  20.052  0.00  0.00    +0.000 A 
ATOM     22  N   UNL     1       1.460   8.197  20.419  0.00  0.00    +0.000 NA
ATOM     23  C   UNL     1       1.420   9.035  19.401  0.00  0.00    +0.000 A 
ATOM     24  S   UNL     1       2.211   8.488  17.975  0.00  0.00    +0.000 S 
BRANCH  23  25
ATOM     25  C   UNL     1       0.764  10.391  19.435  0.00  0.00    +0.000 C 
ATOM     26  F   UNL     1       0.992  11.088  18.285  0.00  0.00    +0.000 F 
BRANCH  25  27
ATOM     27  C   UNL     1      -0.756  10.323  19.712  0.00  0.00    +0.000 C 
ATOM     28  C   UNL     1      -1.387  11.726  19.751  0.00  0.00    +0.000 C 
ATOM     29  C   UNL     1      -1.526  12.387  18.380  0.00  0.00    +0.000 C 
ATOM     30  C   UNL     1      -2.135  11.492  17.292  0.00  0.00    +0.000 C 
ATOM     31  C   UNL     1      -1.656  10.038  17.325  0.00  0.00    +0.000 C 
ATOM     32  C   UNL     1      -1.557   9.453  18.731  0.00  0.00    +0.000 C 
BRANCH  30  33
ATOM     33  C   UNL     1      -3.654  11.540  17.307  0.00  0.00    +0.000 C 
ATOM     34  O   UNL     1      -4.384  10.925  16.541  0.00  0.00    +0.000 OA
BRANCH  33  35
ATOM     35  O   UNL     1      -4.146  12.360  18.263  0.00  0.00    +0.000 OA
ATOM     36  H   UNL     1      -3.870  12.124  19.170  0.00  0.00    +0.000 HD
ENDBRANCH  33  35
ENDBRANCH  30  33
ENDBRANCH  25  27
ENDBRANCH  23  25
ENDBRANCH   6  20
TORSDOF 7
ENDMDL
MODEL 5
REMARK VINA RESULT:      -8.5      5.100     10.793
REMARK  Name = 
REMARK  8 active torsions:
REMARK  status: ('A' for Active; 'I' for Inactive)
REMARK    1  A    between atoms: C_1  and  C_2
REMARK    2  A    between atoms: C_4  and  N_5
REMARK    3  A    between atoms: C_10  and  C_11
REMARK    4  A    between atoms: C_17  and  C_18
REMARK    5  A    between atoms: C_21  and  C_22
REMARK    6  A    between atoms: C_22  and  C_24
REMARK    7  A    between atoms: C_27  and  C_28
REMARK    8  A    between atoms: C_28  and  O_30
REMARK                            x       y       z     vdW  Elec       q    Type
REMARK                         _______ _______ _______ _____ _____    ______ ____
ROOT
ATOM      1  C   UNL     1       1.849   2.463  21.938  0.00  0.00    +0.000 C 
ATOM      2  C   UNL     1       2.288   3.410  20.861  0.00  0.00    +0.000 A 
ATOM      3  C   UNL     1       3.151   2.998  19.832  0.00  0.00    +0.000 A 
ATOM      4  C   UNL     1       3.562   3.888  18.830  0.00  0.00    +0.000 A 
ATOM      5  C   UNL     1       3.152   5.224  18.943  0.00  0.00    +0.000 A 
ATOM      6  C   UNL     1       2.291   5.668  19.958  0.00  0.00    +0.000 A 
ATOM      7  C   UNL     1       1.849   4.740  20.902  0.00  0.00    +0.000 A 
ENDROOT
BRANCH   4   8
ATOM      8  N   UNL     1       4.363   3.420  17.770  0.00  0.00    +0.000 N 
ATOM      9  C   UNL     1       5.388   4.085  17.089  0.00  0.00    +0.000 A 
ATOM     10  N   UNL     1       5.696   3.638  15.866  0.00  0.00    +0.000 NA
ATOM     11  C   UNL     1       6.595   4.355  15.160  0.00  0.00    +0.000 A 
ATOM     12  C   UNL     1       7.198   5.502  15.624  0.00  0.00    +0.000 A 
ATOM     13  C   UNL     1       6.849   5.886  16.900  0.00  0.00    +0.000 A 
ATOM     14  N   UNL     1       5.961   5.168  17.623  0.00  0.00    +0.000 NA
ATOM     15  H   UNL     1       3.938   2.754  17.142  0.00  0.00    +0.000 HD
BRANCH  13  16
ATOM     16  C   UNL     1       7.412   7.141  17.535  0.00  0.00    +0.000 C 
ATOM     17  F   UNL     1       6.456   8.068  17.838  0.00  0.00    +0.000 F 
ATOM     18  F   UNL     1       8.068   6.897  18.706  0.00  0.00    +0.000 F 
ATOM     19  F   UNL     1       8.309   7.790  16.736  0.00  0.00    +0.000 F 
ENDBRANCH  13  16
ENDBRANCH   4   8
BRANCH   6  20
ATOM     20  C   UNL     1       1.858   7.067  20.026  0.00  0.00    +0.000 A 
ATOM     21  C   UNL     1       1.305   7.779  21.073  0.00  0.00    +0.000 A 
ATOM     22  N   UNL     1       1.018   9.110  20.825  0.00  0.00    +0.000 NA
ATOM     23  C   UNL     1       1.357   9.412  19.586  0.00  0.00    +0.000 A 
ATOM     24  S   UNL     1       2.042   8.120  18.681  0.00  0.00    +0.000 S 
BRANCH  23  25
ATOM     25  C   UNL     1       1.198  10.776  18.964  0.00  0.00    +0.000 C 
ATOM     26  F   UNL     1       0.116  10.827  18.135  0.00  0.00    +0.000 F 
BRANCH  25  27
ATOM     27  C   UNL     1       1.110  11.913  20.009  0.00  0.00    +0.000 C 
ATOM     28  C   UNL     1       2.028  13.092  19.642  0.00  0.00    +0.000 C 
ATOM     29  C   UNL     1       1.520  13.938  18.473  0.00  0.00    +0.000 C 
ATOM     30  C   UNL     1       0.042  14.342  18.565  0.00  0.00    +0.000 C 
ATOM     31  C   UNL     1      -0.885  13.242  19.089  0.00  0.00    +0.000 C 
ATOM     32  C   UNL     1      -0.306  12.454  20.262  0.00  0.00    +0.000 C 
BRANCH  30  33
ATOM     33  C   UNL     1      -0.146  15.613  19.377  0.00  0.00    +0.000 C 
ATOM     34  O   UNL     1       0.714  16.137  20.071  0.00  0.00    +0.000 OA
BRANCH  33  35
ATOM     35  O   UNL     1      -1.394  16.124  19.272  0.00  0.00    +0.000 OA
ATOM     36  H   UNL     1      -1.508  16.747  18.528  0.00  0.00    +0.000 HD
ENDBRANCH  33  35
ENDBRANCH  30  33
ENDBRANCH  25  27
ENDBRANCH  23  25
ENDBRANCH   6  20
TORSDOF 7
ENDMDL
MODEL 6
REMARK VINA RESULT:      -8.4      2.625      3.047
REMARK  Name = 
REMARK  8 active torsions:
REMARK  status: ('A' for Active; 'I' for Inactive)
REMARK    1  A    between atoms: C_1  and  C_2
REMARK    2  A    between atoms: C_4  and  N_5
REMARK    3  A    between atoms: C_10  and  C_11
REMARK    4  A    between atoms: C_17  and  C_18
REMARK    5  A    between atoms: C_21  and  C_22
REMARK    6  A    between atoms: C_22  and  C_24
REMARK    7  A    between atoms: C_27  and  C_28
REMARK    8  A    between atoms: C_28  and  O_30
REMARK                            x       y       z     vdW  Elec       q    Type
REMARK                         _______ _______ _______ _____ _____    ______ ____
ROOT
ATOM      1  C   UNL     1       1.334  14.367  21.180  0.00  0.00    +0.000 C 
ATOM      2  C   UNL     1       0.553  13.221  20.610  0.00  0.00    +0.000 A 
ATOM      3  C   UNL     1      -0.852  13.210  20.633  0.00  0.00    +0.000 A 
ATOM      4  C   UNL     1      -1.578  12.136  20.102  0.00  0.00    +0.000 A 
ATOM      5  C   UNL     1      -0.852  11.035  19.628  0.00  0.00    +0.000 A 
ATOM      6  C   UNL     1       0.551  11.013  19.590  0.00  0.00    +0.000 A 
ATOM      7  C   UNL     1       1.242  12.128  20.067  0.00  0.00    +0.000 A 
ENDROOT
BRANCH   4   8
ATOM      8  N   UNL     1      -2.985  12.195  20.071  0.00  0.00    +0.000 N 
ATOM      9  C   UNL     1      -3.847  11.963  18.994  0.00  0.00    +0.000 A 
ATOM     10  N   UNL     1      -5.072  12.497  19.068  0.00  0.00    +0.000 NA
ATOM     11  C   UNL     1      -5.858  12.380  17.978  0.00  0.00    +0.000 A 
ATOM     12  C   UNL     1      -5.471  11.754  16.815  0.00  0.00    +0.000 A 
ATOM     13  C   UNL     1      -4.207  11.208  16.823  0.00  0.00    +0.000 A 
ATOM     14  N   UNL     1      -3.415  11.305  17.913  0.00  0.00    +0.000 NA
ATOM     15  H   UNL     1      -3.425  12.852  20.699  0.00  0.00    +0.000 HD
BRANCH  13  16
ATOM     16  C   UNL     1      -3.634  10.510  15.606  0.00  0.00    +0.000 C 
ATOM     17  F   UNL     1      -4.565  10.264  14.638  0.00  0.00    +0.000 F 
ATOM     18  F   UNL     1      -2.651  11.231  14.992  0.00  0.00    +0.000 F 
ATOM     19  F   UNL     1      -3.080   9.297  15.895  0.00  0.00    +0.000 F 
ENDBRANCH  13  16
ENDBRANCH   4   8
BRANCH   6  20
ATOM     20  C   UNL     1       1.277   9.856  19.059  0.00  0.00    +0.000 A 
ATOM     21  C   UNL     1       1.847   9.654  17.816  0.00  0.00    +0.000 A 
ATOM     22  N   UNL     1       2.488   8.443  17.625  0.00  0.00    +0.000 NA
ATOM     23  C   UNL     1       2.410   7.722  18.727  0.00  0.00    +0.000 A 
ATOM     24  S   UNL     1       1.579   8.473  20.032  0.00  0.00    +0.000 S 
BRANCH  23  25
ATOM     25  C   UNL     1       3.004   6.347  18.894  0.00  0.00    +0.000 C 
ATOM     26  F   UNL     1       2.079   5.451  19.341  0.00  0.00    +0.000 F 
BRANCH  25  27
ATOM     27  C   UNL     1       3.669   5.813  17.604  0.00  0.00    +0.000 C 
ATOM     28  C   UNL     1       4.831   6.714  17.150  0.00  0.00    +0.000 C 
ATOM     29  C   UNL     1       6.087   6.594  18.013  0.00  0.00    +0.000 C 
ATOM     30  C   UNL     1       6.531   5.155  18.308  0.00  0.00    +0.000 C 
ATOM     31  C   UNL     1       5.384   4.184  18.600  0.00  0.00    +0.000 C 
ATOM     32  C   UNL     1       4.175   4.364  17.686  0.00  0.00    +0.000 C 
BRANCH  30  33
ATOM     33  C   UNL     1       7.415   4.599  17.202  0.00  0.00    +0.000 C 
ATOM     34  O   UNL     1       7.206   4.731  16.004  0.00  0.00    +0.000 OA
BRANCH  33  35
ATOM     35  O   UNL     1       8.480   3.912  17.674  0.00  0.00    +0.000 OA
ATOM     36  H   UNL     1       9.005   4.400  18.338  0.00  0.00    +0.000 HD
ENDBRANCH  33  35
ENDBRANCH  30  33
ENDBRANCH  25  27
ENDBRANCH  23  25
ENDBRANCH   6  20
TORSDOF 7
ENDMDL
MODEL 7
REMARK VINA RESULT:      -8.4      2.201      2.851
REMARK  Name = 
REMARK  8 active torsions:
REMARK  status: ('A' for Active; 'I' for Inactive)
REMARK    1  A    between atoms: C_1  and  C_2
REMARK    2  A    between atoms: C_4  and  N_5
REMARK    3  A    between atoms: C_10  and  C_11
REMARK    4  A    between atoms: C_17  and  C_18
REMARK    5  A    between atoms: C_21  and  C_22
REMARK    6  A    between atoms: C_22  and  C_24
REMARK    7  A    between atoms: C_27  and  C_28
REMARK    8  A    between atoms: C_28  and  O_30
REMARK                            x       y       z     vdW  Elec       q    Type
REMARK                         _______ _______ _______ _____ _____    ______ ____
ROOT
ATOM      1  C   UNL     1      -0.177  14.615  22.641  0.00  0.00    +0.000 C 
ATOM      2  C   UNL     1      -0.703  13.559  21.716  0.00  0.00    +0.000 A 
ATOM      3  C   UNL     1      -1.971  13.671  21.123  0.00  0.00    +0.000 A 
ATOM      4  C   UNL     1      -2.460  12.680  20.261  0.00  0.00    +0.000 A 
ATOM      5  C   UNL     1      -1.675  11.531  20.084  0.00  0.00    +0.000 A 
ATOM      6  C   UNL     1      -0.404  11.387  20.662  0.00  0.00    +0.000 A 
ATOM      7  C   UNL     1       0.079  12.423  21.462  0.00  0.00    +0.000 A 
ENDROOT
BRANCH   4   8
ATOM      8  N   UNL     1      -3.702  12.863  19.622  0.00  0.00    +0.000 N 
ATOM      9  C   UNL     1      -4.986  12.807  20.173  0.00  0.00    +0.000 A 
ATOM     10  N   UNL     1      -6.000  12.570  19.331  0.00  0.00    +0.000 NA
ATOM     11  C   UNL     1      -7.220  12.391  19.878  0.00  0.00    +0.000 A 
ATOM     12  C   UNL     1      -7.471  12.438  21.231  0.00  0.00    +0.000 A 
ATOM     13  C   UNL     1      -6.383  12.711  22.031  0.00  0.00    +0.000 A 
ATOM     14  N   UNL     1      -5.159  12.906  21.494  0.00  0.00    +0.000 NA
ATOM     15  H   UNL     1      -3.756  12.590  18.651  0.00  0.00    +0.000 HD
BRANCH  13  16
ATOM     16  C   UNL     1      -6.501  12.769  23.540  0.00  0.00    +0.000 C 
ATOM     17  F   UNL     1      -7.025  13.944  23.995  0.00  0.00    +0.000 F 
ATOM     18  F   UNL     1      -7.304  11.790  24.049  0.00  0.00    +0.000 F 
ATOM     19  F   UNL     1      -5.301  12.634  24.177  0.00  0.00    +0.000 F 
ENDBRANCH  13  16
ENDBRANCH   4   8
BRANCH   6  20
ATOM     20  C   UNL     1       0.401  10.185  20.429  0.00  0.00    +0.000 A 
ATOM     21  C   UNL     1       0.871   9.240  21.321  0.00  0.00    +0.000 A 
ATOM     22  N   UNL     1       1.599   8.195  20.780  0.00  0.00    +0.000 NA
ATOM     23  C   UNL     1       1.681   8.343  19.472  0.00  0.00    +0.000 A 
ATOM     24  S   UNL     1       0.879   9.728  18.843  0.00  0.00    +0.000 S 
BRANCH  23  25
ATOM     25  C   UNL     1       2.393   7.390  18.546  0.00  0.00    +0.000 C 
ATOM     26  F   UNL     1       3.339   8.028  17.800  0.00  0.00    +0.000 F 
BRANCH  25  27
ATOM     27  C   UNL     1       3.029   6.189  19.283  0.00  0.00    +0.000 C 
ATOM     28  C   UNL     1       1.984   5.109  19.614  0.00  0.00    +0.000 C 
ATOM     29  C   UNL     1       1.519   4.298  18.403  0.00  0.00    +0.000 C 
ATOM     30  C   UNL     1       2.649   3.776  17.506  0.00  0.00    +0.000 C 
ATOM     31  C   UNL     1       3.796   4.767  17.288  0.00  0.00    +0.000 C 
ATOM     32  C   UNL     1       4.204   5.525  18.549  0.00  0.00    +0.000 C 
BRANCH  30  33
ATOM     33  C   UNL     1       3.196   2.448  18.002  0.00  0.00    +0.000 C 
ATOM     34  O   UNL     1       2.607   1.682  18.752  0.00  0.00    +0.000 OA
BRANCH  33  35
ATOM     35  O   UNL     1       4.439   2.183  17.537  0.00  0.00    +0.000 OA
ATOM     36  H   UNL     1       5.155   2.588  18.064  0.00  0.00    +0.000 HD
ENDBRANCH  33  35
ENDBRANCH  30  33
ENDBRANCH  25  27
ENDBRANCH  23  25
ENDBRANCH   6  20
TORSDOF 7
ENDMDL
MODEL 8
REMARK VINA RESULT:      -8.4      5.581     11.632
REMARK  Name = 
REMARK  8 active torsions:
REMARK  status: ('A' for Active; 'I' for Inactive)
REMARK    1  A    between atoms: C_1  and  C_2
REMARK    2  A    between atoms: C_4  and  N_5
REMARK    3  A    between atoms: C_10  and  C_11
REMARK    4  A    between atoms: C_17  and  C_18
REMARK    5  A    between atoms: C_21  and  C_22
REMARK    6  A    between atoms: C_22  and  C_24
REMARK    7  A    between atoms: C_27  and  C_28
REMARK    8  A    between atoms: C_28  and  O_30
REMARK                            x       y       z     vdW  Elec       q    Type
REMARK                         _______ _______ _______ _____ _____    ______ ____
ROOT
ATOM      1  C   UNL     1       3.016   2.198  17.422  0.00  0.00    +0.000 C 
ATOM      2  C   UNL     1       3.481   3.620  17.333  0.00  0.00    +0.000 A 
ATOM      3  C   UNL     1       4.598   3.978  16.560  0.00  0.00    +0.000 A 
ATOM      4  C   UNL     1       5.032   5.308  16.483  0.00  0.00    +0.000 A 
ATOM      5  C   UNL     1       4.366   6.253  17.276  0.00  0.00    +0.000 A 
ATOM      6  C   UNL     1       3.248   5.930  18.060  0.00  0.00    +0.000 A 
ATOM      7  C   UNL     1       2.803   4.608  18.062  0.00  0.00    +0.000 A 
ENDROOT
BRANCH   4   8
ATOM      8  N   UNL     1       6.107   5.642  15.635  0.00  0.00    +0.000 N 
ATOM      9  C   UNL     1       6.398   5.153  14.358  0.00  0.00    +0.000 A 
ATOM     10  N   UNL     1       7.664   5.262  13.938  0.00  0.00    +0.000 NA
ATOM     11  C   UNL     1       7.971   4.679  12.761  0.00  0.00    +0.000 A 
ATOM     12  C   UNL     1       7.067   3.989  11.986  0.00  0.00    +0.000 A 
ATOM     13  C   UNL     1       5.779   3.939  12.471  0.00  0.00    +0.000 A 
ATOM     14  N   UNL     1       5.455   4.532  13.642  0.00  0.00    +0.000 NA
ATOM     15  H   UNL     1       6.972   5.906  16.084  0.00  0.00    +0.000 HD
BRANCH  13  16
ATOM     16  C   UNL     1       4.681   3.194  11.740  0.00  0.00    +0.000 C 
ATOM     17  F   UNL     1       5.066   1.958  11.305  0.00  0.00    +0.000 F 
ATOM     18  F   UNL     1       3.577   2.981  12.513  0.00  0.00    +0.000 F 
ATOM     19  F   UNL     1       4.237   3.850  10.629  0.00  0.00    +0.000 F 
ENDBRANCH  13  16
ENDBRANCH   4   8
BRANCH   6  20
ATOM     20  C   UNL     1       2.558   6.952  18.853  0.00  0.00    +0.000 A 
ATOM     21  C   UNL     1       2.166   6.938  20.178  0.00  0.00    +0.000 A 
ATOM     22  N   UNL     1       1.542   8.082  20.644  0.00  0.00    +0.000 NA
ATOM     23  C   UNL     1       1.461   8.970  19.672  0.00  0.00    +0.000 A 
ATOM     24  S   UNL     1       2.141   8.473  18.172  0.00  0.00    +0.000 S 
BRANCH  23  25
ATOM     25  C   UNL     1       0.850  10.341  19.813  0.00  0.00    +0.000 C 
ATOM     26  F   UNL     1       1.113  11.122  18.727  0.00  0.00    +0.000 F 
BRANCH  25  27
ATOM     27  C   UNL     1      -0.674  10.301  20.072  0.00  0.00    +0.000 C 
ATOM     28  C   UNL     1      -0.991   9.900  21.524  0.00  0.00    +0.000 C 
ATOM     29  C   UNL     1      -0.703  10.996  22.551  0.00  0.00    +0.000 C 
ATOM     30  C   UNL     1      -1.251  12.382  22.185  0.00  0.00    +0.000 C 
ATOM     31  C   UNL     1      -1.104  12.751  20.706  0.00  0.00    +0.000 C 
ATOM     32  C   UNL     1      -1.421  11.605  19.750  0.00  0.00    +0.000 C 
BRANCH  30  33
ATOM     33  C   UNL     1      -2.696  12.552  22.624  0.00  0.00    +0.000 C 
ATOM     34  O   UNL     1      -3.494  13.334  22.125  0.00  0.00    +0.000 OA
BRANCH  33  35
ATOM     35  O   UNL     1      -3.030  11.747  23.658  0.00  0.00    +0.000 OA
ATOM     36  H   UNL     1      -2.409  11.007  23.803  0.00  0.00    +0.000 HD
ENDBRANCH  33  35
ENDBRANCH  30  33
ENDBRANCH  25  27
ENDBRANCH  23  25
ENDBRANCH   6  20
TORSDOF 7
ENDMDL
MODEL 9
REMARK VINA RESULT:      -8.3      5.267     11.171
REMARK  Name = 
REMARK  8 active torsions:
REMARK  status: ('A' for Active; 'I' for Inactive)
REMARK    1  A    between atoms: C_1  and  C_2
REMARK    2  A    between atoms: C_4  and  N_5
REMARK    3  A    between atoms: C_10  and  C_11
REMARK    4  A    between atoms: C_17  and  C_18
REMARK    5  A    between atoms: C_21  and  C_22
REMARK    6  A    between atoms: C_22  and  C_24
REMARK    7  A    between atoms: C_27  and  C_28
REMARK    8  A    between atoms: C_28  and  O_30
REMARK                            x       y       z     vdW  Elec       q    Type
REMARK                         _______ _______ _______ _____ _____    ______ ____
ROOT
ATOM      1  C   UNL     1       1.384   2.984  21.618  0.00  0.00    +0.000 C 
ATOM      2  C   UNL     1       1.979   3.862  20.558  0.00  0.00    +0.000 A 
ATOM      3  C   UNL     1       2.886   3.356  19.613  0.00  0.00    +0.000 A 
ATOM      4  C   UNL     1       3.443   4.181  18.626  0.00  0.00    +0.000 A 
ATOM      5  C   UNL     1       3.129   5.547  18.672  0.00  0.00    +0.000 A 
ATOM      6  C   UNL     1       2.227   6.086  19.603  0.00  0.00    +0.000 A 
ATOM      7  C   UNL     1       1.641   5.222  20.530  0.00  0.00    +0.000 A 
ENDROOT
BRANCH   4   8
ATOM      8  N   UNL     1       4.287   3.623  17.646  0.00  0.00    +0.000 N 
ATOM      9  C   UNL     1       5.389   4.201  17.009  0.00  0.00    +0.000 A 
ATOM     10  N   UNL     1       5.754   3.680  15.831  0.00  0.00    +0.000 NA
ATOM     11  C   UNL     1       6.736   4.316  15.159  0.00  0.00    +0.000 A 
ATOM     12  C   UNL     1       7.367   5.452  15.612  0.00  0.00    +0.000 A 
ATOM     13  C   UNL     1       6.955   5.915  16.841  0.00  0.00    +0.000 A 
ATOM     14  N   UNL     1       5.983   5.279  17.532  0.00  0.00    +0.000 NA
ATOM     15  H   UNL     1       3.870   2.949  17.020  0.00  0.00    +0.000 HD
BRANCH  13  16
ATOM     16  C   UNL     1       7.541   7.169  17.457  0.00  0.00    +0.000 C 
ATOM     17  F   UNL     1       8.424   7.810  16.636  0.00  0.00    +0.000 F 
ATOM     18  F   UNL     1       6.594   8.099  17.773  0.00  0.00    +0.000 F 
ATOM     19  F   UNL     1       8.226   6.929  18.613  0.00  0.00    +0.000 F 
ENDBRANCH  13  16
ENDBRANCH   4   8
BRANCH   6  20
ATOM     20  C   UNL     1       1.900   7.514  19.602  0.00  0.00    +0.000 A 
ATOM     21  C   UNL     1       2.004   8.452  18.593  0.00  0.00    +0.000 A 
ATOM     22  N   UNL     1       1.590   9.736  18.904  0.00  0.00    +0.000 NA
ATOM     23  C   UNL     1       1.165   9.773  20.152  0.00  0.00    +0.000 A 
ATOM     24  S   UNL     1       1.234   8.274  20.992  0.00  0.00    +0.000 S 
BRANCH  23  25
ATOM     25  C   UNL     1       0.630  11.005  20.837  0.00  0.00    +0.000 C 
ATOM     26  F   UNL     1       0.940  12.139  20.146  0.00  0.00    +0.000 F 
BRANCH  25  27
ATOM     27  C   UNL     1      -0.896  10.945  21.086  0.00  0.00    +0.000 C 
ATOM     28  C   UNL     1      -1.238  11.202  22.564  0.00  0.00    +0.000 C 
ATOM     29  C   UNL     1      -1.084  12.661  22.996  0.00  0.00    +0.000 C 
ATOM     30  C   UNL     1      -1.727  13.684  22.051  0.00  0.00    +0.000 C 
ATOM     31  C   UNL     1      -1.551  13.371  20.562  0.00  0.00    +0.000 C 
ATOM     32  C   UNL     1      -1.733  11.896  20.216  0.00  0.00    +0.000 C 
BRANCH  30  33
ATOM     33  C   UNL     1      -3.199  13.898  22.368  0.00  0.00    +0.000 C 
ATOM     34  O   UNL     1      -3.950  13.046  22.823  0.00  0.00    +0.000 OA
BRANCH  33  35
ATOM     35  O   UNL     1      -3.622  15.150  22.080  0.00  0.00    +0.000 OA
ATOM     36  H   UNL     1      -3.959  15.257  21.169  0.00  0.00    +0.000 HD
ENDBRANCH  33  35
ENDBRANCH  30  33
ENDBRANCH  25  27
ENDBRANCH  23  25
ENDBRANCH   6  20
TORSDOF 7
ENDMDL
