MODEL 1
REMARK VINA RESULT:      -8.3      0.000      0.000
REMARK  Name = 
REMARK  6 active torsions:
REMARK  status: ('A' for Active; 'I' for Inactive)
REMARK    1  A    between atoms: C_1  and  C_2
REMARK    2  A    between atoms: N_5  and  S_6
REMARK    3  A    between atoms: S_6  and  C_9
REMARK    4  A    between atoms: C_12  and  N_13
REMARK    5  A    between atoms: C_14  and  C_16
REMARK    6  A    between atoms: C_16  and  N_17
REMARK                            x       y       z     vdW  Elec       q    Type
REMARK                         _______ _______ _______ _____ _____    ______ ____
ROOT
ATOM      1  C   UNL     1       5.679   5.258  17.912  0.00  0.00    +0.000 A 
ATOM      2  C   UNL     1       5.898   6.315  17.034  0.00  0.00    +0.000 A 
ATOM      3  C   UNL     1       6.890   7.247  17.321  0.00  0.00    +0.000 A 
ATOM      4  C   UNL     1       7.673   7.143  18.476  0.00  0.00    +0.000 A 
ATOM      5  C   UNL     1       7.459   6.063  19.344  0.00  0.00    +0.000 A 
ATOM      6  C   UNL     1       6.438   5.139  19.081  0.00  0.00    +0.000 A 
ENDROOT
BRANCH   4   7
ATOM      7  N   UNL     1       8.673   8.086  18.794  0.00  0.00    +0.000 N 
ATOM      8  C   UNL     1       8.646   9.425  18.452  0.00  0.00    +0.000 C 
ATOM      9  O   UNL     1       7.692  10.024  17.953  0.00  0.00    +0.000 OA
ATOM     10  H   UNL     1       9.469   7.791  19.349  0.00  0.00    +0.000 HD
BRANCH   8  11
ATOM     11  C   UNL     1       9.899  10.215  18.822  0.00  0.00    +0.000 C 
BRANCH  11  12
ATOM     12  N   UNL     1       9.968  11.574  18.218  0.00  0.00    +0.000 NA
ATOM     13  C   UNL     1       9.535  12.608  19.172  0.00  0.00    +0.000 C 
ATOM     14  C   UNL     1       8.951  13.812  18.425  0.00  0.00    +0.000 C 
ATOM     15  C   UNL     1       9.973  14.781  17.845  0.00  0.00    +0.000 C 
ATOM     16  C   UNL     1      10.987  14.154  16.895  0.00  0.00    +0.000 C 
ATOM     17  C   UNL     1      11.913  13.178  17.608  0.00  0.00    +0.000 C 
ATOM     18  C   UNL     1      11.353  11.760  17.737  0.00  0.00    +0.000 C 
ENDBRANCH  11  12
ENDBRANCH   8  11
ENDBRANCH   4   7
BRANCH   1  19
ATOM     19  S   UNL     1       4.364   4.120  17.554  0.00  0.00    +0.000 S 
ATOM     20  O   UNL     1       4.425   3.060  18.538  0.00  0.00    +0.000 OA
ATOM     21  O   UNL     1       4.426   3.812  16.142  0.00  0.00    +0.000 OA
BRANCH  19  26
ATOM     22  C   UNL     1       1.364   2.929  21.202  0.00  0.00    +0.000 C 
ATOM     23  C   UNL     1       1.436   4.034  20.151  0.00  0.00    +0.000 C 
ATOM     24  C   UNL     1       1.289   3.437  18.741  0.00  0.00    +0.000 C 
ATOM     25  C   UNL     1       1.639   4.435  17.643  0.00  0.00    +0.000 C 
ATOM     26  N   UNL     1       2.966   5.051  17.878  0.00  0.00    +0.000 NA
ATOM     27  C   UNL     1       2.977   5.792  19.162  0.00  0.00    +0.000 C 
ATOM     28  C   UNL     1       2.734   4.841  20.326  0.00  0.00    +0.000 C 
ENDBRANCH  19  26
ENDBRANCH   1  19
TORSDOF 5
ENDMDL
MODEL 2
REMARK VINA RESULT:      -8.2      1.116      1.725
REMARK  Name = 
REMARK  6 active torsions:
REMARK  status: ('A' for Active; 'I' for Inactive)
REMARK    1  A    between atoms: C_1  and  C_2
REMARK    2  A    between atoms: N_5  and  S_6
REMARK    3  A    between atoms: S_6  and  C_9
REMARK    4  A    between atoms: C_12  and  N_13
REMARK    5  A    between atoms: C_14  and  C_16
REMARK    6  A    between atoms: C_16  and  N_17
REMARK                            x       y       z     vdW  Elec       q    Type
REMARK                         _______ _______ _______ _____ _____    ______ ____
ROOT
ATOM      1  C   UNL     1       5.677   5.552  18.056  0.00  0.00    +0.000 A 
ATOM      2  C   UNL     1       6.932   5.529  18.656  0.00  0.00    +0.000 A 
ATOM      3  C   UNL     1       7.806   6.592  18.455  0.00  0.00    +0.000 A 
ATOM      4  C   UNL     1       7.449   7.686  17.658  0.00  0.00    +0.000 A 
ATOM      5  C   UNL     1       6.175   7.710  17.073  0.00  0.00    +0.000 A 
ATOM      6  C   UNL     1       5.301   6.627  17.242  0.00  0.00    +0.000 A 
ENDROOT
BRANCH   4   7
ATOM      7  N   UNL     1       8.326   8.766  17.427  0.00  0.00    +0.000 N 
ATOM      8  C   UNL     1       8.796   9.635  18.393  0.00  0.00    +0.000 C 
ATOM      9  O   UNL     1       8.641   9.513  19.610  0.00  0.00    +0.000 OA
ATOM     10  H   UNL     1       8.684   8.917  16.489  0.00  0.00    +0.000 HD
BRANCH   8  11
ATOM     11  C   UNL     1       9.651  10.787  17.872  0.00  0.00    +0.000 C 
BRANCH  11  12
ATOM     12  N   UNL     1       9.633  12.003  18.730  0.00  0.00    +0.000 NA
ATOM     13  C   UNL     1      10.834  12.080  19.577  0.00  0.00    +0.000 C 
ATOM     14  C   UNL     1      10.528  12.847  20.868  0.00  0.00    +0.000 C 
ATOM     15  C   UNL     1      10.524  14.365  20.742  0.00  0.00    +0.000 C 
ATOM     16  C   UNL     1       9.569  14.920  19.692  0.00  0.00    +0.000 C 
ATOM     17  C   UNL     1       9.983  14.532  18.279  0.00  0.00    +0.000 C 
ATOM     18  C   UNL     1       9.473  13.162  17.828  0.00  0.00    +0.000 C 
ENDBRANCH  11  12
ENDBRANCH   8  11
ENDBRANCH   4   7
BRANCH   1  19
ATOM     19  S   UNL     1       4.606   4.154  18.279  0.00  0.00    +0.000 S 
ATOM     20  O   UNL     1       4.917   3.568  19.565  0.00  0.00    +0.000 OA
ATOM     21  O   UNL     1       4.675   3.356  17.075  0.00  0.00    +0.000 OA
BRANCH  19  26
ATOM     22  C   UNL     1       1.379   2.630  21.595  0.00  0.00    +0.000 C 
ATOM     23  C   UNL     1       1.424   3.709  20.515  0.00  0.00    +0.000 C 
ATOM     24  C   UNL     1       1.535   3.063  19.124  0.00  0.00    +0.000 C 
ATOM     25  C   UNL     1       1.874   4.075  18.034  0.00  0.00    +0.000 C 
ATOM     26  N   UNL     1       3.062   4.881  18.398  0.00  0.00    +0.000 NA
ATOM     27  C   UNL     1       2.812   5.647  19.643  0.00  0.00    +0.000 C 
ATOM     28  C   UNL     1       2.565   4.698  20.808  0.00  0.00    +0.000 C 
ENDBRANCH  19  26
ENDBRANCH   1  19
TORSDOF 5
ENDMDL
MODEL 3
REMARK VINA RESULT:      -8.2      1.111      1.532
REMARK  Name = 
REMARK  6 active torsions:
REMARK  status: ('A' for Active; 'I' for Inactive)
REMARK    1  A    between atoms: C_1  and  C_2
REMARK    2  A    between atoms: N_5  and  S_6
REMARK    3  A    between atoms: S_6  and  C_9
REMARK    4  A    between atoms: C_12  and  N_13
REMARK    5  A    between atoms: C_14  and  C_16
REMARK    6  A    between atoms: C_16  and  N_17
REMARK                            x       y       z     vdW  Elec       q    Type
REMARK                         _______ _______ _______ _____ _____    ______ ____
ROOT
ATOM      1  C   UNL     1       5.741   5.297  17.956  0.00  0.00    +0.000 A 
ATOM      2  C   UNL     1       5.898   6.351  17.061  0.00  0.00    +0.000 A 
ATOM      3  C   UNL     1       6.884   7.303  17.293  0.00  0.00    +0.000 A 
ATOM      4  C   UNL     1       7.723   7.225  18.411  0.00  0.00    +0.000 A 
ATOM      5  C   UNL     1       7.571   6.148  19.296  0.00  0.00    +0.000 A 
ATOM      6  C   UNL     1       6.556   5.203  19.089  0.00  0.00    +0.000 A 
ENDROOT
BRANCH   4   7
ATOM      7  N   UNL     1       8.718   8.188  18.674  0.00  0.00    +0.000 N 
ATOM      8  C   UNL     1       8.645   9.526  18.333  0.00  0.00    +0.000 C 
ATOM      9  O   UNL     1       7.653  10.104  17.885  0.00  0.00    +0.000 OA
ATOM     10  H   UNL     1       9.549   7.911  19.186  0.00  0.00    +0.000 HD
BRANCH   8  11
ATOM     11  C   UNL     1       9.899  10.343  18.634  0.00  0.00    +0.000 C 
BRANCH  11  12
ATOM     12  N   UNL     1       9.655  11.565  19.447  0.00  0.00    +0.000 NA
ATOM     13  C   UNL     1       9.664  11.262  20.888  0.00  0.00    +0.000 C 
ATOM     14  C   UNL     1       8.776  12.254  21.647  0.00  0.00    +0.000 C 
ATOM     15  C   UNL     1       9.406  13.611  21.933  0.00  0.00    +0.000 C 
ATOM     16  C   UNL     1       9.908  14.358  20.703  0.00  0.00    +0.000 C 
ATOM     17  C   UNL     1      11.080  13.650  20.040  0.00  0.00    +0.000 C 
ATOM     18  C   UNL     1      10.676  12.557  19.049  0.00  0.00    +0.000 C 
ENDBRANCH  11  12
ENDBRANCH   8  11
ENDBRANCH   4   7
BRANCH   1  19
ATOM     19  S   UNL     1       4.433   4.131  17.670  0.00  0.00    +0.000 S 
ATOM     20  O   UNL     1       4.529   3.109  18.689  0.00  0.00    +0.000 OA
ATOM     21  O   UNL     1       4.467   3.774  16.269  0.00  0.00    +0.000 OA
BRANCH  19  26
ATOM     22  C   UNL     1       1.313   2.799  21.166  0.00  0.00    +0.000 C 
ATOM     23  C   UNL     1       1.425   3.950  20.169  0.00  0.00    +0.000 C 
ATOM     24  C   UNL     1       1.318   3.418  18.730  0.00  0.00    +0.000 C 
ATOM     25  C   UNL     1       1.708   4.462  17.689  0.00  0.00    +0.000 C 
ATOM     26  N   UNL     1       3.031   5.057  17.992  0.00  0.00    +0.000 NA
ATOM     27  C   UNL     1       3.006   5.740  19.309  0.00  0.00    +0.000 C 
ATOM     28  C   UNL     1       2.722   4.739  20.420  0.00  0.00    +0.000 C 
ENDBRANCH  19  26
ENDBRANCH   1  19
TORSDOF 5
ENDMDL
MODEL 4
REMARK VINA RESULT:      -7.8      5.175      8.092
REMARK  Name = 
REMARK  6 active torsions:
REMARK  status: ('A' for Active; 'I' for Inactive)
REMARK    1  A    between atoms: C_1  and  C_2
REMARK    2  A    between atoms: N_5  and  S_6
REMARK    3  A    between atoms: S_6  and  C_9
REMARK    4  A    between atoms: C_12  and  N_13
REMARK    5  A    between atoms: C_14  and  C_16
REMARK    6  A    between atoms: C_16  and  N_17
REMARK                            x       y       z     vdW  Elec       q    Type
REMARK                         _______ _______ _______ _____ _____    ______ ____
ROOT
ATOM      1  C   UNL     1       3.356   5.582  19.141  0.00  0.00    +0.000 A 
ATOM      2  C   UNL     1       2.650   5.070  20.225  0.00  0.00    +0.000 A 
ATOM      3  C   UNL     1       1.724   5.874  20.879  0.00  0.00    +0.000 A 
ATOM      4  C   UNL     1       1.487   7.192  20.470  0.00  0.00    +0.000 A 
ATOM      5  C   UNL     1       2.188   7.693  19.364  0.00  0.00    +0.000 A 
ATOM      6  C   UNL     1       3.149   6.901  18.720  0.00  0.00    +0.000 A 
ENDROOT
BRANCH   4   7
ATOM      7  N   UNL     1       0.565   8.030  21.130  0.00  0.00    +0.000 N 
ATOM      8  C   UNL     1       0.875   8.922  22.139  0.00  0.00    +0.000 C 
ATOM      9  O   UNL     1       2.011   9.224  22.512  0.00  0.00    +0.000 OA
ATOM     10  H   UNL     1      -0.406   8.024  20.833  0.00  0.00    +0.000 HD
BRANCH   8  11
ATOM     11  C   UNL     1      -0.319   9.639  22.764  0.00  0.00    +0.000 C 
BRANCH  11  12
ATOM     12  N   UNL     1      -0.266  11.123  22.662  0.00  0.00    +0.000 NA
ATOM     13  C   UNL     1      -0.106  11.560  21.266  0.00  0.00    +0.000 C 
ATOM     14  C   UNL     1       0.619  12.910  21.210  0.00  0.00    +0.000 C 
ATOM     15  C   UNL     1      -0.249  14.131  21.489  0.00  0.00    +0.000 C 
ATOM     16  C   UNL     1      -0.982  14.107  22.824  0.00  0.00    +0.000 C 
ATOM     17  C   UNL     1      -2.034  13.008  22.882  0.00  0.00    +0.000 C 
ATOM     18  C   UNL     1      -1.493  11.640  23.304  0.00  0.00    +0.000 C 
ENDBRANCH  11  12
ENDBRANCH   8  11
ENDBRANCH   4   7
BRANCH   1  19
ATOM     19  S   UNL     1       4.578   4.555  18.364  0.00  0.00    +0.000 S 
ATOM     20  O   UNL     1       3.957   3.933  17.214  0.00  0.00    +0.000 OA
ATOM     21  O   UNL     1       5.185   3.743  19.396  0.00  0.00    +0.000 OA
BRANCH  19  26
ATOM     22  C   UNL     1       6.586   4.069  13.952  0.00  0.00    +0.000 C 
ATOM     23  C   UNL     1       6.674   5.075  15.099  0.00  0.00    +0.000 C 
ATOM     24  C   UNL     1       7.270   4.404  16.348  0.00  0.00    +0.000 C 
ATOM     25  C   UNL     1       7.118   5.260  17.601  0.00  0.00    +0.000 C 
ATOM     26  N   UNL     1       5.714   5.696  17.788  0.00  0.00    +0.000 NA
ATOM     27  C   UNL     1       5.266   6.520  16.639  0.00  0.00    +0.000 C 
ATOM     28  C   UNL     1       5.292   5.699  15.357  0.00  0.00    +0.000 C 
ENDBRANCH  19  26
ENDBRANCH   1  19
TORSDOF 5
ENDMDL
MODEL 5
REMARK VINA RESULT:      -7.7      5.880      8.000
REMARK  Name = 
REMARK  6 active torsions:
REMARK  status: ('A' for Active; 'I' for Inactive)
REMARK    1  A    between atoms: C_1  and  C_2
REMARK    2  A    between atoms: N_5  and  S_6
REMARK    3  A    between atoms: S_6  and  C_9
REMARK    4  A    between atoms: C_12  and  N_13
REMARK    5  A    between atoms: C_14  and  C_16
REMARK    6  A    between atoms: C_16  and  N_17
REMARK                            x       y       z     vdW  Elec       q    Type
REMARK                         _______ _______ _______ _____ _____    ______ ____
ROOT
ATOM      1  C   UNL     1       2.917   6.994  18.656  0.00  0.00    +0.000 A 
ATOM      2  C   UNL     1       2.342   7.266  19.894  0.00  0.00    +0.000 A 
ATOM      3  C   UNL     1       1.524   8.381  20.037  0.00  0.00    +0.000 A 
ATOM      4  C   UNL     1       1.268   9.239  18.961  0.00  0.00    +0.000 A 
ATOM      5  C   UNL     1       1.836   8.945  17.713  0.00  0.00    +0.000 A 
ATOM      6  C   UNL     1       2.689   7.842  17.568  0.00  0.00    +0.000 A 
ENDROOT
BRANCH   4   7
ATOM      7  N   UNL     1       0.456  10.384  19.089  0.00  0.00    +0.000 N 
ATOM      8  C   UNL     1       0.907  11.691  19.061  0.00  0.00    +0.000 C 
ATOM      9  O   UNL     1       2.051  12.054  18.779  0.00  0.00    +0.000 OA
ATOM     10  H   UNL     1      -0.549  10.269  19.171  0.00  0.00    +0.000 HD
BRANCH   8  11
ATOM     11  C   UNL     1      -0.158  12.752  19.326  0.00  0.00    +0.000 C 
BRANCH  11  12
ATOM     12  N   UNL     1      -1.099  12.415  20.429  0.00  0.00    +0.000 NA
ATOM     13  C   UNL     1      -0.425  12.438  21.737  0.00  0.00    +0.000 C 
ATOM     14  C   UNL     1      -1.115  11.475  22.710  0.00  0.00    +0.000 C 
ATOM     15  C   UNL     1      -2.387  12.003  23.361  0.00  0.00    +0.000 C 
ATOM     16  C   UNL     1      -3.467  12.456  22.387  0.00  0.00    +0.000 C 
ATOM     17  C   UNL     1      -3.043  13.681  21.588  0.00  0.00    +0.000 C 
ATOM     18  C   UNL     1      -2.229  13.363  20.333  0.00  0.00    +0.000 C 
ENDBRANCH  11  12
ENDBRANCH   8  11
ENDBRANCH   4   7
BRANCH   1  19
ATOM     19  S   UNL     1       4.007   5.599  18.518  0.00  0.00    +0.000 S 
ATOM     20  O   UNL     1       4.389   5.210  19.858  0.00  0.00    +0.000 OA
ATOM     21  O   UNL     1       5.015   5.929  17.535  0.00  0.00    +0.000 OA
BRANCH  19  26
ATOM     22  C   UNL     1       1.772   2.461  21.499  0.00  0.00    +0.000 C 
ATOM     23  C   UNL     1       1.809   2.714  19.994  0.00  0.00    +0.000 C 
ATOM     24  C   UNL     1       3.225   2.459  19.448  0.00  0.00    +0.000 C 
ATOM     25  C   UNL     1       3.403   2.968  18.021  0.00  0.00    +0.000 C 
ATOM     26  N   UNL     1       2.977   4.382  17.897  0.00  0.00    +0.000 NA
ATOM     27  C   UNL     1       1.541   4.526  18.237  0.00  0.00    +0.000 C 
ATOM     28  C   UNL     1       1.297   4.132  19.687  0.00  0.00    +0.000 C 
ENDBRANCH  19  26
ENDBRANCH   1  19
TORSDOF 5
ENDMDL
MODEL 6
REMARK VINA RESULT:      -7.7      6.349      8.522
REMARK  Name = 
REMARK  6 active torsions:
REMARK  status: ('A' for Active; 'I' for Inactive)
REMARK    1  A    between atoms: C_1  and  C_2
REMARK    2  A    between atoms: N_5  and  S_6
REMARK    3  A    between atoms: S_6  and  C_9
REMARK    4  A    between atoms: C_12  and  N_13
REMARK    5  A    between atoms: C_14  and  C_16
REMARK    6  A    between atoms: C_16  and  N_17
REMARK                            x       y       z     vdW  Elec       q    Type
REMARK                         _______ _______ _______ _____ _____    ______ ____
ROOT
ATOM      1  C   UNL     1       2.303   7.479  19.057  0.00  0.00    +0.000 A 
ATOM      2  C   UNL     1       2.198   8.386  18.006  0.00  0.00    +0.000 A 
ATOM      3  C   UNL     1       1.522   9.585  18.203  0.00  0.00    +0.000 A 
ATOM      4  C   UNL     1       0.944   9.900  19.438  0.00  0.00    +0.000 A 
ATOM      5  C   UNL     1       1.072   8.989  20.497  0.00  0.00    +0.000 A 
ATOM      6  C   UNL     1       1.721   7.763  20.298  0.00  0.00    +0.000 A 
ENDROOT
BRANCH   4   7
ATOM      7  N   UNL     1       0.240  11.102  19.654  0.00  0.00    +0.000 N 
ATOM      8  C   UNL     1       0.635  12.119  20.503  0.00  0.00    +0.000 C 
ATOM      9  O   UNL     1       1.722  12.194  21.082  0.00  0.00    +0.000 OA
ATOM     10  H   UNL     1      -0.611  11.276  19.128  0.00  0.00    +0.000 HD
BRANCH   8  11
ATOM     11  C   UNL     1      -0.354  13.272  20.642  0.00  0.00    +0.000 C 
BRANCH  11  12
ATOM     12  N   UNL     1      -1.223  13.195  21.848  0.00  0.00    +0.000 NA
ATOM     13  C   UNL     1      -1.392  14.516  22.474  0.00  0.00    +0.000 C 
ATOM     14  C   UNL     1      -1.645  14.365  23.978  0.00  0.00    +0.000 C 
ATOM     15  C   UNL     1      -3.073  14.003  24.367  0.00  0.00    +0.000 C 
ATOM     16  C   UNL     1      -3.611  12.730  23.724  0.00  0.00    +0.000 C 
ATOM     17  C   UNL     1      -3.769  12.872  22.217  0.00  0.00    +0.000 C 
ATOM     18  C   UNL     1      -2.496  12.579  21.420  0.00  0.00    +0.000 C 
ENDBRANCH  11  12
ENDBRANCH   8  11
ENDBRANCH   4   7
BRANCH   1  19
ATOM     19  S   UNL     1       3.117   5.930  18.760  0.00  0.00    +0.000 S 
ATOM     20  O   UNL     1       4.043   5.708  19.849  0.00  0.00    +0.000 OA
ATOM     21  O   UNL     1       3.583   5.938  17.391  0.00  0.00    +0.000 OA
BRANCH  19  26
ATOM     22  C   UNL     1       3.964   1.142  18.457  0.00  0.00    +0.000 C 
ATOM     23  C   UNL     1       2.748   2.032  18.704  0.00  0.00    +0.000 C 
ATOM     24  C   UNL     1       2.460   2.893  17.462  0.00  0.00    +0.000 C 
ATOM     25  C   UNL     1       1.450   4.002  17.739  0.00  0.00    +0.000 C 
ATOM     26  N   UNL     1       1.841   4.802  18.924  0.00  0.00    +0.000 NA
ATOM     27  C   UNL     1       1.896   3.947  20.135  0.00  0.00    +0.000 C 
ATOM     28  C   UNL     1       2.961   2.871  19.976  0.00  0.00    +0.000 C 
ENDBRANCH  19  26
ENDBRANCH   1  19
TORSDOF 5
ENDMDL
MODEL 7
REMARK VINA RESULT:      -7.7      5.654      8.970
REMARK  Name = 
REMARK  6 active torsions:
REMARK  status: ('A' for Active; 'I' for Inactive)
REMARK    1  A    between atoms: C_1  and  C_2
REMARK    2  A    between atoms: N_5  and  S_6
REMARK    3  A    between atoms: S_6  and  C_9
REMARK    4  A    between atoms: C_12  and  N_13
REMARK    5  A    between atoms: C_14  and  C_16
REMARK    6  A    between atoms: C_16  and  N_17
REMARK                            x       y       z     vdW  Elec       q    Type
REMARK                         _______ _______ _______ _____ _____    ______ ____
ROOT
ATOM      1  C   UNL     1       0.667   9.937  19.645  0.00  0.00    +0.000 A 
ATOM      2  C   UNL     1       1.327   9.558  18.479  0.00  0.00    +0.000 A 
ATOM      3  C   UNL     1       2.074   8.385  18.467  0.00  0.00    +0.000 A 
ATOM      4  C   UNL     1       2.177   7.577  19.605  0.00  0.00    +0.000 A 
ATOM      5  C   UNL     1       1.492   7.955  20.768  0.00  0.00    +0.000 A 
ATOM      6  C   UNL     1       0.765   9.154  20.800  0.00  0.00    +0.000 A 
ENDROOT
BRANCH   4   7
ATOM      7  N   UNL     1       2.942   6.393  19.619  0.00  0.00    +0.000 N 
ATOM      8  C   UNL     1       2.621   5.224  18.953  0.00  0.00    +0.000 C 
ATOM      9  O   UNL     1       1.706   5.086  18.139  0.00  0.00    +0.000 OA
ATOM     10  H   UNL     1       3.824   6.382  20.122  0.00  0.00    +0.000 HD
BRANCH   8  11
ATOM     11  C   UNL     1       3.558   4.048  19.213  0.00  0.00    +0.000 C 
BRANCH  11  12
ATOM     12  N   UNL     1       4.797   4.056  18.387  0.00  0.00    +0.000 NA
ATOM     13  C   UNL     1       4.533   4.558  17.029  0.00  0.00    +0.000 C 
ATOM     14  C   UNL     1       5.525   3.948  16.033  0.00  0.00    +0.000 C 
ATOM     15  C   UNL     1       6.903   4.597  16.001  0.00  0.00    +0.000 C 
ATOM     16  C   UNL     1       7.628   4.632  17.341  0.00  0.00    +0.000 C 
ATOM     17  C   UNL     1       6.927   5.534  18.348  0.00  0.00    +0.000 C 
ATOM     18  C   UNL     1       5.799   4.853  19.125  0.00  0.00    +0.000 C 
ENDBRANCH  11  12
ENDBRANCH   8  11
ENDBRANCH   4   7
BRANCH   1  19
ATOM     19  S   UNL     1      -0.227  11.470  19.651  0.00  0.00    +0.000 S 
ATOM     20  O   UNL     1      -1.382  11.299  20.506  0.00  0.00    +0.000 OA
ATOM     21  O   UNL     1      -0.390  11.885  18.275  0.00  0.00    +0.000 OA
BRANCH  19  26
ATOM     22  C   UNL     1      -0.143  16.221  18.574  0.00  0.00    +0.000 C 
ATOM     23  C   UNL     1       0.592  15.297  19.544  0.00  0.00    +0.000 C 
ATOM     24  C   UNL     1       1.426  14.267  18.765  0.00  0.00    +0.000 C 
ATOM     25  C   UNL     1       1.949  13.143  19.655  0.00  0.00    +0.000 C 
ATOM     26  N   UNL     1       0.856  12.530  20.445  0.00  0.00    +0.000 NA
ATOM     27  C   UNL     1       0.227  13.537  21.335  0.00  0.00    +0.000 C 
ATOM     28  C   UNL     1      -0.411  14.646  20.511  0.00  0.00    +0.000 C 
ENDBRANCH  19  26
ENDBRANCH   1  19
TORSDOF 5
ENDMDL
MODEL 8
REMARK VINA RESULT:      -7.7      6.047      9.091
REMARK  Name = 
REMARK  6 active torsions:
REMARK  status: ('A' for Active; 'I' for Inactive)
REMARK    1  A    between atoms: C_1  and  C_2
REMARK    2  A    between atoms: N_5  and  S_6
REMARK    3  A    between atoms: S_6  and  C_9
REMARK    4  A    between atoms: C_12  and  N_13
REMARK    5  A    between atoms: C_14  and  C_16
REMARK    6  A    between atoms: C_16  and  N_17
REMARK                            x       y       z     vdW  Elec       q    Type
REMARK                         _______ _______ _______ _____ _____    ______ ____
ROOT
ATOM      1  C   UNL     1       2.641   6.919  18.887  0.00  0.00    +0.000 A 
ATOM      2  C   UNL     1       2.166   7.122  20.179  0.00  0.00    +0.000 A 
ATOM      3  C   UNL     1       1.454   8.280  20.472  0.00  0.00    +0.000 A 
ATOM      4  C   UNL     1       1.206   9.248  19.493  0.00  0.00    +0.000 A 
ATOM      5  C   UNL     1       1.672   9.027  18.189  0.00  0.00    +0.000 A 
ATOM      6  C   UNL     1       2.420   7.878  17.893  0.00  0.00    +0.000 A 
ENDROOT
BRANCH   4   7
ATOM      7  N   UNL     1       0.501  10.437  19.772  0.00  0.00    +0.000 N 
ATOM      8  C   UNL     1      -0.753  10.757  19.285  0.00  0.00    +0.000 C 
ATOM      9  O   UNL     1      -1.499  10.000  18.659  0.00  0.00    +0.000 OA
ATOM     10  H   UNL     1       0.909  11.114  20.409  0.00  0.00    +0.000 HD
BRANCH   8  11
ATOM     11  C   UNL     1      -1.256  12.151  19.648  0.00  0.00    +0.000 C 
BRANCH  11  12
ATOM     12  N   UNL     1      -2.208  12.181  20.792  0.00  0.00    +0.000 NA
ATOM     13  C   UNL     1      -1.515  12.457  22.060  0.00  0.00    +0.000 C 
ATOM     14  C   UNL     1      -2.276  11.828  23.232  0.00  0.00    +0.000 C 
ATOM     15  C   UNL     1      -3.483  12.615  23.726  0.00  0.00    +0.000 C 
ATOM     16  C   UNL     1      -4.532  12.918  22.662  0.00  0.00    +0.000 C 
ATOM     17  C   UNL     1      -4.007  13.868  21.594  0.00  0.00    +0.000 C 
ATOM     18  C   UNL     1      -3.246  13.180  20.460  0.00  0.00    +0.000 C 
ENDBRANCH  11  12
ENDBRANCH   8  11
ENDBRANCH   4   7
BRANCH   1  19
ATOM     19  S   UNL     1       3.601   5.463  18.558  0.00  0.00    +0.000 S 
ATOM     20  O   UNL     1       3.094   4.873  17.337  0.00  0.00    +0.000 OA
ATOM     21  O   UNL     1       3.652   4.689  19.779  0.00  0.00    +0.000 OA
BRANCH  19  26
ATOM     22  C   UNL     1       6.155   3.925  14.705  0.00  0.00    +0.000 C 
ATOM     23  C   UNL     1       6.352   4.950  15.820  0.00  0.00    +0.000 C 
ATOM     24  C   UNL     1       6.422   4.242  17.184  0.00  0.00    +0.000 C 
ATOM     25  C   UNL     1       6.327   5.215  18.354  0.00  0.00    +0.000 C 
ATOM     26  N   UNL     1       5.150   6.105  18.220  0.00  0.00    +0.000 NA
ATOM     27  C   UNL     1       5.249   6.917  16.983  0.00  0.00    +0.000 C 
ATOM     28  C   UNL     1       5.246   6.016  15.756  0.00  0.00    +0.000 C 
ENDBRANCH  19  26
ENDBRANCH   1  19
TORSDOF 5
ENDMDL
MODEL 9
REMARK VINA RESULT:      -7.7      5.914      8.481
REMARK  Name = 
REMARK  6 active torsions:
REMARK  status: ('A' for Active; 'I' for Inactive)
REMARK    1  A    between atoms: C_1  and  C_2
REMARK    2  A    between atoms: N_5  and  S_6
REMARK    3  A    between atoms: S_6  and  C_9
REMARK    4  A    between atoms: C_12  and  N_13
REMARK    5  A    between atoms: C_14  and  C_16
REMARK    6  A    between atoms: C_16  and  N_17
REMARK                            x       y       z     vdW  Elec       q    Type
REMARK                         _______ _______ _______ _____ _____    ______ ____
ROOT
ATOM      1  C   UNL     1       2.832   7.222  18.654  0.00  0.00    +0.000 A 
ATOM      2  C   UNL     1       2.259   7.408  19.909  0.00  0.00    +0.000 A 
ATOM      3  C   UNL     1       1.405   8.485  20.117  0.00  0.00    +0.000 A 
ATOM      4  C   UNL     1       1.109   9.388  19.089  0.00  0.00    +0.000 A 
ATOM      5  C   UNL     1       1.675   9.181  17.823  0.00  0.00    +0.000 A 
ATOM      6  C   UNL     1       2.565   8.118  17.614  0.00  0.00    +0.000 A 
ENDROOT
BRANCH   4   7
ATOM      7  N   UNL     1       0.260  10.497  19.283  0.00  0.00    +0.000 N 
ATOM      8  C   UNL     1      -0.901  10.748  18.575  0.00  0.00    +0.000 C 
ATOM      9  O   UNL     1      -1.441   9.979  17.778  0.00  0.00    +0.000 OA
ATOM     10  H   UNL     1       0.475  11.159  20.022  0.00  0.00    +0.000 HD
BRANCH   8  11
ATOM     11  C   UNL     1      -1.589  12.071  18.902  0.00  0.00    +0.000 C 
BRANCH  11  12
ATOM     12  N   UNL     1      -2.034  12.198  20.316  0.00  0.00    +0.000 NA
ATOM     13  C   UNL     1      -1.151  13.095  21.079  0.00  0.00    +0.000 C 
ATOM     14  C   UNL     1      -1.148  12.707  22.562  0.00  0.00    +0.000 C 
ATOM     15  C   UNL     1      -2.341  13.202  23.370  0.00  0.00    +0.000 C 
ATOM     16  C   UNL     1      -3.702  12.779  22.831  0.00  0.00    +0.000 C 
ATOM     17  C   UNL     1      -4.007  13.414  21.482  0.00  0.00    +0.000 C 
ATOM     18  C   UNL     1      -3.442  12.648  20.284  0.00  0.00    +0.000 C 
ENDBRANCH  11  12
ENDBRANCH   8  11
ENDBRANCH   4   7
BRANCH   1  19
ATOM     19  S   UNL     1       3.967   5.875  18.434  0.00  0.00    +0.000 S 
ATOM     20  O   UNL     1       4.329   5.390  19.749  0.00  0.00    +0.000 OA
ATOM     21  O   UNL     1       4.989   6.313  17.509  0.00  0.00    +0.000 OA
BRANCH  19  26
ATOM     22  C   UNL     1       1.883   2.352  21.076  0.00  0.00    +0.000 C 
ATOM     23  C   UNL     1       1.905   2.759  19.604  0.00  0.00    +0.000 C 
ATOM     24  C   UNL     1       3.329   2.625  19.038  0.00  0.00    +0.000 C 
ATOM     25  C   UNL     1       3.481   3.284  17.671  0.00  0.00    +0.000 C 
ATOM     26  N   UNL     1       2.992   4.682  17.690  0.00  0.00    +0.000 NA
ATOM     27  C   UNL     1       1.551   4.727  18.040  0.00  0.00    +0.000 C 
ATOM     28  C   UNL     1       1.329   4.176  19.442  0.00  0.00    +0.000 C 
ENDBRANCH  19  26
ENDBRANCH   1  19
TORSDOF 5
ENDMDL
