MODEL 1
REMARK VINA RESULT:      -8.6      0.000      0.000
REMARK  Name = 
REMARK  9 active torsions:
REMARK  status: ('A' for Active; 'I' for Inactive)
REMARK    1  A    between atoms: C_1  and  O_2
REMARK    2  A    between atoms: O_2  and  C_3
REMARK    3  A    between atoms: C_3  and  C_5
REMARK    4  A    between atoms: C_8  and  N_9
REMARK    5  A    between atoms: C_10  and  C_12
REMARK    6  A    between atoms: C_12  and  O_13
REMARK    7  A    between atoms: O_13  and  C_14
REMARK    8  A    between atoms: C_14  and  C_16
REMARK    9  A    between atoms: N_18  and  C_19
REMARK                            x       y       z     vdW  Elec       q    Type
REMARK                         _______ _______ _______ _____ _____    ______ ____
ROOT
ATOM      1  O   UNL     1       4.144   3.505  20.029  0.00  0.00    +0.000 OA
ENDROOT
BRANCH   1   2
ATOM      2  C   UNL     1       4.331   3.196  18.731  0.00  0.00    +0.000 C 
ATOM      3  O   UNL     1       3.820   2.271  18.122  0.00  0.00    +0.000 OA
BRANCH   2   4
ATOM      4  C   UNL     1       5.260   4.196  18.044  0.00  0.00    +0.000 C 
ATOM      5  N   UNL     1       5.544   4.045  16.790  0.00  0.00    +0.000 NA
ATOM      6  N   UNL     1       6.411   4.926  16.171  0.00  0.00    +0.000 N 
ATOM      7  C   UNL     1       7.120   5.927  16.845  0.00  0.00    +0.000 C 
ATOM      8  O   UNL     1       7.855   6.769  16.322  0.00  0.00    +0.000 OA
ATOM      9  C   UNL     1       7.001   5.929  18.347  0.00  0.00    +0.000 C 
ATOM     10  C   UNL     1       5.717   5.350  18.875  0.00  0.00    +0.000 C 
BRANCH   6  11
ATOM     11  C   UNL     1       6.593   4.653  14.772  0.00  0.00    +0.000 A 
ATOM     12  C   UNL     1       5.769   3.755  14.079  0.00  0.00    +0.000 A 
ATOM     13  C   UNL     1       5.942   3.522  12.709  0.00  0.00    +0.000 A 
ATOM     14  C   UNL     1       6.954   4.171  12.012  0.00  0.00    +0.000 A 
ATOM     15  C   UNL     1       7.786   5.066  12.679  0.00  0.00    +0.000 A 
ATOM     16  C   UNL     1       7.596   5.315  14.044  0.00  0.00    +0.000 A 
ENDBRANCH   6  11
ENDBRANCH   2   4
ENDBRANCH   1   2
BRANCH   1  17
ATOM     17  C   UNL     1       2.811   3.275  20.501  0.00  0.00    +0.000 C 
BRANCH  17  19
ATOM     18  N   UNL     1       2.650   5.700  20.134  0.00  0.00    +0.000 N 
ATOM     19  C   UNL     1       1.934   4.523  20.316  0.00  0.00    +0.000 C 
ATOM     20  O   UNL     1       0.711   4.416  20.336  0.00  0.00    +0.000 OA
ATOM     21  H   UNL     1       3.659   5.645  20.182  0.00  0.00    +0.000 HD
BRANCH  18  25
ATOM     22  C   UNL     1       1.050   9.576  19.448  0.00  0.00    +0.000 A 
ATOM     23  C   UNL     1       0.850   8.946  20.678  0.00  0.00    +0.000 A 
ATOM     24  C   UNL     1       1.369   7.669  20.919  0.00  0.00    +0.000 A 
ATOM     25  C   UNL     1       2.101   6.992  19.942  0.00  0.00    +0.000 A 
ATOM     26  C   UNL     1       2.302   7.623  18.705  0.00  0.00    +0.000 A 
ATOM     27  C   UNL     1       1.780   8.906  18.458  0.00  0.00    +0.000 A 
BRANCH  22  28
ATOM     28  C   UNL     1       0.479  10.938  19.263  0.00  0.00    +0.000 C 
ATOM     29  O   UNL     1       1.156  11.925  19.020  0.00  0.00    +0.000 OA
BRANCH  28  31
ATOM     30  C   UNL     1      -1.564  10.513  18.221  0.00  0.00    +0.000 C 
ATOM     31  O   UNL     1      -0.869  10.918  19.403  0.00  0.00    +0.000 OA
ENDBRANCH  28  31
ENDBRANCH  22  28
ENDBRANCH  18  25
ENDBRANCH  17  19
ENDBRANCH   1  17
TORSDOF 8
ENDMDL
MODEL 2
REMARK VINA RESULT:      -8.6      5.001      7.995
REMARK  Name = 
REMARK  9 active torsions:
REMARK  status: ('A' for Active; 'I' for Inactive)
REMARK    1  A    between atoms: C_1  and  O_2
REMARK    2  A    between atoms: O_2  and  C_3
REMARK    3  A    between atoms: C_3  and  C_5
REMARK    4  A    between atoms: C_8  and  N_9
REMARK    5  A    between atoms: C_10  and  C_12
REMARK    6  A    between atoms: C_12  and  O_13
REMARK    7  A    between atoms: O_13  and  C_14
REMARK    8  A    between atoms: C_14  and  C_16
REMARK    9  A    between atoms: N_18  and  C_19
REMARK                            x       y       z     vdW  Elec       q    Type
REMARK                         _______ _______ _______ _____ _____    ______ ____
ROOT
ATOM      1  O   UNL     1       7.137   6.753  16.918  0.00  0.00    +0.000 OA
ENDROOT
BRANCH   1   2
ATOM      2  C   UNL     1       6.844   5.438  16.897  0.00  0.00    +0.000 C 
ATOM      3  O   UNL     1       7.633   4.518  16.762  0.00  0.00    +0.000 OA
BRANCH   2   4
ATOM      4  C   UNL     1       5.352   5.192  17.113  0.00  0.00    +0.000 C 
ATOM      5  N   UNL     1       4.628   6.109  17.673  0.00  0.00    +0.000 NA
ATOM      6  N   UNL     1       3.285   5.880  17.902  0.00  0.00    +0.000 N 
ATOM      7  C   UNL     1       2.653   4.652  17.679  0.00  0.00    +0.000 C 
ATOM      8  O   UNL     1       1.448   4.423  17.815  0.00  0.00    +0.000 OA
ATOM      9  C   UNL     1       3.549   3.504  17.287  0.00  0.00    +0.000 C 
ATOM     10  C   UNL     1       4.809   3.910  16.572  0.00  0.00    +0.000 C 
BRANCH   6  11
ATOM     11  C   UNL     1       2.611   7.004  18.490  0.00  0.00    +0.000 A 
ATOM     12  C   UNL     1       2.266   8.138  17.739  0.00  0.00    +0.000 A 
ATOM     13  C   UNL     1       1.584   9.213  18.322  0.00  0.00    +0.000 A 
ATOM     14  C   UNL     1       1.249   9.180  19.671  0.00  0.00    +0.000 A 
ATOM     15  C   UNL     1       1.583   8.067  20.437  0.00  0.00    +0.000 A 
ATOM     16  C   UNL     1       2.244   6.983  19.847  0.00  0.00    +0.000 A 
ENDBRANCH   6  11
ENDBRANCH   2   4
ENDBRANCH   1   2
BRANCH   1  17
ATOM     17  C   UNL     1       7.891   7.167  18.064  0.00  0.00    +0.000 C 
BRANCH  17  19
ATOM     18  N   UNL     1       9.051   9.127  18.988  0.00  0.00    +0.000 N 
ATOM     19  C   UNL     1       8.114   8.687  18.061  0.00  0.00    +0.000 C 
ATOM     20  O   UNL     1       7.485   9.393  17.276  0.00  0.00    +0.000 OA
ATOM     21  H   UNL     1       9.462   8.435  19.600  0.00  0.00    +0.000 HD
BRANCH  18  25
ATOM     22  C   UNL     1      10.229  13.139  19.746  0.00  0.00    +0.000 A 
ATOM     23  C   UNL     1      10.176  12.663  18.433  0.00  0.00    +0.000 A 
ATOM     24  C   UNL     1       9.792  11.344  18.168  0.00  0.00    +0.000 A 
ATOM     25  C   UNL     1       9.449  10.470  19.201  0.00  0.00    +0.000 A 
ATOM     26  C   UNL     1       9.503  10.947  20.520  0.00  0.00    +0.000 A 
ATOM     27  C   UNL     1       9.891  12.271  20.792  0.00  0.00    +0.000 A 
BRANCH  22  28
ATOM     28  C   UNL     1      10.635  14.555  19.956  0.00  0.00    +0.000 C 
ATOM     29  O   UNL     1      11.791  14.904  20.140  0.00  0.00    +0.000 OA
BRANCH  28  31
ATOM     30  C   UNL     1       9.625  16.363  18.883  0.00  0.00    +0.000 C 
ATOM     31  O   UNL     1       9.557  15.376  19.915  0.00  0.00    +0.000 OA
ENDBRANCH  28  31
ENDBRANCH  22  28
ENDBRANCH  18  25
ENDBRANCH  17  19
ENDBRANCH   1  17
TORSDOF 8
ENDMDL
MODEL 3
REMARK VINA RESULT:      -8.5      5.080      7.970
REMARK  Name = 
REMARK  9 active torsions:
REMARK  status: ('A' for Active; 'I' for Inactive)
REMARK    1  A    between atoms: C_1  and  O_2
REMARK    2  A    between atoms: O_2  and  C_3
REMARK    3  A    between atoms: C_3  and  C_5
REMARK    4  A    between atoms: C_8  and  N_9
REMARK    5  A    between atoms: C_10  and  C_12
REMARK    6  A    between atoms: C_12  and  O_13
REMARK    7  A    between atoms: O_13  and  C_14
REMARK    8  A    between atoms: C_14  and  C_16
REMARK    9  A    between atoms: N_18  and  C_19
REMARK                            x       y       z     vdW  Elec       q    Type
REMARK                         _______ _______ _______ _____ _____    ______ ____
ROOT
ATOM      1  O   UNL     1       7.346   6.733  16.825  0.00  0.00    +0.000 OA
ENDROOT
BRANCH   1   2
ATOM      2  C   UNL     1       7.080   5.413  16.787  0.00  0.00    +0.000 C 
ATOM      3  O   UNL     1       7.888   4.510  16.650  0.00  0.00    +0.000 OA
BRANCH   2   4
ATOM      4  C   UNL     1       5.590   5.135  16.986  0.00  0.00    +0.000 C 
ATOM      5  N   UNL     1       4.839   6.038  17.531  0.00  0.00    +0.000 NA
ATOM      6  N   UNL     1       3.498   5.780  17.745  0.00  0.00    +0.000 N 
ATOM      7  C   UNL     1       2.898   4.536  17.522  0.00  0.00    +0.000 C 
ATOM      8  O   UNL     1       1.697   4.281  17.644  0.00  0.00    +0.000 OA
ATOM      9  C   UNL     1       3.824   3.407  17.149  0.00  0.00    +0.000 C 
ATOM     10  C   UNL     1       5.084   3.836  16.447  0.00  0.00    +0.000 C 
BRANCH   6  11
ATOM     11  C   UNL     1       2.792   6.893  18.316  0.00  0.00    +0.000 A 
ATOM     12  C   UNL     1       2.375   6.898  19.655  0.00  0.00    +0.000 A 
ATOM     13  C   UNL     1       1.712   8.003  20.203  0.00  0.00    +0.000 A 
ATOM     14  C   UNL     1       1.440   9.117  19.417  0.00  0.00    +0.000 A 
ATOM     15  C   UNL     1       1.843   9.133  18.084  0.00  0.00    +0.000 A 
ATOM     16  C   UNL     1       2.526   8.037  17.544  0.00  0.00    +0.000 A 
ENDBRANCH   6  11
ENDBRANCH   2   4
ENDBRANCH   1   2
BRANCH   1  17
ATOM     17  C   UNL     1       7.845   7.194  18.086  0.00  0.00    +0.000 C 
BRANCH  17  19
ATOM     18  N   UNL     1       9.072   9.133  18.967  0.00  0.00    +0.000 N 
ATOM     19  C   UNL     1       8.112   8.707  18.057  0.00  0.00    +0.000 C 
ATOM     20  O   UNL     1       7.495   9.419  17.269  0.00  0.00    +0.000 OA
ATOM     21  H   UNL     1       9.470   8.439  19.585  0.00  0.00    +0.000 HD
BRANCH  18  25
ATOM     22  C   UNL     1      10.425  13.136  19.416  0.00  0.00    +0.000 A 
ATOM     23  C   UNL     1       9.885  12.455  20.509  0.00  0.00    +0.000 A 
ATOM     24  C   UNL     1       9.432  11.138  20.377  0.00  0.00    +0.000 A 
ATOM     25  C   UNL     1       9.512  10.468  19.155  0.00  0.00    +0.000 A 
ATOM     26  C   UNL     1      10.054  11.150  18.056  0.00  0.00    +0.000 A 
ATOM     27  C   UNL     1      10.507  12.476  18.184  0.00  0.00    +0.000 A 
BRANCH  22  28
ATOM     28  C   UNL     1      10.896  14.532  19.630  0.00  0.00    +0.000 C 
ATOM     29  O   UNL     1      12.063  14.825  19.839  0.00  0.00    +0.000 OA
BRANCH  28  31
ATOM     30  C   UNL     1      10.262  16.755  19.319  0.00  0.00    +0.000 C 
ATOM     31  O   UNL     1       9.860  15.404  19.561  0.00  0.00    +0.000 OA
ENDBRANCH  28  31
ENDBRANCH  22  28
ENDBRANCH  18  25
ENDBRANCH  17  19
ENDBRANCH   1  17
TORSDOF 8
ENDMDL
MODEL 4
REMARK VINA RESULT:      -8.3      0.925      1.360
REMARK  Name = 
REMARK  9 active torsions:
REMARK  status: ('A' for Active; 'I' for Inactive)
REMARK    1  A    between atoms: C_1  and  O_2
REMARK    2  A    between atoms: O_2  and  C_3
REMARK    3  A    between atoms: C_3  and  C_5
REMARK    4  A    between atoms: C_8  and  N_9
REMARK    5  A    between atoms: C_10  and  C_12
REMARK    6  A    between atoms: C_12  and  O_13
REMARK    7  A    between atoms: O_13  and  C_14
REMARK    8  A    between atoms: C_14  and  C_16
REMARK    9  A    between atoms: N_18  and  C_19
REMARK                            x       y       z     vdW  Elec       q    Type
REMARK                         _______ _______ _______ _____ _____    ______ ____
ROOT
ATOM      1  O   UNL     1       3.596   2.788  18.380  0.00  0.00    +0.000 OA
ENDROOT
BRANCH   1   2
ATOM      2  C   UNL     1       4.743   3.073  19.026  0.00  0.00    +0.000 C 
ATOM      3  O   UNL     1       5.156   2.547  20.045  0.00  0.00    +0.000 OA
BRANCH   2   4
ATOM      4  C   UNL     1       5.547   4.149  18.294  0.00  0.00    +0.000 C 
ATOM      5  N   UNL     1       5.763   4.029  17.023  0.00  0.00    +0.000 NA
ATOM      6  N   UNL     1       6.517   4.981  16.362  0.00  0.00    +0.000 N 
ATOM      7  C   UNL     1       7.185   6.030  17.002  0.00  0.00    +0.000 C 
ATOM      8  O   UNL     1       7.818   6.931  16.445  0.00  0.00    +0.000 OA
ATOM      9  C   UNL     1       7.161   6.013  18.509  0.00  0.00    +0.000 C 
ATOM     10  C   UNL     1       5.962   5.330  19.108  0.00  0.00    +0.000 C 
BRANCH   6  11
ATOM     11  C   UNL     1       6.632   4.732  14.951  0.00  0.00    +0.000 A 
ATOM     12  C   UNL     1       7.636   5.327  14.173  0.00  0.00    +0.000 A 
ATOM     13  C   UNL     1       7.751   5.051  12.805  0.00  0.00    +0.000 A 
ATOM     14  C   UNL     1       6.853   4.187  12.188  0.00  0.00    +0.000 A 
ATOM     15  C   UNL     1       5.847   3.587  12.940  0.00  0.00    +0.000 A 
ATOM     16  C   UNL     1       5.749   3.845  14.312  0.00  0.00    +0.000 A 
ENDBRANCH   6  11
ENDBRANCH   2   4
ENDBRANCH   1   2
BRANCH   1  17
ATOM     17  C   UNL     1       2.412   3.166  19.092  0.00  0.00    +0.000 C 
BRANCH  17  19
ATOM     18  N   UNL     1       2.337   5.588  19.507  0.00  0.00    +0.000 N 
ATOM     19  C   UNL     1       1.929   4.561  18.665  0.00  0.00    +0.000 C 
ATOM     20  O   UNL     1       1.247   4.685  17.650  0.00  0.00    +0.000 OA
ATOM     21  H   UNL     1       2.863   5.334  20.332  0.00  0.00    +0.000 HD
BRANCH  18  25
ATOM     22  C   UNL     1       1.484   9.712  18.938  0.00  0.00    +0.000 A 
ATOM     23  C   UNL     1       1.171   9.095  20.152  0.00  0.00    +0.000 A 
ATOM     24  C   UNL     1       1.443   7.738  20.354  0.00  0.00    +0.000 A 
ATOM     25  C   UNL     1       2.037   6.965  19.354  0.00  0.00    +0.000 A 
ATOM     26  C   UNL     1       2.351   7.582  18.135  0.00  0.00    +0.000 A 
ATOM     27  C   UNL     1       2.076   8.946  17.926  0.00  0.00    +0.000 A 
BRANCH  22  28
ATOM     28  C   UNL     1       1.176  11.161  18.795  0.00  0.00    +0.000 C 
ATOM     29  O   UNL     1       2.002  12.045  18.959  0.00  0.00    +0.000 OA
BRANCH  28  31
ATOM     30  C   UNL     1      -0.924  11.855  19.537  0.00  0.00    +0.000 C 
ATOM     31  O   UNL     1      -0.126  11.345  18.465  0.00  0.00    +0.000 OA
ENDBRANCH  28  31
ENDBRANCH  22  28
ENDBRANCH  18  25
ENDBRANCH  17  19
ENDBRANCH   1  17
TORSDOF 8
ENDMDL
MODEL 5
REMARK VINA RESULT:      -8.2      5.526      8.273
REMARK  Name = 
REMARK  9 active torsions:
REMARK  status: ('A' for Active; 'I' for Inactive)
REMARK    1  A    between atoms: C_1  and  O_2
REMARK    2  A    between atoms: O_2  and  C_3
REMARK    3  A    between atoms: C_3  and  C_5
REMARK    4  A    between atoms: C_8  and  N_9
REMARK    5  A    between atoms: C_10  and  C_12
REMARK    6  A    between atoms: C_12  and  O_13
REMARK    7  A    between atoms: O_13  and  C_14
REMARK    8  A    between atoms: C_14  and  C_16
REMARK    9  A    between atoms: N_18  and  C_19
REMARK                            x       y       z     vdW  Elec       q    Type
REMARK                         _______ _______ _______ _____ _____    ______ ____
ROOT
ATOM      1  O   UNL     1       7.468   7.208  18.125  0.00  0.00    +0.000 OA
ENDROOT
BRANCH   1   2
ATOM      2  C   UNL     1       7.345   5.958  18.613  0.00  0.00    +0.000 C 
ATOM      3  O   UNL     1       8.091   5.407  19.403  0.00  0.00    +0.000 OA
BRANCH   2   4
ATOM      4  C   UNL     1       6.084   5.272  18.086  0.00  0.00    +0.000 C 
ATOM      5  N   UNL     1       5.191   4.847  18.922  0.00  0.00    +0.000 NA
ATOM      6  N   UNL     1       4.065   4.197  18.454  0.00  0.00    +0.000 N 
ATOM      7  C   UNL     1       3.868   3.845  17.115  0.00  0.00    +0.000 C 
ATOM      8  O   UNL     1       2.854   3.318  16.648  0.00  0.00    +0.000 OA
ATOM      9  C   UNL     1       5.026   4.094  16.183  0.00  0.00    +0.000 C 
ATOM     10  C   UNL     1       5.935   5.218  16.600  0.00  0.00    +0.000 C 
BRANCH   6  11
ATOM     11  C   UNL     1       3.152   3.825  19.498  0.00  0.00    +0.000 A 
ATOM     12  C   UNL     1       1.871   4.388  19.599  0.00  0.00    +0.000 A 
ATOM     13  C   UNL     1       0.983   3.993  20.606  0.00  0.00    +0.000 A 
ATOM     14  C   UNL     1       1.366   3.038  21.542  0.00  0.00    +0.000 A 
ATOM     15  C   UNL     1       2.633   2.466  21.463  0.00  0.00    +0.000 A 
ATOM     16  C   UNL     1       3.511   2.846  20.441  0.00  0.00    +0.000 A 
ENDBRANCH   6  11
ENDBRANCH   2   4
ENDBRANCH   1   2
BRANCH   1  17
ATOM     17  C   UNL     1       8.520   7.971  18.728  0.00  0.00    +0.000 C 
BRANCH  17  19
ATOM     18  N   UNL     1       9.505  10.222  18.773  0.00  0.00    +0.000 N 
ATOM     19  C   UNL     1       8.496   9.428  18.241  0.00  0.00    +0.000 C 
ATOM     20  O   UNL     1       7.633   9.790  17.446  0.00  0.00    +0.000 OA
ATOM     21  H   UNL     1      10.123   9.799  19.452  0.00  0.00    +0.000 HD
BRANCH  18  25
ATOM     22  C   UNL     1      10.234  14.312  17.878  0.00  0.00    +0.000 A 
ATOM     23  C   UNL     1       9.260  13.966  18.818  0.00  0.00    +0.000 A 
ATOM     24  C   UNL     1       9.007  12.624  19.122  0.00  0.00    +0.000 A 
ATOM     25  C   UNL     1       9.719  11.597  18.500  0.00  0.00    +0.000 A 
ATOM     26  C   UNL     1      10.696  11.943  17.555  0.00  0.00    +0.000 A 
ATOM     27  C   UNL     1      10.952  13.290  17.244  0.00  0.00    +0.000 A 
BRANCH  22  28
ATOM     28  C   UNL     1      10.458  15.758  17.610  0.00  0.00    +0.000 C 
ATOM     29  O   UNL     1      11.084  16.176  16.647  0.00  0.00    +0.000 OA
BRANCH  28  31
ATOM     30  C   UNL     1       9.461  17.808  18.108  0.00  0.00    +0.000 C 
ATOM     31  O   UNL     1       9.881  16.521  18.570  0.00  0.00    +0.000 OA
ENDBRANCH  28  31
ENDBRANCH  22  28
ENDBRANCH  18  25
ENDBRANCH  17  19
ENDBRANCH   1  17
TORSDOF 8
ENDMDL
MODEL 6
REMARK VINA RESULT:      -8.1      2.685      8.922
REMARK  Name = 
REMARK  9 active torsions:
REMARK  status: ('A' for Active; 'I' for Inactive)
REMARK    1  A    between atoms: C_1  and  O_2
REMARK    2  A    between atoms: O_2  and  C_3
REMARK    3  A    between atoms: C_3  and  C_5
REMARK    4  A    between atoms: C_8  and  N_9
REMARK    5  A    between atoms: C_10  and  C_12
REMARK    6  A    between atoms: C_12  and  O_13
REMARK    7  A    between atoms: O_13  and  C_14
REMARK    8  A    between atoms: C_14  and  C_16
REMARK    9  A    between atoms: N_18  and  C_19
REMARK                            x       y       z     vdW  Elec       q    Type
REMARK                         _______ _______ _______ _____ _____    ______ ____
ROOT
ATOM      1  O   UNL     1       1.564   8.118  20.418  0.00  0.00    +0.000 OA
ENDROOT
BRANCH   1   2
ATOM      2  C   UNL     1       0.700   8.865  21.134  0.00  0.00    +0.000 C 
ATOM      3  O   UNL     1       0.272   8.617  22.248  0.00  0.00    +0.000 OA
BRANCH   2   4
ATOM      4  C   UNL     1       0.321  10.147  20.394  0.00  0.00    +0.000 C 
ATOM      5  N   UNL     1      -0.653  10.128  19.540  0.00  0.00    +0.000 NA
ATOM      6  N   UNL     1      -0.979  11.276  18.843  0.00  0.00    +0.000 N 
ATOM      7  C   UNL     1      -0.238  12.462  18.902  0.00  0.00    +0.000 C 
ATOM      8  O   UNL     1      -0.527  13.523  18.343  0.00  0.00    +0.000 OA
ATOM      9  C   UNL     1       1.051  12.403  19.682  0.00  0.00    +0.000 C 
ATOM     10  C   UNL     1       1.070  11.380  20.784  0.00  0.00    +0.000 C 
BRANCH   6  11
ATOM     11  C   UNL     1      -2.104  11.106  17.967  0.00  0.00    +0.000 A 
ATOM     12  C   UNL     1      -3.365  11.643  18.267  0.00  0.00    +0.000 A 
ATOM     13  C   UNL     1      -4.444  11.492  17.388  0.00  0.00    +0.000 A 
ATOM     14  C   UNL     1      -4.286  10.787  16.200  0.00  0.00    +0.000 A 
ATOM     15  C   UNL     1      -3.045  10.243  15.883  0.00  0.00    +0.000 A 
ATOM     16  C   UNL     1      -1.961  10.416  16.751  0.00  0.00    +0.000 A 
ENDBRANCH   6  11
ENDBRANCH   2   4
ENDBRANCH   1   2
BRANCH   1  17
ATOM     17  C   UNL     1       1.543   6.724  20.745  0.00  0.00    +0.000 C 
BRANCH  17  19
ATOM     18  N   UNL     1       2.914   6.597  18.709  0.00  0.00    +0.000 N 
ATOM     19  C   UNL     1       2.526   5.934  19.867  0.00  0.00    +0.000 C 
ATOM     20  O   UNL     1       2.899   4.819  20.221  0.00  0.00    +0.000 OA
ATOM     21  H   UNL     1       2.494   7.498  18.524  0.00  0.00    +0.000 HD
BRANCH  18  25
ATOM     22  C   UNL     1       5.619   5.238  15.727  0.00  0.00    +0.000 A 
ATOM     23  C   UNL     1       4.839   4.319  16.433  0.00  0.00    +0.000 A 
ATOM     24  C   UNL     1       3.946   4.751  17.419  0.00  0.00    +0.000 A 
ATOM     25  C   UNL     1       3.806   6.106  17.722  0.00  0.00    +0.000 A 
ATOM     26  C   UNL     1       4.589   7.030  17.015  0.00  0.00    +0.000 A 
ATOM     27  C   UNL     1       5.491   6.600  16.025  0.00  0.00    +0.000 A 
BRANCH  22  28
ATOM     28  C   UNL     1       6.542   4.711  14.685  0.00  0.00    +0.000 C 
ATOM     29  O   UNL     1       7.624   5.214  14.426  0.00  0.00    +0.000 OA
BRANCH  28  31
ATOM     30  C   UNL     1       6.268   3.557  12.676  0.00  0.00    +0.000 C 
ATOM     31  O   UNL     1       6.012   3.619  14.082  0.00  0.00    +0.000 OA
ENDBRANCH  28  31
ENDBRANCH  22  28
ENDBRANCH  18  25
ENDBRANCH  17  19
ENDBRANCH   1  17
TORSDOF 8
ENDMDL
MODEL 7
REMARK VINA RESULT:      -8.1      2.924      5.554
REMARK  Name = 
REMARK  9 active torsions:
REMARK  status: ('A' for Active; 'I' for Inactive)
REMARK    1  A    between atoms: C_1  and  O_2
REMARK    2  A    between atoms: O_2  and  C_3
REMARK    3  A    between atoms: C_3  and  C_5
REMARK    4  A    between atoms: C_8  and  N_9
REMARK    5  A    between atoms: C_10  and  C_12
REMARK    6  A    between atoms: C_12  and  O_13
REMARK    7  A    between atoms: O_13  and  C_14
REMARK    8  A    between atoms: C_14  and  C_16
REMARK    9  A    between atoms: N_18  and  C_19
REMARK                            x       y       z     vdW  Elec       q    Type
REMARK                         _______ _______ _______ _____ _____    ______ ____
ROOT
ATOM      1  O   UNL     1       1.670   8.292  18.438  0.00  0.00    +0.000 OA
ENDROOT
BRANCH   1   2
ATOM      2  C   UNL     1       1.887   7.822  19.682  0.00  0.00    +0.000 C 
ATOM      3  O   UNL     1       1.669   8.405  20.730  0.00  0.00    +0.000 OA
BRANCH   2   4
ATOM      4  C   UNL     1       2.422   6.390  19.655  0.00  0.00    +0.000 C 
ATOM      5  N   UNL     1       3.373   6.079  18.832  0.00  0.00    +0.000 NA
ATOM      6  N   UNL     1       3.838   4.779  18.779  0.00  0.00    +0.000 N 
ATOM      7  C   UNL     1       3.261   3.714  19.481  0.00  0.00    +0.000 C 
ATOM      8  O   UNL     1       3.680   2.554  19.507  0.00  0.00    +0.000 OA
ATOM      9  C   UNL     1       1.987   4.021  20.225  0.00  0.00    +0.000 C 
ATOM     10  C   UNL     1       1.848   5.452  20.666  0.00  0.00    +0.000 C 
BRANCH   6  11
ATOM     11  C   UNL     1       4.919   4.602  17.851  0.00  0.00    +0.000 A 
ATOM     12  C   UNL     1       4.752   3.915  16.639  0.00  0.00    +0.000 A 
ATOM     13  C   UNL     1       5.809   3.776  15.732  0.00  0.00    +0.000 A 
ATOM     14  C   UNL     1       7.059   4.308  16.029  0.00  0.00    +0.000 A 
ATOM     15  C   UNL     1       7.250   4.992  17.227  0.00  0.00    +0.000 A 
ATOM     16  C   UNL     1       6.185   5.150  18.121  0.00  0.00    +0.000 A 
ENDBRANCH   6  11
ENDBRANCH   2   4
ENDBRANCH   1   2
BRANCH   1  17
ATOM     17  C   UNL     1       1.759   9.717  18.326  0.00  0.00    +0.000 C 
BRANCH  17  19
ATOM     18  N   UNL     1      -0.550  10.153  17.606  0.00  0.00    +0.000 N 
ATOM     19  C   UNL     1       0.399  10.380  18.595  0.00  0.00    +0.000 C 
ATOM     20  O   UNL     1       0.234  11.037  19.619  0.00  0.00    +0.000 OA
ATOM     21  H   UNL     1      -0.261   9.624  16.794  0.00  0.00    +0.000 HD
BRANCH  18  25
ATOM     22  C   UNL     1      -4.550  11.581  17.461  0.00  0.00    +0.000 A 
ATOM     23  C   UNL     1      -3.781  11.774  18.611  0.00  0.00    +0.000 A 
ATOM     24  C   UNL     1      -2.463  11.308  18.675  0.00  0.00    +0.000 A 
ATOM     25  C   UNL     1      -1.881  10.642  17.595  0.00  0.00    +0.000 A 
ATOM     26  C   UNL     1      -2.652  10.447  16.440  0.00  0.00    +0.000 A 
ATOM     27  C   UNL     1      -3.978  10.911  16.372  0.00  0.00    +0.000 A 
BRANCH  22  28
ATOM     28  C   UNL     1      -5.940  12.111  17.457  0.00  0.00    +0.000 C 
ATOM     29  O   UNL     1      -6.243  13.204  17.004  0.00  0.00    +0.000 OA
BRANCH  28  31
ATOM     30  C   UNL     1      -7.352  11.667  19.260  0.00  0.00    +0.000 C 
ATOM     31  O   UNL     1      -6.795  11.223  18.020  0.00  0.00    +0.000 OA
ENDBRANCH  28  31
ENDBRANCH  22  28
ENDBRANCH  18  25
ENDBRANCH  17  19
ENDBRANCH   1  17
TORSDOF 8
ENDMDL
MODEL 8
REMARK VINA RESULT:      -8.0      3.877      6.100
REMARK  Name = 
REMARK  9 active torsions:
REMARK  status: ('A' for Active; 'I' for Inactive)
REMARK    1  A    between atoms: C_1  and  O_2
REMARK    2  A    between atoms: O_2  and  C_3
REMARK    3  A    between atoms: C_3  and  C_5
REMARK    4  A    between atoms: C_8  and  N_9
REMARK    5  A    between atoms: C_10  and  C_12
REMARK    6  A    between atoms: C_12  and  O_13
REMARK    7  A    between atoms: O_13  and  C_14
REMARK    8  A    between atoms: C_14  and  C_16
REMARK    9  A    between atoms: N_18  and  C_19
REMARK                            x       y       z     vdW  Elec       q    Type
REMARK                         _______ _______ _______ _____ _____    ______ ____
ROOT
ATOM      1  O   UNL     1       1.318   9.324  19.471  0.00  0.00    +0.000 OA
ENDROOT
BRANCH   1   2
ATOM      2  C   UNL     1       1.908   8.695  18.436  0.00  0.00    +0.000 C 
ATOM      3  O   UNL     1       2.032   9.120  17.300  0.00  0.00    +0.000 OA
BRANCH   2   4
ATOM      4  C   UNL     1       2.479   7.340  18.854  0.00  0.00    +0.000 C 
ATOM      5  N   UNL     1       3.423   6.801  18.150  0.00  0.00    +0.000 NA
ATOM      6  N   UNL     1       3.921   5.560  18.503  0.00  0.00    +0.000 N 
ATOM      7  C   UNL     1       3.384   4.766  19.522  0.00  0.00    +0.000 C 
ATOM      8  O   UNL     1       3.834   3.683  19.907  0.00  0.00    +0.000 OA
ATOM      9  C   UNL     1       2.116   5.270  20.162  0.00  0.00    +0.000 C 
ATOM     10  C   UNL     1       1.948   6.765  20.126  0.00  0.00    +0.000 C 
BRANCH   6  11
ATOM     11  C   UNL     1       4.989   5.116  17.652  0.00  0.00    +0.000 A 
ATOM     12  C   UNL     1       6.332   5.189  18.049  0.00  0.00    +0.000 A 
ATOM     13  C   UNL     1       7.359   4.724  17.219  0.00  0.00    +0.000 A 
ATOM     14  C   UNL     1       7.062   4.194  15.968  0.00  0.00    +0.000 A 
ATOM     15  C   UNL     1       5.736   4.114  15.552  0.00  0.00    +0.000 A 
ATOM     16  C   UNL     1       4.709   4.556  16.394  0.00  0.00    +0.000 A 
ENDBRANCH   6  11
ENDBRANCH   2   4
ENDBRANCH   1   2
BRANCH   1  17
ATOM     17  C   UNL     1       0.891  10.659  19.179  0.00  0.00    +0.000 C 
BRANCH  17  19
ATOM     18  N   UNL     1      -0.597  11.765  20.794  0.00  0.00    +0.000 N 
ATOM     19  C   UNL     1      -0.533  10.911  19.699  0.00  0.00    +0.000 C 
ATOM     20  O   UNL     1      -1.488  10.374  19.144  0.00  0.00    +0.000 OA
ATOM     21  H   UNL     1       0.277  12.102  21.174  0.00  0.00    +0.000 HD
BRANCH  18  25
ATOM     22  C   UNL     1      -4.086  12.916  22.928  0.00  0.00    +0.000 A 
ATOM     23  C   UNL     1      -3.941  13.271  21.585  0.00  0.00    +0.000 A 
ATOM     24  C   UNL     1      -2.797  12.901  20.869  0.00  0.00    +0.000 A 
ATOM     25  C   UNL     1      -1.774  12.168  21.473  0.00  0.00    +0.000 A 
ATOM     26  C   UNL     1      -1.918  11.812  22.822  0.00  0.00    +0.000 A 
ATOM     27  C   UNL     1      -3.065  12.184  23.546  0.00  0.00    +0.000 A 
BRANCH  22  28
ATOM     28  C   UNL     1      -5.333  13.334  23.626  0.00  0.00    +0.000 C 
ATOM     29  O   UNL     1      -5.642  14.500  23.812  0.00  0.00    +0.000 OA
BRANCH  28  31
ATOM     30  C   UNL     1      -7.403  12.262  23.551  0.00  0.00    +0.000 C 
ATOM     31  O   UNL     1      -6.051  12.252  24.016  0.00  0.00    +0.000 OA
ENDBRANCH  28  31
ENDBRANCH  22  28
ENDBRANCH  18  25
ENDBRANCH  17  19
ENDBRANCH   1  17
TORSDOF 8
ENDMDL
MODEL 9
REMARK VINA RESULT:      -8.0      2.656      8.928
REMARK  Name = 
REMARK  9 active torsions:
REMARK  status: ('A' for Active; 'I' for Inactive)
REMARK    1  A    between atoms: C_1  and  O_2
REMARK    2  A    between atoms: O_2  and  C_3
REMARK    3  A    between atoms: C_3  and  C_5
REMARK    4  A    between atoms: C_8  and  N_9
REMARK    5  A    between atoms: C_10  and  C_12
REMARK    6  A    between atoms: C_12  and  O_13
REMARK    7  A    between atoms: O_13  and  C_14
REMARK    8  A    between atoms: C_14  and  C_16
REMARK    9  A    between atoms: N_18  and  C_19
REMARK                            x       y       z     vdW  Elec       q    Type
REMARK                         _______ _______ _______ _____ _____    ______ ____
ROOT
ATOM      1  O   UNL     1       0.313   8.292  21.169  0.00  0.00    +0.000 OA
ENDROOT
BRANCH   1   2
ATOM      2  C   UNL     1       0.667   9.489  21.677  0.00  0.00    +0.000 C 
ATOM      3  O   UNL     1       1.224   9.692  22.741  0.00  0.00    +0.000 OA
BRANCH   2   4
ATOM      4  C   UNL     1       0.324  10.628  20.717  0.00  0.00    +0.000 C 
ATOM      5  N   UNL     1      -0.613  10.463  19.839  0.00  0.00    +0.000 NA
ATOM      6  N   UNL     1      -0.905  11.477  18.946  0.00  0.00    +0.000 N 
ATOM      7  C   UNL     1      -0.163  12.658  18.837  0.00  0.00    +0.000 C 
ATOM      8  O   UNL     1      -0.425  13.610  18.097  0.00  0.00    +0.000 OA
ATOM      9  C   UNL     1       1.092  12.735  19.669  0.00  0.00    +0.000 C 
ATOM     10  C   UNL     1       1.061  11.911  20.927  0.00  0.00    +0.000 C 
BRANCH   6  11
ATOM     11  C   UNL     1      -1.994  11.159  18.065  0.00  0.00    +0.000 A 
ATOM     12  C   UNL     1      -1.841  10.277  16.985  0.00  0.00    +0.000 A 
ATOM     13  C   UNL     1      -2.920   9.956  16.153  0.00  0.00    +0.000 A 
ATOM     14  C   UNL     1      -4.168  10.526  16.375  0.00  0.00    +0.000 A 
ATOM     15  C   UNL     1      -4.344  11.406  17.439  0.00  0.00    +0.000 A 
ATOM     16  C   UNL     1      -3.269  11.707  18.285  0.00  0.00    +0.000 A 
ENDBRANCH   6  11
ENDBRANCH   2   4
ENDBRANCH   1   2
BRANCH   1  17
ATOM     17  C   UNL     1       1.333   7.290  21.262  0.00  0.00    +0.000 C 
BRANCH  17  19
ATOM     18  N   UNL     1       3.066   6.173  19.925  0.00  0.00    +0.000 N 
ATOM     19  C   UNL     1       2.181   7.243  19.982  0.00  0.00    +0.000 C 
ATOM     20  O   UNL     1       2.034   8.107  19.122  0.00  0.00    +0.000 OA
ATOM     21  H   UNL     1       3.110   5.560  20.728  0.00  0.00    +0.000 HD
BRANCH  18  25
ATOM     22  C   UNL     1       5.816   5.235  16.824  0.00  0.00    +0.000 A 
ATOM     23  C   UNL     1       4.835   6.208  16.617  0.00  0.00    +0.000 A 
ATOM     24  C   UNL     1       3.921   6.526  17.627  0.00  0.00    +0.000 A 
ATOM     25  C   UNL     1       3.965   5.886  18.867  0.00  0.00    +0.000 A 
ATOM     26  C   UNL     1       4.949   4.909  19.076  0.00  0.00    +0.000 A 
ATOM     27  C   UNL     1       5.867   4.583  18.063  0.00  0.00    +0.000 A 
BRANCH  22  28
ATOM     28  C   UNL     1       6.762   4.952  15.710  0.00  0.00    +0.000 C 
ATOM     29  O   UNL     1       7.668   5.705  15.389  0.00  0.00    +0.000 OA
BRANCH  28  31
ATOM     30  C   UNL     1       5.931   3.897  13.803  0.00  0.00    +0.000 C 
ATOM     31  O   UNL     1       6.470   3.767  15.121  0.00  0.00    +0.000 OA
ENDBRANCH  28  31
ENDBRANCH  22  28
ENDBRANCH  18  25
ENDBRANCH  17  19
ENDBRANCH   1  17
TORSDOF 8
ENDMDL
