MODEL 1
REMARK VINA RESULT:      -7.5      0.000      0.000
REMARK  Name = 
REMARK  12 active torsions:
REMARK  status: ('A' for Active; 'I' for Inactive)
REMARK    1  A    between atoms: C_1  and  O_2
REMARK    2  A    between atoms: O_2  and  C_3
REMARK    3  A    between atoms: C_6  and  C_7
REMARK    4  A    between atoms: C_9  and  O_10
REMARK    5  A    between atoms: O_10  and  C_11
REMARK    6  A    between atoms: C_13  and  O_14
REMARK    7  A    between atoms: O_14  and  C_15
REMARK    8  A    between atoms: C_20  and  C_21
REMARK    9  A    between atoms: C_23  and  O_24
REMARK   10  A    between atoms: O_24  and  C_25
REMARK   11  A    between atoms: C_27  and  O_28
REMARK   12  A    between atoms: O_28  and  C_29
REMARK                            x       y       z     vdW  Elec       q    Type
REMARK                         _______ _______ _______ _____ _____    ______ ____
ROOT
ATOM      1  C   UNL     1       0.543  10.454  18.504  0.00  0.00    +0.000 C 
ATOM      2  C   UNL     1       1.085  11.862  18.773  0.00  0.00    +0.000 A 
ATOM      3  C   UNL     1       0.731  13.153  18.397  0.00  0.00    +0.000 A 
ATOM      4  C   UNL     1       1.698  14.116  18.621  0.00  0.00    +0.000 A 
ATOM      5  C   UNL     1       2.521  13.911  19.726  0.00  0.00    +0.000 A 
ATOM      6  C   UNL     1       2.189  12.857  20.597  0.00  0.00    +0.000 A 
ATOM      7  C   UNL     1       1.280  11.919  20.108  0.00  0.00    +0.000 A 
ATOM      8  C   UNL     1      -0.024  11.312  20.565  0.00  0.00    +0.000 C 
ATOM      9  O   UNL     1      -0.482  11.475  21.687  0.00  0.00    +0.000 OA
ATOM     10  C   UNL     1      -0.698  10.503  19.416  0.00  0.00    +0.000 C 
ENDROOT
BRANCH   1  14
ATOM     11  C   UNL     1       2.628   6.673  19.493  0.00  0.00    +0.000 A 
ATOM     12  C   UNL     1       2.838   7.327  18.285  0.00  0.00    +0.000 A 
ATOM     13  C   UNL     1       2.263   8.579  18.038  0.00  0.00    +0.000 A 
ATOM     14  C   UNL     1       1.393   9.201  18.969  0.00  0.00    +0.000 A 
ATOM     15  C   UNL     1       1.231   8.547  20.204  0.00  0.00    +0.000 A 
ATOM     16  C   UNL     1       1.840   7.295  20.458  0.00  0.00    +0.000 A 
BRANCH  11  18
ATOM     17  C   UNL     1       4.353   5.197  18.773  0.00  0.00    +0.000 C 
ATOM     18  O   UNL     1       3.210   5.441  19.591  0.00  0.00    +0.000 OA
ENDBRANCH  11  18
ENDBRANCH   1  14
BRANCH  10  19
ATOM     19  C   UNL     1      -1.912  10.866  18.541  0.00  0.00    +0.000 A 
ATOM     20  C   UNL     1      -1.858  10.485  17.164  0.00  0.00    +0.000 A 
ATOM     21  C   UNL     1      -2.878  10.740  16.243  0.00  0.00    +0.000 A 
ATOM     22  C   UNL     1      -4.019  11.380  16.689  0.00  0.00    +0.000 A 
ATOM     23  C   UNL     1      -4.122  11.759  18.039  0.00  0.00    +0.000 A 
ATOM     24  C   UNL     1      -3.092  11.476  18.966  0.00  0.00    +0.000 A 
BRANCH  21  25
ATOM     25  O   UNL     1      -2.617  10.315  14.969  0.00  0.00    +0.000 OA
ATOM     26  C   UNL     1      -3.723  10.065  14.108  0.00  0.00    +0.000 C 
ENDBRANCH  21  25
BRANCH  23  27
ATOM     27  O   UNL     1      -5.300  12.407  18.312  0.00  0.00    +0.000 OA
ATOM     28  C   UNL     1      -6.243  12.504  17.256  0.00  0.00    +0.000 C 
ENDBRANCH  23  27
ENDBRANCH  10  19
BRANCH   3  29
ATOM     29  O   UNL     1      -0.585  13.615  18.656  0.00  0.00    +0.000 OA
ATOM     30  C   UNL     1      -0.698  14.940  19.281  0.00  0.00    +0.000 C 
ENDBRANCH   3  29
BRANCH   5  31
ATOM     31  O   UNL     1       3.382  14.934  19.977  0.00  0.00    +0.000 OA
ATOM     32  C   UNL     1       4.074  15.403  18.832  0.00  0.00    +0.000 C 
ENDBRANCH   5  31
TORSDOF 7
ENDMDL
MODEL 2
REMARK VINA RESULT:      -7.2      1.199      1.338
REMARK  Name = 
REMARK  12 active torsions:
REMARK  status: ('A' for Active; 'I' for Inactive)
REMARK    1  A    between atoms: C_1  and  O_2
REMARK    2  A    between atoms: O_2  and  C_3
REMARK    3  A    between atoms: C_6  and  C_7
REMARK    4  A    between atoms: C_9  and  O_10
REMARK    5  A    between atoms: O_10  and  C_11
REMARK    6  A    between atoms: C_13  and  O_14
REMARK    7  A    between atoms: O_14  and  C_15
REMARK    8  A    between atoms: C_20  and  C_21
REMARK    9  A    between atoms: C_23  and  O_24
REMARK   10  A    between atoms: O_24  and  C_25
REMARK   11  A    between atoms: C_27  and  O_28
REMARK   12  A    between atoms: O_28  and  C_29
REMARK                            x       y       z     vdW  Elec       q    Type
REMARK                         _______ _______ _______ _____ _____    ______ ____
ROOT
ATOM      1  C   UNL     1       0.241  11.083  18.786  0.00  0.00    +0.000 C 
ATOM      2  C   UNL     1       0.861  12.480  18.895  0.00  0.00    +0.000 A 
ATOM      3  C   UNL     1       0.435  13.780  18.649  0.00  0.00    +0.000 A 
ATOM      4  C   UNL     1       1.440  14.728  18.587  0.00  0.00    +0.000 A 
ATOM      5  C   UNL     1       2.547  14.498  19.399  0.00  0.00    +0.000 A 
ATOM      6  C   UNL     1       2.468  13.438  20.321  0.00  0.00    +0.000 A 
ATOM      7  C   UNL     1       1.441  12.518  20.114  0.00  0.00    +0.000 A 
ATOM      8  C   UNL     1       0.318  11.923  20.929  0.00  0.00    +0.000 C 
ATOM      9  O   UNL     1       0.212  12.080  22.137  0.00  0.00    +0.000 OA
ATOM     10  C   UNL     1      -0.676  11.137  20.023  0.00  0.00    +0.000 C 
ENDROOT
BRANCH   1  14
ATOM     11  C   UNL     1       2.528   7.294  18.979  0.00  0.00    +0.000 A 
ATOM     12  C   UNL     1       2.606   8.137  17.878  0.00  0.00    +0.000 A 
ATOM     13  C   UNL     1       1.971   9.385  17.883  0.00  0.00    +0.000 A 
ATOM     14  C   UNL     1       1.170   9.813  18.972  0.00  0.00    +0.000 A 
ATOM     15  C   UNL     1       1.142   8.967  20.096  0.00  0.00    +0.000 A 
ATOM     16  C   UNL     1       1.811   7.720  20.094  0.00  0.00    +0.000 A 
BRANCH  11  18
ATOM     17  C   UNL     1       4.067   5.965  17.739  0.00  0.00    +0.000 C 
ATOM     18  O   UNL     1       3.155   6.089  18.829  0.00  0.00    +0.000 OA
ENDBRANCH  11  18
ENDBRANCH   1  14
BRANCH  10  19
ATOM     19  C   UNL     1      -2.087  11.527  19.546  0.00  0.00    +0.000 A 
ATOM     20  C   UNL     1      -2.506  11.026  18.274  0.00  0.00    +0.000 A 
ATOM     21  C   UNL     1      -3.754  11.287  17.704  0.00  0.00    +0.000 A 
ATOM     22  C   UNL     1      -4.652  12.060  18.417  0.00  0.00    +0.000 A 
ATOM     23  C   UNL     1      -4.288  12.563  19.678  0.00  0.00    +0.000 A 
ATOM     24  C   UNL     1      -3.030  12.273  20.254  0.00  0.00    +0.000 A 
BRANCH  21  25
ATOM     25  O   UNL     1      -3.947  10.731  16.468  0.00  0.00    +0.000 OA
ATOM     26  C   UNL     1      -2.890  10.830  15.519  0.00  0.00    +0.000 C 
ENDBRANCH  21  25
BRANCH  23  27
ATOM     27  O   UNL     1      -5.277  13.333  20.239  0.00  0.00    +0.000 OA
ATOM     28  C   UNL     1      -6.311  12.651  20.930  0.00  0.00    +0.000 C 
ENDBRANCH  23  27
ENDBRANCH  10  19
BRANCH   3  29
ATOM     29  O   UNL     1      -0.740  14.257  19.287  0.00  0.00    +0.000 OA
ATOM     30  C   UNL     1      -0.736  15.672  19.683  0.00  0.00    +0.000 C 
ENDBRANCH   3  29
BRANCH   5  31
ATOM     31  O   UNL     1       3.461  15.506  19.394  0.00  0.00    +0.000 OA
ATOM     32  C   UNL     1       3.395  16.341  18.250  0.00  0.00    +0.000 C 
ENDBRANCH   5  31
TORSDOF 7
ENDMDL
MODEL 3
REMARK VINA RESULT:      -7.1      1.052      2.261
REMARK  Name = 
REMARK  12 active torsions:
REMARK  status: ('A' for Active; 'I' for Inactive)
REMARK    1  A    between atoms: C_1  and  O_2
REMARK    2  A    between atoms: O_2  and  C_3
REMARK    3  A    between atoms: C_6  and  C_7
REMARK    4  A    between atoms: C_9  and  O_10
REMARK    5  A    between atoms: O_10  and  C_11
REMARK    6  A    between atoms: C_13  and  O_14
REMARK    7  A    between atoms: O_14  and  C_15
REMARK    8  A    between atoms: C_20  and  C_21
REMARK    9  A    between atoms: C_23  and  O_24
REMARK   10  A    between atoms: O_24  and  C_25
REMARK   11  A    between atoms: C_27  and  O_28
REMARK   12  A    between atoms: O_28  and  C_29
REMARK                            x       y       z     vdW  Elec       q    Type
REMARK                         _______ _______ _______ _____ _____    ______ ____
ROOT
ATOM      1  C   UNL     1       0.450  10.744  18.654  0.00  0.00    +0.000 C 
ATOM      2  C   UNL     1       1.069  12.138  18.799  0.00  0.00    +0.000 A 
ATOM      3  C   UNL     1       0.693  13.433  18.462  0.00  0.00    +0.000 A 
ATOM      4  C   UNL     1       1.710  14.370  18.499  0.00  0.00    +0.000 A 
ATOM      5  C   UNL     1       2.703  14.156  19.452  0.00  0.00    +0.000 A 
ATOM      6  C   UNL     1       2.494  13.127  20.388  0.00  0.00    +0.000 A 
ATOM      7  C   UNL     1       1.490  12.210  20.080  0.00  0.00    +0.000 A 
ATOM      8  C   UNL     1       0.265  11.651  20.764  0.00  0.00    +0.000 C 
ATOM      9  O   UNL     1       0.010  11.846  21.943  0.00  0.00    +0.000 OA
ATOM     10  C   UNL     1      -0.616  10.846  19.763  0.00  0.00    +0.000 C 
ENDROOT
BRANCH   1  14
ATOM     11  C   UNL     1       2.608   6.929  19.292  0.00  0.00    +0.000 A 
ATOM     12  C   UNL     1       2.752   7.661  18.120  0.00  0.00    +0.000 A 
ATOM     13  C   UNL     1       2.157   8.920  17.983  0.00  0.00    +0.000 A 
ATOM     14  C   UNL     1       1.331   9.472  18.995  0.00  0.00    +0.000 A 
ATOM     15  C   UNL     1       1.237   8.739  20.192  0.00  0.00    +0.000 A 
ATOM     16  C   UNL     1       1.866   7.479  20.334  0.00  0.00    +0.000 A 
BRANCH  11  18
ATOM     17  C   UNL     1       3.405   5.089  18.007  0.00  0.00    +0.000 C 
ATOM     18  O   UNL     1       3.203   5.699  19.281  0.00  0.00    +0.000 OA
ENDBRANCH  11  18
ENDBRANCH   1  14
BRANCH  10  19
ATOM     19  C   UNL     1      -1.950  11.233  19.099  0.00  0.00    +0.000 A 
ATOM     20  C   UNL     1      -2.897  11.940  19.904  0.00  0.00    +0.000 A 
ATOM     21  C   UNL     1      -4.149  12.363  19.449  0.00  0.00    +0.000 A 
ATOM     22  C   UNL     1      -4.490  12.103  18.135  0.00  0.00    +0.000 A 
ATOM     23  C   UNL     1      -3.584  11.423  17.302  0.00  0.00    +0.000 A 
ATOM     24  C   UNL     1      -2.312  11.020  17.769  0.00  0.00    +0.000 A 
BRANCH  21  25
ATOM     25  O   UNL     1      -4.913  13.001  20.387  0.00  0.00    +0.000 OA
ATOM     26  C   UNL     1      -5.971  12.270  20.998  0.00  0.00    +0.000 C 
ENDBRANCH  21  25
BRANCH  23  27
ATOM     27  O   UNL     1      -4.086  11.219  16.041  0.00  0.00    +0.000 OA
ATOM     28  C   UNL     1      -3.229  10.593  15.100  0.00  0.00    +0.000 C 
ENDBRANCH  23  27
ENDBRANCH  10  19
BRANCH   3  29
ATOM     29  O   UNL     1      -0.546  13.941  18.930  0.00  0.00    +0.000 OA
ATOM     30  C   UNL     1      -0.551  15.343  19.369  0.00  0.00    +0.000 C 
ENDBRANCH   3  29
BRANCH   5  31
ATOM     31  O   UNL     1       3.623  15.156  19.533  0.00  0.00    +0.000 OA
ATOM     32  C   UNL     1       3.066  16.459  19.492  0.00  0.00    +0.000 C 
ENDBRANCH   5  31
TORSDOF 7
ENDMDL
MODEL 4
REMARK VINA RESULT:      -7.1      0.674      2.028
REMARK  Name = 
REMARK  12 active torsions:
REMARK  status: ('A' for Active; 'I' for Inactive)
REMARK    1  A    between atoms: C_1  and  O_2
REMARK    2  A    between atoms: O_2  and  C_3
REMARK    3  A    between atoms: C_6  and  C_7
REMARK    4  A    between atoms: C_9  and  O_10
REMARK    5  A    between atoms: O_10  and  C_11
REMARK    6  A    between atoms: C_13  and  O_14
REMARK    7  A    between atoms: O_14  and  C_15
REMARK    8  A    between atoms: C_20  and  C_21
REMARK    9  A    between atoms: C_23  and  O_24
REMARK   10  A    between atoms: O_24  and  C_25
REMARK   11  A    between atoms: C_27  and  O_28
REMARK   12  A    between atoms: O_28  and  C_29
REMARK                            x       y       z     vdW  Elec       q    Type
REMARK                         _______ _______ _______ _____ _____    ______ ____
ROOT
ATOM      1  C   UNL     1       0.520  10.404  18.463  0.00  0.00    +0.000 C 
ATOM      2  C   UNL     1       1.014  11.814  18.800  0.00  0.00    +0.000 A 
ATOM      3  C   UNL     1       0.673  13.106  18.417  0.00  0.00    +0.000 A 
ATOM      4  C   UNL     1       1.602  14.080  18.739  0.00  0.00    +0.000 A 
ATOM      5  C   UNL     1       2.330  13.867  19.906  0.00  0.00    +0.000 A 
ATOM      6  C   UNL     1       1.942  12.793  20.728  0.00  0.00    +0.000 A 
ATOM      7  C   UNL     1       1.093  11.851  20.148  0.00  0.00    +0.000 A 
ATOM      8  C   UNL     1      -0.235  11.216  20.481  0.00  0.00    +0.000 C 
ATOM      9  O   UNL     1      -0.790  11.353  21.562  0.00  0.00    +0.000 OA
ATOM     10  C   UNL     1      -0.796  10.418  19.266  0.00  0.00    +0.000 C 
ENDROOT
BRANCH   1  14
ATOM     11  C   UNL     1       2.527   6.627  19.613  0.00  0.00    +0.000 A 
ATOM     12  C   UNL     1       2.729   7.209  18.369  0.00  0.00    +0.000 A 
ATOM     13  C   UNL     1       2.181   8.461  18.065  0.00  0.00    +0.000 A 
ATOM     14  C   UNL     1       1.346   9.155  18.978  0.00  0.00    +0.000 A 
ATOM     15  C   UNL     1       1.194   8.572  20.250  0.00  0.00    +0.000 A 
ATOM     16  C   UNL     1       1.775   7.319  20.558  0.00  0.00    +0.000 A 
BRANCH  11  18
ATOM     17  C   UNL     1       2.244   4.368  20.316  0.00  0.00    +0.000 C 
ATOM     18  O   UNL     1       3.079   5.386  19.766  0.00  0.00    +0.000 OA
ENDBRANCH  11  18
ENDBRANCH   1  14
BRANCH  10  19
ATOM     19  C   UNL     1      -1.936  10.779  18.296  0.00  0.00    +0.000 A 
ATOM     20  C   UNL     1      -3.151  11.265  18.873  0.00  0.00    +0.000 A 
ATOM     21  C   UNL     1      -4.275  11.636  18.130  0.00  0.00    +0.000 A 
ATOM     22  C   UNL     1      -4.206  11.551  16.752  0.00  0.00    +0.000 A 
ATOM     23  C   UNL     1      -3.026  11.093  16.141  0.00  0.00    +0.000 A 
ATOM     24  C   UNL     1      -1.888  10.741  16.903  0.00  0.00    +0.000 A 
BRANCH  21  25
ATOM     25  O   UNL     1      -5.343  12.051  18.877  0.00  0.00    +0.000 OA
ATOM     26  C   UNL     1      -6.605  11.436  18.637  0.00  0.00    +0.000 C 
ENDBRANCH  21  25
BRANCH  23  27
ATOM     27  O   UNL     1      -3.132  11.040  14.773  0.00  0.00    +0.000 OA
ATOM     28  C   UNL     1      -3.769   9.901  14.219  0.00  0.00    +0.000 C 
ENDBRANCH  23  27
ENDBRANCH  10  19
BRANCH   3  29
ATOM     29  O   UNL     1      -0.668  13.545  18.570  0.00  0.00    +0.000 OA
ATOM     30  C   UNL     1      -0.858  14.826  19.263  0.00  0.00    +0.000 C 
ENDBRANCH   3  29
BRANCH   5  31
ATOM     31  O   UNL     1       3.151  14.898  20.247  0.00  0.00    +0.000 OA
ATOM     32  C   UNL     1       2.856  16.116  19.583  0.00  0.00    +0.000 C 
ENDBRANCH   5  31
TORSDOF 7
ENDMDL
MODEL 5
REMARK VINA RESULT:      -6.6      1.437      1.974
REMARK  Name = 
REMARK  12 active torsions:
REMARK  status: ('A' for Active; 'I' for Inactive)
REMARK    1  A    between atoms: C_1  and  O_2
REMARK    2  A    between atoms: O_2  and  C_3
REMARK    3  A    between atoms: C_6  and  C_7
REMARK    4  A    between atoms: C_9  and  O_10
REMARK    5  A    between atoms: O_10  and  C_11
REMARK    6  A    between atoms: C_13  and  O_14
REMARK    7  A    between atoms: O_14  and  C_15
REMARK    8  A    between atoms: C_20  and  C_21
REMARK    9  A    between atoms: C_23  and  O_24
REMARK   10  A    between atoms: O_24  and  C_25
REMARK   11  A    between atoms: C_27  and  O_28
REMARK   12  A    between atoms: O_28  and  C_29
REMARK                            x       y       z     vdW  Elec       q    Type
REMARK                         _______ _______ _______ _____ _____    ______ ____
ROOT
ATOM      1  C   UNL     1      -0.202  11.168  18.767  0.00  0.00    +0.000 C 
ATOM      2  C   UNL     1       0.561  12.493  18.871  0.00  0.00    +0.000 A 
ATOM      3  C   UNL     1       0.243  13.838  18.726  0.00  0.00    +0.000 A 
ATOM      4  C   UNL     1       1.326  14.689  18.601  0.00  0.00    +0.000 A 
ATOM      5  C   UNL     1       2.480  14.314  19.286  0.00  0.00    +0.000 A 
ATOM      6  C   UNL     1       2.386  13.220  20.166  0.00  0.00    +0.000 A 
ATOM      7  C   UNL     1       1.258  12.413  20.026  0.00  0.00    +0.000 A 
ATOM      8  C   UNL     1       0.166  11.885  20.925  0.00  0.00    +0.000 C 
ATOM      9  O   UNL     1       0.195  11.987  22.143  0.00  0.00    +0.000 OA
ATOM     10  C   UNL     1      -0.985  11.244  20.092  0.00  0.00    +0.000 C 
ENDROOT
BRANCH   1  14
ATOM     11  C   UNL     1       2.392   7.601  19.181  0.00  0.00    +0.000 A 
ATOM     12  C   UNL     1       1.538   8.004  20.200  0.00  0.00    +0.000 A 
ATOM     13  C   UNL     1       0.641   9.061  20.009  0.00  0.00    +0.000 A 
ATOM     14  C   UNL     1       0.610   9.808  18.803  0.00  0.00    +0.000 A 
ATOM     15  C   UNL     1       1.447   9.356  17.767  0.00  0.00    +0.000 A 
ATOM     16  C   UNL     1       2.331   8.267  17.959  0.00  0.00    +0.000 A 
BRANCH  11  18
ATOM     17  C   UNL     1       2.662   5.381  19.998  0.00  0.00    +0.000 C 
ATOM     18  O   UNL     1       3.247   6.587  19.511  0.00  0.00    +0.000 OA
ENDBRANCH  11  18
ENDBRANCH   1  14
BRANCH  10  19
ATOM     19  C   UNL     1      -2.390  11.790  19.779  0.00  0.00    +0.000 A 
ATOM     20  C   UNL     1      -2.956  11.439  18.514  0.00  0.00    +0.000 A 
ATOM     21  C   UNL     1      -4.220  11.852  18.082  0.00  0.00    +0.000 A 
ATOM     22  C   UNL     1      -4.981  12.630  18.934  0.00  0.00    +0.000 A 
ATOM     23  C   UNL     1      -4.471  12.987  20.194  0.00  0.00    +0.000 A 
ATOM     24  C   UNL     1      -3.200  12.544  20.628  0.00  0.00    +0.000 A 
BRANCH  21  25
ATOM     25  O   UNL     1      -4.563  11.427  16.828  0.00  0.00    +0.000 OA
ATOM     26  C   UNL     1      -3.533  10.908  15.993  0.00  0.00    +0.000 C 
ENDBRANCH  21  25
BRANCH  23  27
ATOM     27  O   UNL     1      -5.336  13.782  20.903  0.00  0.00    +0.000 OA
ATOM     28  C   UNL     1      -5.548  13.450  22.266  0.00  0.00    +0.000 C 
ENDBRANCH  23  27
ENDBRANCH  10  19
BRANCH   3  29
ATOM     29  O   UNL     1      -0.811  14.390  19.499  0.00  0.00    +0.000 OA
ATOM     30  C   UNL     1      -0.778  15.845  19.699  0.00  0.00    +0.000 C 
ENDBRANCH   3  29
BRANCH   5  31
ATOM     31  O   UNL     1       3.484  15.231  19.231  0.00  0.00    +0.000 OA
ATOM     32  C   UNL     1       3.089  16.492  18.716  0.00  0.00    +0.000 C 
ENDBRANCH   5  31
TORSDOF 7
ENDMDL
MODEL 6
REMARK VINA RESULT:      -6.5      0.619      1.048
REMARK  Name = 
REMARK  12 active torsions:
REMARK  status: ('A' for Active; 'I' for Inactive)
REMARK    1  A    between atoms: C_1  and  O_2
REMARK    2  A    between atoms: O_2  and  C_3
REMARK    3  A    between atoms: C_6  and  C_7
REMARK    4  A    between atoms: C_9  and  O_10
REMARK    5  A    between atoms: O_10  and  C_11
REMARK    6  A    between atoms: C_13  and  O_14
REMARK    7  A    between atoms: O_14  and  C_15
REMARK    8  A    between atoms: C_20  and  C_21
REMARK    9  A    between atoms: C_23  and  O_24
REMARK   10  A    between atoms: O_24  and  C_25
REMARK   11  A    between atoms: C_27  and  O_28
REMARK   12  A    between atoms: O_28  and  C_29
REMARK                            x       y       z     vdW  Elec       q    Type
REMARK                         _______ _______ _______ _____ _____    ______ ____
ROOT
ATOM      1  C   UNL     1       0.354  10.286  18.209  0.00  0.00    +0.000 C 
ATOM      2  C   UNL     1       0.900  11.635  18.687  0.00  0.00    +0.000 A 
ATOM      3  C   UNL     1       0.556  12.969  18.504  0.00  0.00    +0.000 A 
ATOM      4  C   UNL     1       1.526  13.884  18.876  0.00  0.00    +0.000 A 
ATOM      5  C   UNL     1       2.338  13.512  19.944  0.00  0.00    +0.000 A 
ATOM      6  C   UNL     1       1.994  12.343  20.647  0.00  0.00    +0.000 A 
ATOM      7  C   UNL     1       1.085  11.493  20.018  0.00  0.00    +0.000 A 
ATOM      8  C   UNL     1      -0.226  10.833  20.370  0.00  0.00    +0.000 C 
ATOM      9  O   UNL     1      -0.693  10.831  21.500  0.00  0.00    +0.000 OA
ATOM     10  C   UNL     1      -0.894  10.207  19.109  0.00  0.00    +0.000 C 
ENDROOT
BRANCH   1  14
ATOM     11  C   UNL     1       2.972   6.891  19.325  0.00  0.00    +0.000 A 
ATOM     12  C   UNL     1       1.970   7.348  20.172  0.00  0.00    +0.000 A 
ATOM     13  C   UNL     1       1.077   8.343  19.756  0.00  0.00    +0.000 A 
ATOM     14  C   UNL     1       1.194   8.972  18.490  0.00  0.00    +0.000 A 
ATOM     15  C   UNL     1       2.183   8.463  17.630  0.00  0.00    +0.000 A 
ATOM     16  C   UNL     1       3.064   7.438  18.048  0.00  0.00    +0.000 A 
BRANCH  11  18
ATOM     17  C   UNL     1       4.201   4.874  19.023  0.00  0.00    +0.000 C 
ATOM     18  O   UNL     1       3.801   5.951  19.868  0.00  0.00    +0.000 OA
ENDBRANCH  11  18
ENDBRANCH   1  14
BRANCH  10  19
ATOM     19  C   UNL     1      -2.099  10.702  18.288  0.00  0.00    +0.000 A 
ATOM     20  C   UNL     1      -2.075  10.452  16.881  0.00  0.00    +0.000 A 
ATOM     21  C   UNL     1      -3.090  10.835  16.001  0.00  0.00    +0.000 A 
ATOM     22  C   UNL     1      -4.198  11.479  16.520  0.00  0.00    +0.000 A 
ATOM     23  C   UNL     1      -4.272  11.733  17.901  0.00  0.00    +0.000 A 
ATOM     24  C   UNL     1      -3.247  11.320  18.784  0.00  0.00    +0.000 A 
BRANCH  21  25
ATOM     25  O   UNL     1      -2.860  10.522  14.689  0.00  0.00    +0.000 OA
ATOM     26  C   UNL     1      -3.936   9.976  13.934  0.00  0.00    +0.000 C 
ENDBRANCH  21  25
BRANCH  23  27
ATOM     27  O   UNL     1      -5.418  12.402  18.249  0.00  0.00    +0.000 OA
ATOM     28  C   UNL     1      -6.303  12.756  17.199  0.00  0.00    +0.000 C 
ENDBRANCH  23  27
ENDBRANCH  10  19
BRANCH   3  29
ATOM     29  O   UNL     1      -0.760  13.396  18.818  0.00  0.00    +0.000 OA
ATOM     30  C   UNL     1      -0.871  14.596  19.659  0.00  0.00    +0.000 C 
ENDBRANCH   3  29
BRANCH   5  31
ATOM     31  O   UNL     1       3.202  14.482  20.351  0.00  0.00    +0.000 OA
ATOM     32  C   UNL     1       2.570  15.667  20.804  0.00  0.00    +0.000 C 
ENDBRANCH   5  31
TORSDOF 7
ENDMDL
MODEL 7
REMARK VINA RESULT:      -6.4      1.874      2.515
REMARK  Name = 
REMARK  12 active torsions:
REMARK  status: ('A' for Active; 'I' for Inactive)
REMARK    1  A    between atoms: C_1  and  O_2
REMARK    2  A    between atoms: O_2  and  C_3
REMARK    3  A    between atoms: C_6  and  C_7
REMARK    4  A    between atoms: C_9  and  O_10
REMARK    5  A    between atoms: O_10  and  C_11
REMARK    6  A    between atoms: C_13  and  O_14
REMARK    7  A    between atoms: O_14  and  C_15
REMARK    8  A    between atoms: C_20  and  C_21
REMARK    9  A    between atoms: C_23  and  O_24
REMARK   10  A    between atoms: O_24  and  C_25
REMARK   11  A    between atoms: C_27  and  O_28
REMARK   12  A    between atoms: O_28  and  C_29
REMARK                            x       y       z     vdW  Elec       q    Type
REMARK                         _______ _______ _______ _____ _____    ______ ____
ROOT
ATOM      1  C   UNL     1      -0.338  11.633  19.473  0.00  0.00    +0.000 C 
ATOM      2  C   UNL     1       0.300  13.015  19.305  0.00  0.00    +0.000 A 
ATOM      3  C   UNL     1      -0.158  14.293  19.003  0.00  0.00    +0.000 A 
ATOM      4  C   UNL     1       0.821  15.200  18.644  0.00  0.00    +0.000 A 
ATOM      5  C   UNL     1       2.064  15.029  19.248  0.00  0.00    +0.000 A 
ATOM      6  C   UNL     1       2.159  14.078  20.280  0.00  0.00    +0.000 A 
ATOM      7  C   UNL     1       1.105  13.170  20.378  0.00  0.00    +0.000 A 
ATOM      8  C   UNL     1       0.159  12.697  21.455  0.00  0.00    +0.000 C 
ATOM      9  O   UNL     1       0.291  12.985  22.636  0.00  0.00    +0.000 OA
ATOM     10  C   UNL     1      -0.998  11.846  20.850  0.00  0.00    +0.000 C 
ENDROOT
BRANCH   1  14
ATOM     11  C   UNL     1       1.958   7.846  19.574  0.00  0.00    +0.000 A 
ATOM     12  C   UNL     1       1.963   8.672  18.457  0.00  0.00    +0.000 A 
ATOM     13  C   UNL     1       1.329   9.920  18.484  0.00  0.00    +0.000 A 
ATOM     14  C   UNL     1       0.601  10.365  19.617  0.00  0.00    +0.000 A 
ATOM     15  C   UNL     1       0.648   9.537  20.753  0.00  0.00    +0.000 A 
ATOM     16  C   UNL     1       1.316   8.289  20.727  0.00  0.00    +0.000 A 
BRANCH  11  18
ATOM     17  C   UNL     1       3.027   6.324  18.086  0.00  0.00    +0.000 C 
ATOM     18  O   UNL     1       2.574   6.638  19.401  0.00  0.00    +0.000 OA
ENDBRANCH  11  18
ENDBRANCH   1  14
BRANCH  10  19
ATOM     19  C   UNL     1      -2.472  12.220  20.613  0.00  0.00    +0.000 A 
ATOM     20  C   UNL     1      -3.021  11.921  19.327  0.00  0.00    +0.000 A 
ATOM     21  C   UNL     1      -4.340  12.196  18.957  0.00  0.00    +0.000 A 
ATOM     22  C   UNL     1      -5.176  12.774  19.894  0.00  0.00    +0.000 A 
ATOM     23  C   UNL     1      -4.683  13.073  21.176  0.00  0.00    +0.000 A 
ATOM     24  C   UNL     1      -3.352  12.769  21.545  0.00  0.00    +0.000 A 
BRANCH  21  25
ATOM     25  O   UNL     1      -4.657  11.852  17.671  0.00  0.00    +0.000 OA
ATOM     26  C   UNL     1      -5.815  12.441  17.088  0.00  0.00    +0.000 C 
ENDBRANCH  21  25
BRANCH  23  27
ATOM     27  O   UNL     1      -5.628  13.668  21.974  0.00  0.00    +0.000 OA
ATOM     28  C   UNL     1      -5.651  13.289  23.340  0.00  0.00    +0.000 C 
ENDBRANCH  23  27
ENDBRANCH  10  19
BRANCH   3  29
ATOM     29  O   UNL     1      -1.184  14.868  19.797  0.00  0.00    +0.000 OA
ATOM     30  C   UNL     1      -1.176  16.333  19.909  0.00  0.00    +0.000 C 
ENDBRANCH   3  29
BRANCH   5  31
ATOM     31  O   UNL     1       2.966  16.006  18.956  0.00  0.00    +0.000 OA
ATOM     32  C   UNL     1       2.548  16.890  17.928  0.00  0.00    +0.000 C 
ENDBRANCH   5  31
TORSDOF 7
ENDMDL
MODEL 8
REMARK VINA RESULT:      -6.4      1.731      3.051
REMARK  Name = 
REMARK  12 active torsions:
REMARK  status: ('A' for Active; 'I' for Inactive)
REMARK    1  A    between atoms: C_1  and  O_2
REMARK    2  A    between atoms: O_2  and  C_3
REMARK    3  A    between atoms: C_6  and  C_7
REMARK    4  A    between atoms: C_9  and  O_10
REMARK    5  A    between atoms: O_10  and  C_11
REMARK    6  A    between atoms: C_13  and  O_14
REMARK    7  A    between atoms: O_14  and  C_15
REMARK    8  A    between atoms: C_20  and  C_21
REMARK    9  A    between atoms: C_23  and  O_24
REMARK   10  A    between atoms: O_24  and  C_25
REMARK   11  A    between atoms: C_27  and  O_28
REMARK   12  A    between atoms: O_28  and  C_29
REMARK                            x       y       z     vdW  Elec       q    Type
REMARK                         _______ _______ _______ _____ _____    ______ ____
ROOT
ATOM      1  C   UNL     1      -0.328  11.252  18.940  0.00  0.00    +0.000 C 
ATOM      2  C   UNL     1       0.448  12.573  18.903  0.00  0.00    +0.000 A 
ATOM      3  C   UNL     1       0.123  13.914  18.730  0.00  0.00    +0.000 A 
ATOM      4  C   UNL     1       1.192  14.747  18.455  0.00  0.00    +0.000 A 
ATOM      5  C   UNL     1       2.408  14.393  19.033  0.00  0.00    +0.000 A 
ATOM      6  C   UNL     1       2.401  13.340  19.967  0.00  0.00    +0.000 A 
ATOM      7  C   UNL     1       1.260  12.539  19.982  0.00  0.00    +0.000 A 
ATOM      8  C   UNL     1       0.265  12.062  21.013  0.00  0.00    +0.000 C 
ATOM      9  O   UNL     1       0.421  12.219  22.215  0.00  0.00    +0.000 OA
ATOM     10  C   UNL     1      -0.969  11.396  20.334  0.00  0.00    +0.000 C 
ENDROOT
BRANCH   1  14
ATOM     11  C   UNL     1       2.261   7.674  19.275  0.00  0.00    +0.000 A 
ATOM     12  C   UNL     1       1.457   8.093  20.327  0.00  0.00    +0.000 A 
ATOM     13  C   UNL     1       0.558   9.154  20.165  0.00  0.00    +0.000 A 
ATOM     14  C   UNL     1       0.476   9.888  18.954  0.00  0.00    +0.000 A 
ATOM     15  C   UNL     1       1.262   9.418  17.886  0.00  0.00    +0.000 A 
ATOM     16  C   UNL     1       2.147   8.326  18.050  0.00  0.00    +0.000 A 
BRANCH  11  18
ATOM     17  C   UNL     1       3.222   5.590  18.636  0.00  0.00    +0.000 C 
ATOM     18  O   UNL     1       3.123   6.658  19.577  0.00  0.00    +0.000 OA
ENDBRANCH  11  18
ENDBRANCH   1  14
BRANCH  10  19
ATOM     19  C   UNL     1      -2.396  11.940  20.143  0.00  0.00    +0.000 A 
ATOM     20  C   UNL     1      -2.966  12.669  21.233  0.00  0.00    +0.000 A 
ATOM     21  C   UNL     1      -4.247  13.228  21.215  0.00  0.00    +0.000 A 
ATOM     22  C   UNL     1      -5.006  13.088  20.068  0.00  0.00    +0.000 A 
ATOM     23  C   UNL     1      -4.481  12.392  18.966  0.00  0.00    +0.000 A 
ATOM     24  C   UNL     1      -3.175  11.850  18.989  0.00  0.00    +0.000 A 
BRANCH  21  25
ATOM     25  O   UNL     1      -4.610  13.864  22.370  0.00  0.00    +0.000 OA
ATOM     26  C   UNL     1      -5.338  13.121  23.342  0.00  0.00    +0.000 C 
ENDBRANCH  21  25
BRANCH  23  27
ATOM     27  O   UNL     1      -5.369  12.318  17.922  0.00  0.00    +0.000 OA
ATOM     28  C   UNL     1      -4.955  11.598  16.772  0.00  0.00    +0.000 C 
ENDBRANCH  23  27
ENDBRANCH  10  19
BRANCH   3  29
ATOM     29  O   UNL     1      -0.842  14.510  19.582  0.00  0.00    +0.000 OA
ATOM     30  C   UNL     1      -0.782  15.972  19.710  0.00  0.00    +0.000 C 
ENDBRANCH   3  29
BRANCH   5  31
ATOM     31  O   UNL     1       3.406  15.296  18.832  0.00  0.00    +0.000 OA
ATOM     32  C   UNL     1       3.091  16.304  17.886  0.00  0.00    +0.000 C 
ENDBRANCH   5  31
TORSDOF 7
ENDMDL
MODEL 9
REMARK VINA RESULT:      -6.3      2.216      3.510
REMARK  Name = 
REMARK  12 active torsions:
REMARK  status: ('A' for Active; 'I' for Inactive)
REMARK    1  A    between atoms: C_1  and  O_2
REMARK    2  A    between atoms: O_2  and  C_3
REMARK    3  A    between atoms: C_6  and  C_7
REMARK    4  A    between atoms: C_9  and  O_10
REMARK    5  A    between atoms: O_10  and  C_11
REMARK    6  A    between atoms: C_13  and  O_14
REMARK    7  A    between atoms: O_14  and  C_15
REMARK    8  A    between atoms: C_20  and  C_21
REMARK    9  A    between atoms: C_23  and  O_24
REMARK   10  A    between atoms: O_24  and  C_25
REMARK   11  A    between atoms: C_27  and  O_28
REMARK   12  A    between atoms: O_28  and  C_29
REMARK                            x       y       z     vdW  Elec       q    Type
REMARK                         _______ _______ _______ _____ _____    ______ ____
ROOT
ATOM      1  C   UNL     1      -0.518  11.929  19.459  0.00  0.00    +0.000 C 
ATOM      2  C   UNL     1       0.030  13.356  19.363  0.00  0.00    +0.000 A 
ATOM      3  C   UNL     1      -0.520  14.625  19.215  0.00  0.00    +0.000 A 
ATOM      4  C   UNL     1       0.376  15.617  18.858  0.00  0.00    +0.000 A 
ATOM      5  C   UNL     1       1.675  15.469  19.340  0.00  0.00    +0.000 A 
ATOM      6  C   UNL     1       1.909  14.441  20.271  0.00  0.00    +0.000 A 
ATOM      7  C   UNL     1       0.917  13.467  20.375  0.00  0.00    +0.000 A 
ATOM      8  C   UNL     1       0.094  12.849  21.479  0.00  0.00    +0.000 C 
ATOM      9  O   UNL     1       0.314  13.044  22.666  0.00  0.00    +0.000 OA
ATOM     10  C   UNL     1      -1.065  11.985  20.899  0.00  0.00    +0.000 C 
ENDROOT
BRANCH   1  14
ATOM     11  C   UNL     1       2.006   8.321  18.974  0.00  0.00    +0.000 A 
ATOM     12  C   UNL     1       1.984   9.330  18.018  0.00  0.00    +0.000 A 
ATOM     13  C   UNL     1       1.274  10.515  18.242  0.00  0.00    +0.000 A 
ATOM     14  C   UNL     1       0.495  10.712  19.411  0.00  0.00    +0.000 A 
ATOM     15  C   UNL     1       0.568   9.701  20.387  0.00  0.00    +0.000 A 
ATOM     16  C   UNL     1       1.313   8.518  20.165  0.00  0.00    +0.000 A 
BRANCH  11  18
ATOM     17  C   UNL     1       2.846   6.183  19.604  0.00  0.00    +0.000 C 
ATOM     18  O   UNL     1       2.701   7.201  18.614  0.00  0.00    +0.000 OA
ENDBRANCH  11  18
ENDBRANCH   1  14
BRANCH  10  19
ATOM     19  C   UNL     1      -2.572  12.290  20.819  0.00  0.00    +0.000 A 
ATOM     20  C   UNL     1      -3.230  12.637  22.039  0.00  0.00    +0.000 A 
ATOM     21  C   UNL     1      -4.591  12.944  22.133  0.00  0.00    +0.000 A 
ATOM     22  C   UNL     1      -5.346  12.931  20.976  0.00  0.00    +0.000 A 
ATOM     23  C   UNL     1      -4.737  12.609  19.750  0.00  0.00    +0.000 A 
ATOM     24  C   UNL     1      -3.355  12.323  19.665  0.00  0.00    +0.000 A 
BRANCH  21  25
ATOM     25  O   UNL     1      -5.028  13.226  23.399  0.00  0.00    +0.000 OA
ATOM     26  C   UNL     1      -4.315  12.660  24.494  0.00  0.00    +0.000 C 
ENDBRANCH  21  25
BRANCH  23  27
ATOM     27  O   UNL     1      -5.628  12.613  18.706  0.00  0.00    +0.000 OA
ATOM     28  C   UNL     1      -6.482  13.740  18.591  0.00  0.00    +0.000 C 
ENDBRANCH  23  27
ENDBRANCH  10  19
BRANCH   3  29
ATOM     29  O   UNL     1      -1.500  15.069  20.140  0.00  0.00    +0.000 OA
ATOM     30  C   UNL     1      -1.713  16.521  20.216  0.00  0.00    +0.000 C 
ENDBRANCH   3  29
BRANCH   5  31
ATOM     31  O   UNL     1       2.495  16.519  19.062  0.00  0.00    +0.000 OA
ATOM     32  C   UNL     1       3.021  16.510  17.745  0.00  0.00    +0.000 C 
ENDBRANCH   5  31
TORSDOF 7
ENDMDL
