MODEL 1
REMARK VINA RESULT:      -9.0      0.000      0.000
REMARK  Name = 
REMARK  6 active torsions:
REMARK  status: ('A' for Active; 'I' for Inactive)
REMARK    1  A    between atoms: N_19  and  C_20
REMARK    2  A    between atoms: C_20  and  C_21
REMARK    3  A    between atoms: C_21  and  O_22
REMARK    4  A    between atoms: C_21  and  C_23
REMARK    5  A    between atoms: C_23  and  N_24
REMARK    6  A    between atoms: C_26  and  C_27
REMARK                            x       y       z     vdW  Elec       q    Type
REMARK                         _______ _______ _______ _____ _____    ______ ____
ROOT
ATOM      1  O   UNL     1       1.068   6.795  21.452  0.00  0.00    +0.000 OA
ATOM      2  C   UNL     1       1.751   6.893  20.453  0.00  0.00    +0.000 C 
ATOM      3  C   UNL     1       1.778   8.036  19.560  0.00  0.00    +0.000 A 
ATOM      4  C   UNL     1       1.061   9.216  19.703  0.00  0.00    +0.000 A 
ATOM      5  C   UNL     1       1.288  10.207  18.760  0.00  0.00    +0.000 A 
ATOM      6  C   UNL     1       2.205   9.983  17.723  0.00  0.00    +0.000 A 
ATOM      7  C   UNL     1       2.888   8.756  17.594  0.00  0.00    +0.000 A 
ATOM      8  C   UNL     1       2.666   7.747  18.521  0.00  0.00    +0.000 A 
ATOM      9  C   UNL     1       3.134   6.357  18.685  0.00  0.00    +0.000 A 
ATOM     10  C   UNL     1       2.670   5.893  19.865  0.00  0.00    +0.000 A 
ATOM     11  C   UNL     1       2.778   4.488  20.233  0.00  0.00    +0.000 A 
ATOM     12  C   UNL     1       2.171   3.992  21.372  0.00  0.00    +0.000 A 
ATOM     13  C   UNL     1       1.312   2.919  21.253  0.00  0.00    +0.000 A 
ATOM     14  C   UNL     1       1.472   2.071  20.170  0.00  0.00    +0.000 A 
ATOM     15  C   UNL     1       2.455   2.350  19.200  0.00  0.00    +0.000 A 
ATOM     16  C   UNL     1       3.047   3.611  19.188  0.00  0.00    +0.000 A 
ATOM     17  C   UNL     1       3.839   4.114  18.031  0.00  0.00    +0.000 A 
ATOM     18  O   UNL     1       4.450   3.319  17.327  0.00  0.00    +0.000 OA
ATOM     19  N   UNL     1       3.809   5.520  17.807  0.00  0.00    +0.000 N 
ENDROOT
BRANCH  19  20
ATOM     20  C   UNL     1       4.461   5.977  16.580  0.00  0.00    +0.000 C 
BRANCH  20  21
ATOM     21  C   UNL     1       5.966   6.319  16.738  0.00  0.00    +0.000 C 
BRANCH  21  22
ATOM     22  O   UNL     1       6.207   6.902  18.027  0.00  0.00    +0.000 OA
ATOM     23  H   UNL     1       5.361   7.259  18.350  0.00  0.00    +0.000 HD
ENDBRANCH  21  22
BRANCH  21  24
ATOM     24  C   UNL     1       6.874   5.109  16.516  0.00  0.00    +0.000 C 
BRANCH  24  25
ATOM     25  N   UNL     1       6.981   4.777  15.109  0.00  0.00    +0.000 N 
ATOM     26  C   UNL     1       6.291   3.821  14.427  0.00  0.00    +0.000 A 
ATOM     27  C   UNL     1       6.717   3.999  13.123  0.00  0.00    +0.000 A 
ATOM     28  N   UNL     1       7.557   5.053  13.072  0.00  0.00    +0.000 NA
ATOM     29  N   UNL     1       7.722   5.529  14.302  0.00  0.00    +0.000 NA
BRANCH  27  30
ATOM     30  C   UNL     1       6.378   3.220  11.906  0.00  0.00    +0.000 C 
ATOM     31 BR   UNL     1       4.429   3.284  11.638  0.00  0.00    +0.000 Br
ENDBRANCH  27  30
ENDBRANCH  24  25
ENDBRANCH  21  24
ENDBRANCH  20  21
ENDBRANCH  19  20
TORSDOF 6
ENDMDL
MODEL 2
REMARK VINA RESULT:      -8.1      3.800      7.178
REMARK  Name = 
REMARK  6 active torsions:
REMARK  status: ('A' for Active; 'I' for Inactive)
REMARK    1  A    between atoms: N_19  and  C_20
REMARK    2  A    between atoms: C_20  and  C_21
REMARK    3  A    between atoms: C_21  and  O_22
REMARK    4  A    between atoms: C_21  and  C_23
REMARK    5  A    between atoms: C_23  and  N_24
REMARK    6  A    between atoms: C_26  and  C_27
REMARK                            x       y       z     vdW  Elec       q    Type
REMARK                         _______ _______ _______ _____ _____    ______ ____
ROOT
ATOM      1  O   UNL     1       3.714   2.107  17.241  0.00  0.00    +0.000 OA
ATOM      2  C   UNL     1       3.747   3.321  17.239  0.00  0.00    +0.000 C 
ATOM      3  C   UNL     1       4.680   4.138  16.485  0.00  0.00    +0.000 A 
ATOM      4  C   UNL     1       5.665   3.684  15.620  0.00  0.00    +0.000 A 
ATOM      5  C   UNL     1       6.406   4.647  14.952  0.00  0.00    +0.000 A 
ATOM      6  C   UNL     1       6.140   6.007  15.174  0.00  0.00    +0.000 A 
ATOM      7  C   UNL     1       5.152   6.426  16.088  0.00  0.00    +0.000 A 
ATOM      8  C   UNL     1       4.407   5.477  16.775  0.00  0.00    +0.000 A 
ATOM      9  C   UNL     1       3.360   5.522  17.815  0.00  0.00    +0.000 A 
ATOM     10  C   UNL     1       2.912   4.264  18.015  0.00  0.00    +0.000 A 
ATOM     11  C   UNL     1       2.025   3.934  19.122  0.00  0.00    +0.000 A 
ATOM     12  C   UNL     1       1.689   2.624  19.411  0.00  0.00    +0.000 A 
ATOM     13  C   UNL     1       1.913   2.147  20.686  0.00  0.00    +0.000 A 
ATOM     14  C   UNL     1       1.956   3.060  21.727  0.00  0.00    +0.000 A 
ATOM     15  C   UNL     1       1.832   4.437  21.457  0.00  0.00    +0.000 A 
ATOM     16  C   UNL     1       1.957   4.877  20.141  0.00  0.00    +0.000 A 
ATOM     17  C   UNL     1       2.166   6.310  19.792  0.00  0.00    +0.000 A 
ATOM     18  O   UNL     1       1.709   7.182  20.521  0.00  0.00    +0.000 OA
ATOM     19  N   UNL     1       2.923   6.570  18.614  0.00  0.00    +0.000 N 
ENDROOT
BRANCH  19  20
ATOM     20  C   UNL     1       3.252   7.974  18.372  0.00  0.00    +0.000 C 
BRANCH  20  21
ATOM     21  C   UNL     1       2.178   8.760  17.575  0.00  0.00    +0.000 C 
BRANCH  21  22
ATOM     22  O   UNL     1       0.916   8.082  17.645  0.00  0.00    +0.000 OA
ATOM     23  H   UNL     1       0.813   7.569  16.824  0.00  0.00    +0.000 HD
ENDBRANCH  21  22
BRANCH  21  24
ATOM     24  C   UNL     1       2.038  10.209  18.042  0.00  0.00    +0.000 C 
BRANCH  24  25
ATOM     25  N   UNL     1       0.978  10.351  19.020  0.00  0.00    +0.000 N 
ATOM     26  C   UNL     1       1.107  10.475  20.371  0.00  0.00    +0.000 A 
ATOM     27  C   UNL     1      -0.197  10.664  20.794  0.00  0.00    +0.000 A 
ATOM     28  N   UNL     1      -1.008  10.710  19.716  0.00  0.00    +0.000 NA
ATOM     29  N   UNL     1      -0.279  10.512  18.622  0.00  0.00    +0.000 NA
BRANCH  27  30
ATOM     30  C   UNL     1      -0.731  10.801  22.171  0.00  0.00    +0.000 C 
ATOM     31 BR   UNL     1      -1.832  12.430  22.262  0.00  0.00    +0.000 Br
ENDBRANCH  27  30
ENDBRANCH  24  25
ENDBRANCH  21  24
ENDBRANCH  20  21
ENDBRANCH  19  20
TORSDOF 6
ENDMDL
MODEL 3
REMARK VINA RESULT:      -7.9      4.151      7.988
REMARK  Name = 
REMARK  6 active torsions:
REMARK  status: ('A' for Active; 'I' for Inactive)
REMARK    1  A    between atoms: N_19  and  C_20
REMARK    2  A    between atoms: C_20  and  C_21
REMARK    3  A    between atoms: C_21  and  O_22
REMARK    4  A    between atoms: C_21  and  C_23
REMARK    5  A    between atoms: C_23  and  N_24
REMARK    6  A    between atoms: C_26  and  C_27
REMARK                            x       y       z     vdW  Elec       q    Type
REMARK                         _______ _______ _______ _____ _____    ______ ____
ROOT
ATOM      1  O   UNL     1       5.583   2.902  19.732  0.00  0.00    +0.000 OA
ATOM      2  C   UNL     1       4.677   3.706  19.653  0.00  0.00    +0.000 C 
ATOM      3  C   UNL     1       3.339   3.523  20.185  0.00  0.00    +0.000 A 
ATOM      4  C   UNL     1       2.873   2.425  20.893  0.00  0.00    +0.000 A 
ATOM      5  C   UNL     1       1.570   2.488  21.365  0.00  0.00    +0.000 A 
ATOM      6  C   UNL     1       0.793   3.628  21.109  0.00  0.00    +0.000 A 
ATOM      7  C   UNL     1       1.294   4.708  20.354  0.00  0.00    +0.000 A 
ATOM      8  C   UNL     1       2.591   4.659  19.864  0.00  0.00    +0.000 A 
ATOM      9  C   UNL     1       3.424   5.538  19.019  0.00  0.00    +0.000 A 
ATOM     10  C   UNL     1       4.671   5.022  18.976  0.00  0.00    +0.000 A 
ATOM     11  C   UNL     1       5.681   5.535  18.060  0.00  0.00    +0.000 A 
ATOM     12  C   UNL     1       6.905   4.909  17.915  0.00  0.00    +0.000 A 
ATOM     13  C   UNL     1       7.310   4.528  16.651  0.00  0.00    +0.000 A 
ATOM     14  C   UNL     1       6.784   5.208  15.565  0.00  0.00    +0.000 A 
ATOM     15  C   UNL     1       5.821   6.215  15.767  0.00  0.00    +0.000 A 
ATOM     16  C   UNL     1       5.204   6.314  17.013  0.00  0.00    +0.000 A 
ATOM     17  C   UNL     1       3.964   7.110  17.233  0.00  0.00    +0.000 A 
ATOM     18  O   UNL     1       3.751   8.099  16.541  0.00  0.00    +0.000 OA
ATOM     19  N   UNL     1       3.081   6.638  18.244  0.00  0.00    +0.000 N 
ENDROOT
BRANCH  19  20
ATOM     20  C   UNL     1       1.800   7.337  18.340  0.00  0.00    +0.000 C 
BRANCH  20  21
ATOM     21  C   UNL     1       1.832   8.628  19.200  0.00  0.00    +0.000 C 
BRANCH  21  22
ATOM     22  O   UNL     1       0.952   9.614  18.643  0.00  0.00    +0.000 OA
ATOM     23  H   UNL     1       1.226   9.764  17.721  0.00  0.00    +0.000 HD
ENDBRANCH  21  22
BRANCH  21  24
ATOM     24  C   UNL     1       1.491   8.369  20.668  0.00  0.00    +0.000 C 
BRANCH  24  25
ATOM     25  N   UNL     1       0.768   9.483  21.249  0.00  0.00    +0.000 N 
ATOM     26  C   UNL     1      -0.356   9.434  22.017  0.00  0.00    +0.000 A 
ATOM     27  C   UNL     1      -0.557  10.758  22.364  0.00  0.00    +0.000 A 
ATOM     28  N   UNL     1       0.452  11.502  21.866  0.00  0.00    +0.000 NA
ATOM     29  N   UNL     1       1.267  10.713  21.173  0.00  0.00    +0.000 NA
BRANCH  27  30
ATOM     30  C   UNL     1      -1.659  11.371  23.144  0.00  0.00    +0.000 C 
ATOM     31 BR   UNL     1      -1.392  13.321  23.190  0.00  0.00    +0.000 Br
ENDBRANCH  27  30
ENDBRANCH  24  25
ENDBRANCH  21  24
ENDBRANCH  20  21
ENDBRANCH  19  20
TORSDOF 6
ENDMDL
MODEL 4
REMARK VINA RESULT:      -7.9      3.361      6.924
REMARK  Name = 
REMARK  6 active torsions:
REMARK  status: ('A' for Active; 'I' for Inactive)
REMARK    1  A    between atoms: N_19  and  C_20
REMARK    2  A    between atoms: C_20  and  C_21
REMARK    3  A    between atoms: C_21  and  O_22
REMARK    4  A    between atoms: C_21  and  C_23
REMARK    5  A    between atoms: C_23  and  N_24
REMARK    6  A    between atoms: C_26  and  C_27
REMARK                            x       y       z     vdW  Elec       q    Type
REMARK                         _______ _______ _______ _____ _____    ______ ____
ROOT
ATOM      1  O   UNL     1       3.721   2.064  17.268  0.00  0.00    +0.000 OA
ATOM      2  C   UNL     1       3.778   3.276  17.224  0.00  0.00    +0.000 C 
ATOM      3  C   UNL     1       4.712   4.048  16.425  0.00  0.00    +0.000 A 
ATOM      4  C   UNL     1       5.672   3.546  15.558  0.00  0.00    +0.000 A 
ATOM      5  C   UNL     1       6.418   4.470  14.843  0.00  0.00    +0.000 A 
ATOM      6  C   UNL     1       6.182   5.841  15.023  0.00  0.00    +0.000 A 
ATOM      7  C   UNL     1       5.221   6.311  15.940  0.00  0.00    +0.000 A 
ATOM      8  C   UNL     1       4.471   5.401  16.674  0.00  0.00    +0.000 A 
ATOM      9  C   UNL     1       3.445   5.503  17.730  0.00  0.00    +0.000 A 
ATOM     10  C   UNL     1       2.976   4.262  17.982  0.00  0.00    +0.000 A 
ATOM     11  C   UNL     1       2.105   3.988  19.116  0.00  0.00    +0.000 A 
ATOM     12  C   UNL     1       1.749   2.696  19.456  0.00  0.00    +0.000 A 
ATOM     13  C   UNL     1       1.988   2.257  20.743  0.00  0.00    +0.000 A 
ATOM     14  C   UNL     1       2.069   3.204  21.750  0.00  0.00    +0.000 A 
ATOM     15  C   UNL     1       1.966   4.573  21.436  0.00  0.00    +0.000 A 
ATOM     16  C   UNL     1       2.074   4.966  20.103  0.00  0.00    +0.000 A 
ATOM     17  C   UNL     1       2.305   6.382  19.701  0.00  0.00    +0.000 A 
ATOM     18  O   UNL     1       1.879   7.288  20.408  0.00  0.00    +0.000 OA
ATOM     19  N   UNL     1       3.044   6.586  18.502  0.00  0.00    +0.000 N 
ENDROOT
BRANCH  19  20
ATOM     20  C   UNL     1       3.396   7.975  18.205  0.00  0.00    +0.000 C 
BRANCH  20  21
ATOM     21  C   UNL     1       2.253   8.807  17.567  0.00  0.00    +0.000 C 
BRANCH  21  22
ATOM     22  O   UNL     1       1.001   8.123  17.716  0.00  0.00    +0.000 OA
ATOM     23  H   UNL     1       0.299   8.798  17.731  0.00  0.00    +0.000 HD
ENDBRANCH  21  22
BRANCH  21  24
ATOM     24  C   UNL     1       2.165  10.224  18.135  0.00  0.00    +0.000 C 
BRANCH  24  25
ATOM     25  N   UNL     1       0.839  10.508  18.648  0.00  0.00    +0.000 N 
ATOM     26  C   UNL     1      -0.235  10.979  17.955  0.00  0.00    +0.000 A 
ATOM     27  C   UNL     1      -1.243  10.978  18.903  0.00  0.00    +0.000 A 
ATOM     28  N   UNL     1      -0.765  10.464  20.055  0.00  0.00    +0.000 NA
ATOM     29  N   UNL     1       0.523  10.178  19.896  0.00  0.00    +0.000 NA
BRANCH  27  30
ATOM     30  C   UNL     1      -2.647  11.443  18.787  0.00  0.00    +0.000 C 
ATOM     31 BR   UNL     1      -3.568  10.342  17.440  0.00  0.00    +0.000 Br
ENDBRANCH  27  30
ENDBRANCH  24  25
ENDBRANCH  21  24
ENDBRANCH  20  21
ENDBRANCH  19  20
TORSDOF 6
ENDMDL
MODEL 5
REMARK VINA RESULT:      -7.7      3.822      7.551
REMARK  Name = 
REMARK  6 active torsions:
REMARK  status: ('A' for Active; 'I' for Inactive)
REMARK    1  A    between atoms: N_19  and  C_20
REMARK    2  A    between atoms: C_20  and  C_21
REMARK    3  A    between atoms: C_21  and  O_22
REMARK    4  A    between atoms: C_21  and  C_23
REMARK    5  A    between atoms: C_23  and  N_24
REMARK    6  A    between atoms: C_26  and  C_27
REMARK                            x       y       z     vdW  Elec       q    Type
REMARK                         _______ _______ _______ _____ _____    ______ ____
ROOT
ATOM      1  O   UNL     1       5.538   2.865  19.690  0.00  0.00    +0.000 OA
ATOM      2  C   UNL     1       4.661   3.694  19.557  0.00  0.00    +0.000 C 
ATOM      3  C   UNL     1       3.306   3.576  20.062  0.00  0.00    +0.000 A 
ATOM      4  C   UNL     1       2.788   2.524  20.803  0.00  0.00    +0.000 A 
ATOM      5  C   UNL     1       1.477   2.648  21.239  0.00  0.00    +0.000 A 
ATOM      6  C   UNL     1       0.744   3.801  20.919  0.00  0.00    +0.000 A 
ATOM      7  C   UNL     1       1.297   4.832  20.134  0.00  0.00    +0.000 A 
ATOM      8  C   UNL     1       2.604   4.722  19.678  0.00  0.00    +0.000 A 
ATOM      9  C   UNL     1       3.485   5.538  18.819  0.00  0.00    +0.000 A 
ATOM     10  C   UNL     1       4.714   4.981  18.827  0.00  0.00    +0.000 A 
ATOM     11  C   UNL     1       5.762   5.423  17.916  0.00  0.00    +0.000 A 
ATOM     12  C   UNL     1       6.968   4.752  17.826  0.00  0.00    +0.000 A 
ATOM     13  C   UNL     1       7.389   4.307  16.589  0.00  0.00    +0.000 A 
ATOM     14  C   UNL     1       6.911   4.958  15.464  0.00  0.00    +0.000 A 
ATOM     15  C   UNL     1       5.977   6.003  15.602  0.00  0.00    +0.000 A 
ATOM     16  C   UNL     1       5.335   6.173  16.827  0.00  0.00    +0.000 A 
ATOM     17  C   UNL     1       4.118   7.017  16.984  0.00  0.00    +0.000 A 
ATOM     18  O   UNL     1       3.954   7.983  16.248  0.00  0.00    +0.000 OA
ATOM     19  N   UNL     1       3.196   6.616  17.992  0.00  0.00    +0.000 N 
ENDROOT
BRANCH  19  20
ATOM     20  C   UNL     1       1.937   7.359  18.028  0.00  0.00    +0.000 C 
BRANCH  20  21
ATOM     21  C   UNL     1       2.071   8.833  18.489  0.00  0.00    +0.000 C 
BRANCH  21  22
ATOM     22  O   UNL     1       1.880   9.718  17.377  0.00  0.00    +0.000 OA
ATOM     23  H   UNL     1       1.079   9.428  16.906  0.00  0.00    +0.000 HD
ENDBRANCH  21  22
BRANCH  21  24
ATOM     24  C   UNL     1       1.115   9.186  19.629  0.00  0.00    +0.000 C 
BRANCH  24  25
ATOM     25  N   UNL     1       0.411  10.426  19.366  0.00  0.00    +0.000 N 
ATOM     26  C   UNL     1       0.750  11.678  19.785  0.00  0.00    +0.000 A 
ATOM     27  C   UNL     1      -0.204  12.478  19.181  0.00  0.00    +0.000 A 
ATOM     28  N   UNL     1      -0.998  11.710  18.407  0.00  0.00    +0.000 NA
ATOM     29  N   UNL     1      -0.619  10.442  18.527  0.00  0.00    +0.000 NA
BRANCH  27  30
ATOM     30  C   UNL     1      -0.416  13.942  19.297  0.00  0.00    +0.000 C 
ATOM     31 BR   UNL     1       1.293  14.857  18.961  0.00  0.00    +0.000 Br
ENDBRANCH  27  30
ENDBRANCH  24  25
ENDBRANCH  21  24
ENDBRANCH  20  21
ENDBRANCH  19  20
TORSDOF 6
ENDMDL
MODEL 6
REMARK VINA RESULT:      -7.7      4.047      7.692
REMARK  Name = 
REMARK  6 active torsions:
REMARK  status: ('A' for Active; 'I' for Inactive)
REMARK    1  A    between atoms: N_19  and  C_20
REMARK    2  A    between atoms: C_20  and  C_21
REMARK    3  A    between atoms: C_21  and  O_22
REMARK    4  A    between atoms: C_21  and  C_23
REMARK    5  A    between atoms: C_23  and  N_24
REMARK    6  A    between atoms: C_26  and  C_27
REMARK                            x       y       z     vdW  Elec       q    Type
REMARK                         _______ _______ _______ _____ _____    ______ ____
ROOT
ATOM      1  O   UNL     1       5.576   2.845  19.665  0.00  0.00    +0.000 OA
ATOM      2  C   UNL     1       4.697   3.671  19.525  0.00  0.00    +0.000 C 
ATOM      3  C   UNL     1       3.342   3.555  20.031  0.00  0.00    +0.000 A 
ATOM      4  C   UNL     1       2.826   2.508  20.782  0.00  0.00    +0.000 A 
ATOM      5  C   UNL     1       1.515   2.634  21.217  0.00  0.00    +0.000 A 
ATOM      6  C   UNL     1       0.781   3.782  20.887  0.00  0.00    +0.000 A 
ATOM      7  C   UNL     1       1.332   4.808  20.092  0.00  0.00    +0.000 A 
ATOM      8  C   UNL     1       2.639   4.696  19.637  0.00  0.00    +0.000 A 
ATOM      9  C   UNL     1       3.518   5.506  18.771  0.00  0.00    +0.000 A 
ATOM     10  C   UNL     1       4.748   4.951  18.784  0.00  0.00    +0.000 A 
ATOM     11  C   UNL     1       5.795   5.387  17.869  0.00  0.00    +0.000 A 
ATOM     12  C   UNL     1       7.002   4.718  17.784  0.00  0.00    +0.000 A 
ATOM     13  C   UNL     1       7.424   4.263  16.551  0.00  0.00    +0.000 A 
ATOM     14  C   UNL     1       6.945   4.903  15.420  0.00  0.00    +0.000 A 
ATOM     15  C   UNL     1       6.008   5.947  15.549  0.00  0.00    +0.000 A 
ATOM     16  C   UNL     1       5.367   6.127  16.773  0.00  0.00    +0.000 A 
ATOM     17  C   UNL     1       4.148   6.970  16.923  0.00  0.00    +0.000 A 
ATOM     18  O   UNL     1       3.982   7.929  16.178  0.00  0.00    +0.000 OA
ATOM     19  N   UNL     1       3.227   6.576  17.934  0.00  0.00    +0.000 N 
ENDROOT
BRANCH  19  20
ATOM     20  C   UNL     1       1.966   7.317  17.965  0.00  0.00    +0.000 C 
BRANCH  20  21
ATOM     21  C   UNL     1       2.084   8.768  18.499  0.00  0.00    +0.000 C 
BRANCH  21  22
ATOM     22  O   UNL     1       1.708   9.703  17.478  0.00  0.00    +0.000 OA
ATOM     23  H   UNL     1       2.301  10.471  17.551  0.00  0.00    +0.000 HD
ENDBRANCH  21  22
BRANCH  21  24
ATOM     24  C   UNL     1       1.264   8.999  19.769  0.00  0.00    +0.000 C 
BRANCH  24  25
ATOM     25  N   UNL     1       0.474  10.211  19.677  0.00  0.00    +0.000 N 
ATOM     26  C   UNL     1      -0.883  10.322  19.715  0.00  0.00    +0.000 A 
ATOM     27  C   UNL     1      -1.087  11.689  19.677  0.00  0.00    +0.000 A 
ATOM     28  N   UNL     1       0.109  12.314  19.685  0.00  0.00    +0.000 NA
ATOM     29  N   UNL     1       1.072  11.398  19.681  0.00  0.00    +0.000 NA
BRANCH  27  30
ATOM     30  C   UNL     1      -2.358  12.453  19.628  0.00  0.00    +0.000 C 
ATOM     31 BR   UNL     1      -2.569  13.438  21.318  0.00  0.00    +0.000 Br
ENDBRANCH  27  30
ENDBRANCH  24  25
ENDBRANCH  21  24
ENDBRANCH  20  21
ENDBRANCH  19  20
TORSDOF 6
ENDMDL
MODEL 7
REMARK VINA RESULT:      -7.6      3.877      7.335
REMARK  Name = 
REMARK  6 active torsions:
REMARK  status: ('A' for Active; 'I' for Inactive)
REMARK    1  A    between atoms: N_19  and  C_20
REMARK    2  A    between atoms: C_20  and  C_21
REMARK    3  A    between atoms: C_21  and  O_22
REMARK    4  A    between atoms: C_21  and  C_23
REMARK    5  A    between atoms: C_23  and  N_24
REMARK    6  A    between atoms: C_26  and  C_27
REMARK                            x       y       z     vdW  Elec       q    Type
REMARK                         _______ _______ _______ _____ _____    ______ ____
ROOT
ATOM      1  O   UNL     1       5.447   2.994  19.740  0.00  0.00    +0.000 OA
ATOM      2  C   UNL     1       4.584   3.832  19.577  0.00  0.00    +0.000 C 
ATOM      3  C   UNL     1       3.219   3.743  20.061  0.00  0.00    +0.000 A 
ATOM      4  C   UNL     1       2.673   2.712  20.813  0.00  0.00    +0.000 A 
ATOM      5  C   UNL     1       1.357   2.862  21.224  0.00  0.00    +0.000 A 
ATOM      6  C   UNL     1       0.647   4.019  20.869  0.00  0.00    +0.000 A 
ATOM      7  C   UNL     1       1.228   5.028  20.075  0.00  0.00    +0.000 A 
ATOM      8  C   UNL     1       2.540   4.890  19.643  0.00  0.00    +0.000 A 
ATOM      9  C   UNL     1       3.446   5.678  18.785  0.00  0.00    +0.000 A 
ATOM     10  C   UNL     1       4.668   5.104  18.824  0.00  0.00    +0.000 A 
ATOM     11  C   UNL     1       5.736   5.514  17.924  0.00  0.00    +0.000 A 
ATOM     12  C   UNL     1       6.934   4.825  17.866  0.00  0.00    +0.000 A 
ATOM     13  C   UNL     1       7.370   4.351  16.646  0.00  0.00    +0.000 A 
ATOM     14  C   UNL     1       6.921   4.987  15.500  0.00  0.00    +0.000 A 
ATOM     15  C   UNL     1       5.999   6.047  15.603  0.00  0.00    +0.000 A 
ATOM     16  C   UNL     1       5.339   6.249  16.813  0.00  0.00    +0.000 A 
ATOM     17  C   UNL     1       4.132   7.113  16.934  0.00  0.00    +0.000 A 
ATOM     18  O   UNL     1       3.994   8.067  16.177  0.00  0.00    +0.000 OA
ATOM     19  N   UNL     1       3.187   6.743  17.933  0.00  0.00    +0.000 N 
ENDROOT
BRANCH  19  20
ATOM     20  C   UNL     1       1.938   7.505  17.933  0.00  0.00    +0.000 C 
BRANCH  20  21
ATOM     21  C   UNL     1       2.067   8.954  18.469  0.00  0.00    +0.000 C 
BRANCH  21  22
ATOM     22  O   UNL     1       2.168   9.878  17.376  0.00  0.00    +0.000 OA
ATOM     23  H   UNL     1       3.114   9.997  17.180  0.00  0.00    +0.000 HD
ENDBRANCH  21  22
BRANCH  21  24
ATOM     24  C   UNL     1       0.918   9.345  19.400  0.00  0.00    +0.000 C 
BRANCH  24  25
ATOM     25  N   UNL     1      -0.065  10.162  18.716  0.00  0.00    +0.000 N 
ATOM     26  C   UNL     1      -1.069   9.741  17.896  0.00  0.00    +0.000 A 
ATOM     27  C   UNL     1      -1.742  10.913  17.600  0.00  0.00    +0.000 A 
ATOM     28  N   UNL     1      -1.176  11.931  18.280  0.00  0.00    +0.000 NA
ATOM     29  N   UNL     1      -0.137  11.465  18.965  0.00  0.00    +0.000 NA
BRANCH  27  30
ATOM     30  C   UNL     1      -2.900  11.132  16.698  0.00  0.00    +0.000 C 
ATOM     31 BR   UNL     1      -4.480  11.558  17.791  0.00  0.00    +0.000 Br
ENDBRANCH  27  30
ENDBRANCH  24  25
ENDBRANCH  21  24
ENDBRANCH  20  21
ENDBRANCH  19  20
TORSDOF 6
ENDMDL
MODEL 8
REMARK VINA RESULT:      -7.5      3.891      7.136
REMARK  Name = 
REMARK  6 active torsions:
REMARK  status: ('A' for Active; 'I' for Inactive)
REMARK    1  A    between atoms: N_19  and  C_20
REMARK    2  A    between atoms: C_20  and  C_21
REMARK    3  A    between atoms: C_21  and  O_22
REMARK    4  A    between atoms: C_21  and  C_23
REMARK    5  A    between atoms: C_23  and  N_24
REMARK    6  A    between atoms: C_26  and  C_27
REMARK                            x       y       z     vdW  Elec       q    Type
REMARK                         _______ _______ _______ _____ _____    ______ ____
ROOT
ATOM      1  O   UNL     1       3.808   2.143  17.339  0.00  0.00    +0.000 OA
ATOM      2  C   UNL     1       3.696   3.349  17.423  0.00  0.00    +0.000 C 
ATOM      3  C   UNL     1       4.507   4.322  16.716  0.00  0.00    +0.000 A 
ATOM      4  C   UNL     1       5.521   4.052  15.808  0.00  0.00    +0.000 A 
ATOM      5  C   UNL     1       6.126   5.141  15.199  0.00  0.00    +0.000 A 
ATOM      6  C   UNL     1       5.704   6.440  15.521  0.00  0.00    +0.000 A 
ATOM      7  C   UNL     1       4.694   6.673  16.476  0.00  0.00    +0.000 A 
ATOM      8  C   UNL     1       4.084   5.596  17.105  0.00  0.00    +0.000 A 
ATOM      9  C   UNL     1       3.062   5.442  18.159  0.00  0.00    +0.000 A 
ATOM     10  C   UNL     1       2.771   4.129  18.276  0.00  0.00    +0.000 A 
ATOM     11  C   UNL     1       1.955   3.619  19.368  0.00  0.00    +0.000 A 
ATOM     12  C   UNL     1       1.784   2.261  19.568  0.00  0.00    +0.000 A 
ATOM     13  C   UNL     1       2.091   1.728  20.803  0.00  0.00    +0.000 A 
ATOM     14  C   UNL     1       2.049   2.565  21.905  0.00  0.00    +0.000 A 
ATOM     15  C   UNL     1       1.755   3.932  21.735  0.00  0.00    +0.000 A 
ATOM     16  C   UNL     1       1.797   4.475  20.453  0.00  0.00    +0.000 A 
ATOM     17  C   UNL     1       1.826   5.943  20.203  0.00  0.00    +0.000 A 
ATOM     18  O   UNL     1       1.284   6.701  20.999  0.00  0.00    +0.000 OA
ATOM     19  N   UNL     1       2.521   6.373  19.037  0.00  0.00    +0.000 N 
ENDROOT
BRANCH  19  20
ATOM     20  C   UNL     1       2.674   7.820  18.890  0.00  0.00    +0.000 C 
BRANCH  20  21
ATOM     21  C   UNL     1       1.366   8.630  19.087  0.00  0.00    +0.000 C 
BRANCH  21  22
ATOM     22  O   UNL     1       1.426   9.375  20.311  0.00  0.00    +0.000 OA
ATOM     23  H   UNL     1       1.802   8.790  20.992  0.00  0.00    +0.000 HD
ENDBRANCH  21  22
BRANCH  21  24
ATOM     24  C   UNL     1       1.061   9.555  17.908  0.00  0.00    +0.000 C 
BRANCH  24  25
ATOM     25  N   UNL     1      -0.224  10.207  18.065  0.00  0.00    +0.000 N 
ATOM     26  C   UNL     1      -1.388   9.915  17.420  0.00  0.00    +0.000 A 
ATOM     27  C   UNL     1      -2.297  10.775  18.010  0.00  0.00    +0.000 A 
ATOM     28  N   UNL     1      -1.678  11.468  18.988  0.00  0.00    +0.000 NA
ATOM     29  N   UNL     1      -0.396  11.118  19.017  0.00  0.00    +0.000 NA
BRANCH  27  30
ATOM     30  C   UNL     1      -3.732  10.988  17.699  0.00  0.00    +0.000 C 
ATOM     31 BR   UNL     1      -4.524  12.109  19.110  0.00  0.00    +0.000 Br
ENDBRANCH  27  30
ENDBRANCH  24  25
ENDBRANCH  21  24
ENDBRANCH  20  21
ENDBRANCH  19  20
TORSDOF 6
ENDMDL
MODEL 9
REMARK VINA RESULT:      -7.4      3.909      7.109
REMARK  Name = 
REMARK  6 active torsions:
REMARK  status: ('A' for Active; 'I' for Inactive)
REMARK    1  A    between atoms: N_19  and  C_20
REMARK    2  A    between atoms: C_20  and  C_21
REMARK    3  A    between atoms: C_21  and  O_22
REMARK    4  A    between atoms: C_21  and  C_23
REMARK    5  A    between atoms: C_23  and  N_24
REMARK    6  A    between atoms: C_26  and  C_27
REMARK                            x       y       z     vdW  Elec       q    Type
REMARK                         _______ _______ _______ _____ _____    ______ ____
ROOT
ATOM      1  O   UNL     1       3.645   2.164  17.153  0.00  0.00    +0.000 OA
ATOM      2  C   UNL     1       3.605   3.369  17.304  0.00  0.00    +0.000 C 
ATOM      3  C   UNL     1       4.476   4.329  16.652  0.00  0.00    +0.000 A 
ATOM      4  C   UNL     1       5.474   4.048  15.729  0.00  0.00    +0.000 A 
ATOM      5  C   UNL     1       6.146   5.131  15.182  0.00  0.00    +0.000 A 
ATOM      6  C   UNL     1       5.803   6.433  15.575  0.00  0.00    +0.000 A 
ATOM      7  C   UNL     1       4.806   6.673  16.542  0.00  0.00    +0.000 A 
ATOM      8  C   UNL     1       4.129   5.602  17.110  0.00  0.00    +0.000 A 
ATOM      9  C   UNL     1       3.097   5.453  18.155  0.00  0.00    +0.000 A 
ATOM     10  C   UNL     1       2.727   4.155  18.199  0.00  0.00    +0.000 A 
ATOM     11  C   UNL     1       1.878   3.636  19.262  0.00  0.00    +0.000 A 
ATOM     12  C   UNL     1       1.625   2.282  19.386  0.00  0.00    +0.000 A 
ATOM     13  C   UNL     1       1.896   1.663  20.590  0.00  0.00    +0.000 A 
ATOM     14  C   UNL     1       1.901   2.440  21.737  0.00  0.00    +0.000 A 
ATOM     15  C   UNL     1       1.691   3.829  21.643  0.00  0.00    +0.000 A 
ATOM     16  C   UNL     1       1.770   4.438  20.392  0.00  0.00    +0.000 A 
ATOM     17  C   UNL     1       1.888   5.914  20.224  0.00  0.00    +0.000 A 
ATOM     18  O   UNL     1       1.391   6.658  21.061  0.00  0.00    +0.000 OA
ATOM     19  N   UNL     1       2.611   6.364  19.084  0.00  0.00    +0.000 N 
ENDROOT
BRANCH  19  20
ATOM     20  C   UNL     1       2.852   7.805  19.018  0.00  0.00    +0.000 C 
BRANCH  20  21
ATOM     21  C   UNL     1       1.573   8.666  18.850  0.00  0.00    +0.000 C 
BRANCH  21  22
ATOM     22  O   UNL     1       1.181   9.220  20.114  0.00  0.00    +0.000 OA
ATOM     23  H   UNL     1       0.232   9.431  20.059  0.00  0.00    +0.000 HD
ENDBRANCH  21  22
BRANCH  21  24
ATOM     24  C   UNL     1       1.737   9.771  17.805  0.00  0.00    +0.000 C 
BRANCH  24  25
ATOM     25  N   UNL     1       1.319  11.058  18.325  0.00  0.00    +0.000 N 
ATOM     26  C   UNL     1       2.082  12.176  18.486  0.00  0.00    +0.000 A 
ATOM     27  C   UNL     1       1.169  13.117  18.925  0.00  0.00    +0.000 A 
ATOM     28  N   UNL     1      -0.062  12.564  18.943  0.00  0.00    +0.000 NA
ATOM     29  N   UNL     1       0.035  11.290  18.576  0.00  0.00    +0.000 NA
BRANCH  27  30
ATOM     30  C   UNL     1       1.391  14.524  19.340  0.00  0.00    +0.000 C 
ATOM     31 BR   UNL     1      -0.347  15.445  19.406  0.00  0.00    +0.000 Br
ENDBRANCH  27  30
ENDBRANCH  24  25
ENDBRANCH  21  24
ENDBRANCH  20  21
ENDBRANCH  19  20
TORSDOF 6
ENDMDL
