MODEL 1
REMARK VINA RESULT:      -8.4      0.000      0.000
REMARK  Name = 
REMARK  8 active torsions:
REMARK  status: ('A' for Active; 'I' for Inactive)
REMARK    1  A    between atoms: C_2  and  O_3
REMARK    2  A    between atoms: C_2  and  C_4
REMARK    3  A    between atoms: N_8  and  C_9
REMARK    4  A    between atoms: C_9  and  C_10
REMARK    5  A    between atoms: C_10  and  C_11
REMARK    6  A    between atoms: C_12  and  C_13
REMARK    7  A    between atoms: C_16  and  N_17
REMARK    8  A    between atoms: N_18  and  C_19
REMARK                            x       y       z     vdW  Elec       q    Type
REMARK                         _______ _______ _______ _____ _____    ______ ____
ROOT
ATOM      1  C   UNL     1      -0.178  10.687  21.685  0.00  0.00    +0.000 A 
ATOM      2  C   UNL     1      -0.060  11.005  20.335  0.00  0.00    +0.000 A 
ATOM      3  C   UNL     1       0.594  10.125  19.474  0.00  0.00    +0.000 A 
ATOM      4  C   UNL     1       1.136   8.922  19.944  0.00  0.00    +0.000 A 
ATOM      5  C   UNL     1       0.971   8.592  21.296  0.00  0.00    +0.000 A 
ATOM      6  C   UNL     1       0.317   9.472  22.166  0.00  0.00    +0.000 A 
ENDROOT
BRANCH   1   8
ATOM      7  C   UNL     1      -1.408  12.473  23.140  0.00  0.00    +0.000 C 
ATOM      8  C   UNL     1      -0.907  11.563  22.539  0.00  0.00    +0.000 C 
BRANCH   7   9
ATOM      9  C   UNL     1      -1.849  13.804  23.554  0.00  0.00    +0.000 C 
BRANCH   9  10
ATOM     10  C   UNL     1      -2.854  14.252  22.475  0.00  0.00    +0.000 C 
BRANCH  10  15
ATOM     11  C   UNL     1      -6.493  13.535  23.011  0.00  0.00    +0.000 C 
ATOM     12  C   UNL     1      -6.888  13.066  21.611  0.00  0.00    +0.000 C 
ATOM     13  C   UNL     1      -5.735  12.366  20.895  0.00  0.00    +0.000 C 
ATOM     14  C   UNL     1      -4.437  13.172  20.970  0.00  0.00    +0.000 C 
ATOM     15  N   UNL     1      -4.107  13.487  22.373  0.00  0.00    +0.000 NA
ATOM     16  C   UNL     1      -5.186  14.317  22.971  0.00  0.00    +0.000 C 
BRANCH  11  18
ATOM     17  O   UNL     1      -7.303  11.510  24.045  0.00  0.00    +0.000 OA
ATOM     18  C   UNL     1      -6.440  12.377  23.989  0.00  0.00    +0.000 C 
BRANCH  18  19
ATOM     19  O   UNL     1      -5.336  12.331  24.775  0.00  0.00    +0.000 OA
ATOM     20  H   UNL     1      -4.506  12.337  24.237  0.00  0.00    +0.000 HD
ENDBRANCH  18  19
ENDBRANCH  11  18
ENDBRANCH  10  15
ENDBRANCH   9  10
ENDBRANCH   7   9
ENDBRANCH   1   8
BRANCH   4  21
ATOM     21  N   UNL     1       1.767   8.094  19.002  0.00  0.00    +0.000 NA
ATOM     22  N   UNL     1       2.348   7.114  19.513  0.00  0.00    +0.000 NA
BRANCH  22  23
ATOM     23  C   UNL     1       3.100   6.393  18.548  0.00  0.00    +0.000 A 
ATOM     24  C   UNL     1       4.129   7.004  17.804  0.00  0.00    +0.000 A 
ATOM     25  C   UNL     1       4.885   6.285  16.886  0.00  0.00    +0.000 A 
ATOM     26  C   UNL     1       4.613   4.938  16.677  0.00  0.00    +0.000 A 
ATOM     27  C   UNL     1       3.583   4.295  17.378  0.00  0.00    +0.000 A 
ATOM     28  C   UNL     1       3.322   2.934  17.152  0.00  0.00    +0.000 A 
ATOM     29  C   UNL     1       2.305   2.276  17.841  0.00  0.00    +0.000 A 
ATOM     30  C   UNL     1       1.533   2.971  18.763  0.00  0.00    +0.000 A 
ATOM     31  C   UNL     1       1.783   4.326  19.001  0.00  0.00    +0.000 A 
ATOM     32  C   UNL     1       2.810   5.019  18.321  0.00  0.00    +0.000 A 
ENDBRANCH  22  23
ENDBRANCH   4  21
TORSDOF 8
ENDMDL
MODEL 2
REMARK VINA RESULT:      -8.2      1.327      1.728
REMARK  Name = 
REMARK  8 active torsions:
REMARK  status: ('A' for Active; 'I' for Inactive)
REMARK    1  A    between atoms: C_2  and  O_3
REMARK    2  A    between atoms: C_2  and  C_4
REMARK    3  A    between atoms: N_8  and  C_9
REMARK    4  A    between atoms: C_9  and  C_10
REMARK    5  A    between atoms: C_10  and  C_11
REMARK    6  A    between atoms: C_12  and  C_13
REMARK    7  A    between atoms: C_16  and  N_17
REMARK    8  A    between atoms: N_18  and  C_19
REMARK                            x       y       z     vdW  Elec       q    Type
REMARK                         _______ _______ _______ _____ _____    ______ ____
ROOT
ATOM      1  C   UNL     1      -0.252  10.497  21.598  0.00  0.00    +0.000 A 
ATOM      2  C   UNL     1      -0.125  10.875  20.265  0.00  0.00    +0.000 A 
ATOM      3  C   UNL     1       0.587  10.064  19.383  0.00  0.00    +0.000 A 
ATOM      4  C   UNL     1       1.178   8.870  19.815  0.00  0.00    +0.000 A 
ATOM      5  C   UNL     1       1.005   8.477  21.149  0.00  0.00    +0.000 A 
ATOM      6  C   UNL     1       0.293   9.289  22.040  0.00  0.00    +0.000 A 
ENDROOT
BRANCH   1   8
ATOM      7  C   UNL     1      -1.857  11.980  23.027  0.00  0.00    +0.000 C 
ATOM      8  C   UNL     1      -1.039  11.301  22.472  0.00  0.00    +0.000 C 
BRANCH   7   9
ATOM      9  C   UNL     1      -3.092  12.679  23.380  0.00  0.00    +0.000 C 
BRANCH   9  10
ATOM     10  C   UNL     1      -3.484  13.471  22.118  0.00  0.00    +0.000 C 
BRANCH  10  15
ATOM     11  C   UNL     1      -6.319  12.798  19.761  0.00  0.00    +0.000 C 
ATOM     12  C   UNL     1      -5.542  12.438  18.494  0.00  0.00    +0.000 C 
ATOM     13  C   UNL     1      -4.208  11.765  18.813  0.00  0.00    +0.000 C 
ATOM     14  C   UNL     1      -3.413  12.535  19.869  0.00  0.00    +0.000 C 
ATOM     15  N   UNL     1      -4.231  12.743  21.079  0.00  0.00    +0.000 NA
ATOM     16  C   UNL     1      -5.433  13.553  20.743  0.00  0.00    +0.000 C 
BRANCH  11  18
ATOM     17  O   UNL     1      -7.467  10.675  19.727  0.00  0.00    +0.000 OA
ATOM     18  C   UNL     1      -6.958  11.574  20.387  0.00  0.00    +0.000 C 
BRANCH  18  19
ATOM     19  O   UNL     1      -6.885  11.507  21.738  0.00  0.00    +0.000 OA
ATOM     20  H   UNL     1      -7.077  10.595  22.069  0.00  0.00    +0.000 HD
ENDBRANCH  18  19
ENDBRANCH  11  18
ENDBRANCH  10  15
ENDBRANCH   9  10
ENDBRANCH   7   9
ENDBRANCH   1   8
BRANCH   4  21
ATOM     21  N   UNL     1       1.866   8.113  18.853  0.00  0.00    +0.000 NA
ATOM     22  N   UNL     1       2.434   7.107  19.328  0.00  0.00    +0.000 NA
BRANCH  22  23
ATOM     23  C   UNL     1       3.242   6.458  18.357  0.00  0.00    +0.000 A 
ATOM     24  C   UNL     1       4.204   7.163  17.606  0.00  0.00    +0.000 A 
ATOM     25  C   UNL     1       5.017   6.517  16.681  0.00  0.00    +0.000 A 
ATOM     26  C   UNL     1       4.869   5.151  16.473  0.00  0.00    +0.000 A 
ATOM     27  C   UNL     1       3.908   4.415  17.181  0.00  0.00    +0.000 A 
ATOM     28  C   UNL     1       3.772   3.036  16.954  0.00  0.00    +0.000 A 
ATOM     29  C   UNL     1       2.825   2.286  17.650  0.00  0.00    +0.000 A 
ATOM     30  C   UNL     1       1.999   2.907  18.579  0.00  0.00    +0.000 A 
ATOM     31  C   UNL     1       2.124   4.279  18.817  0.00  0.00    +0.000 A 
ATOM     32  C   UNL     1       3.078   5.064  18.130  0.00  0.00    +0.000 A 
ENDBRANCH  22  23
ENDBRANCH   4  21
TORSDOF 8
ENDMDL
MODEL 3
REMARK VINA RESULT:      -8.2      5.772     11.551
REMARK  Name = 
REMARK  8 active torsions:
REMARK  status: ('A' for Active; 'I' for Inactive)
REMARK    1  A    between atoms: C_2  and  O_3
REMARK    2  A    between atoms: C_2  and  C_4
REMARK    3  A    between atoms: N_8  and  C_9
REMARK    4  A    between atoms: C_9  and  C_10
REMARK    5  A    between atoms: C_10  and  C_11
REMARK    6  A    between atoms: C_12  and  C_13
REMARK    7  A    between atoms: C_16  and  N_17
REMARK    8  A    between atoms: N_18  and  C_19
REMARK                            x       y       z     vdW  Elec       q    Type
REMARK                         _______ _______ _______ _____ _____    ______ ____
ROOT
ATOM      1  C   UNL     1       1.957   7.390  19.540  0.00  0.00    +0.000 A 
ATOM      2  C   UNL     1       2.185   7.991  18.306  0.00  0.00    +0.000 A 
ATOM      3  C   UNL     1       1.828   9.324  18.111  0.00  0.00    +0.000 A 
ATOM      4  C   UNL     1       1.242  10.073  19.140  0.00  0.00    +0.000 A 
ATOM      5  C   UNL     1       1.059   9.471  20.392  0.00  0.00    +0.000 A 
ATOM      6  C   UNL     1       1.414   8.131  20.593  0.00  0.00    +0.000 A 
ENDROOT
BRANCH   1   8
ATOM      7  C   UNL     1       2.965   5.002  19.851  0.00  0.00    +0.000 C 
ATOM      8  C   UNL     1       2.389   6.048  19.746  0.00  0.00    +0.000 C 
BRANCH   7   9
ATOM      9  C   UNL     1       4.006   3.978  19.942  0.00  0.00    +0.000 C 
BRANCH   9  10
ATOM     10  C   UNL     1       4.355   3.625  18.484  0.00  0.00    +0.000 C 
BRANCH  10  15
ATOM     11  C   UNL     1       6.082   6.019  16.175  0.00  0.00    +0.000 C 
ATOM     12  C   UNL     1       7.057   6.683  17.148  0.00  0.00    +0.000 C 
ATOM     13  C   UNL     1       7.499   5.728  18.256  0.00  0.00    +0.000 C 
ATOM     14  C   UNL     1       6.312   5.013  18.907  0.00  0.00    +0.000 C 
ATOM     15  N   UNL     1       5.497   4.332  17.882  0.00  0.00    +0.000 NA
ATOM     16  C   UNL     1       4.949   5.332  16.927  0.00  0.00    +0.000 C 
BRANCH  11  18
ATOM     17  O   UNL     1       7.793   5.397  14.590  0.00  0.00    +0.000 OA
ATOM     18  C   UNL     1       6.799   5.074  15.230  0.00  0.00    +0.000 C 
BRANCH  18  19
ATOM     19  O   UNL     1       6.298   3.817  15.174  0.00  0.00    +0.000 OA
ATOM     20  H   UNL     1       6.925   3.157  15.560  0.00  0.00    +0.000 HD
ENDBRANCH  18  19
ENDBRANCH  11  18
ENDBRANCH  10  15
ENDBRANCH   9  10
ENDBRANCH   7   9
ENDBRANCH   1   8
BRANCH   4  21
ATOM     21  N   UNL     1       0.926  11.411  18.855  0.00  0.00    +0.000 NA
ATOM     22  N   UNL     1       1.442  12.223  19.651  0.00  0.00    +0.000 NA
BRANCH  22  23
ATOM     23  C   UNL     1       0.975  13.545  19.423  0.00  0.00    +0.000 A 
ATOM     24  C   UNL     1      -0.328  13.941  19.783  0.00  0.00    +0.000 A 
ATOM     25  C   UNL     1      -0.770  15.245  19.591  0.00  0.00    +0.000 A 
ATOM     26  C   UNL     1       0.082  16.179  19.012  0.00  0.00    +0.000 A 
ATOM     27  C   UNL     1       1.379  15.823  18.617  0.00  0.00    +0.000 A 
ATOM     28  C   UNL     1       2.223  16.780  18.031  0.00  0.00    +0.000 A 
ATOM     29  C   UNL     1       3.517  16.446  17.634  0.00  0.00    +0.000 A 
ATOM     30  C   UNL     1       3.982  15.150  17.814  0.00  0.00    +0.000 A 
ATOM     31  C   UNL     1       3.154  14.186  18.398  0.00  0.00    +0.000 A 
ATOM     32  C   UNL     1       1.840  14.496  18.814  0.00  0.00    +0.000 A 
ENDBRANCH  22  23
ENDBRANCH   4  21
TORSDOF 8
ENDMDL
MODEL 4
REMARK VINA RESULT:      -8.1      3.953     10.562
REMARK  Name = 
REMARK  8 active torsions:
REMARK  status: ('A' for Active; 'I' for Inactive)
REMARK    1  A    between atoms: C_2  and  O_3
REMARK    2  A    between atoms: C_2  and  C_4
REMARK    3  A    between atoms: N_8  and  C_9
REMARK    4  A    between atoms: C_9  and  C_10
REMARK    5  A    between atoms: C_10  and  C_11
REMARK    6  A    between atoms: C_12  and  C_13
REMARK    7  A    between atoms: C_16  and  N_17
REMARK    8  A    between atoms: N_18  and  C_19
REMARK                            x       y       z     vdW  Elec       q    Type
REMARK                         _______ _______ _______ _____ _____    ______ ____
ROOT
ATOM      1  C   UNL     1       1.909   8.630  18.523  0.00  0.00    +0.000 A 
ATOM      2  C   UNL     1       1.112   9.424  17.704  0.00  0.00    +0.000 A 
ATOM      3  C   UNL     1       0.054  10.144  18.259  0.00  0.00    +0.000 A 
ATOM      4  C   UNL     1      -0.220  10.083  19.631  0.00  0.00    +0.000 A 
ATOM      5  C   UNL     1       0.616   9.315  20.452  0.00  0.00    +0.000 A 
ATOM      6  C   UNL     1       1.678   8.589  19.900  0.00  0.00    +0.000 A 
ENDROOT
BRANCH   1   8
ATOM      7  C   UNL     1       3.841   7.187  17.521  0.00  0.00    +0.000 C 
ATOM      8  C   UNL     1       3.026   7.954  17.954  0.00  0.00    +0.000 C 
BRANCH   7   9
ATOM      9  C   UNL     1       4.509   5.984  17.027  0.00  0.00    +0.000 C 
BRANCH   9  10
ATOM     10  C   UNL     1       4.706   5.092  18.267  0.00  0.00    +0.000 C 
BRANCH  10  15
ATOM     11  C   UNL     1       2.385   2.443  19.551  0.00  0.00    +0.000 C 
ATOM     12  C   UNL     1       2.004   3.047  20.904  0.00  0.00    +0.000 C 
ATOM     13  C   UNL     1       2.000   4.574  20.868  0.00  0.00    +0.000 C 
ATOM     14  C   UNL     1       3.275   5.139  20.239  0.00  0.00    +0.000 C 
ATOM     15  N   UNL     1       3.491   4.555  18.901  0.00  0.00    +0.000 NA
ATOM     16  C   UNL     1       3.661   3.081  19.015  0.00  0.00    +0.000 C 
BRANCH  11  18
ATOM     17  O   UNL     1       0.136   2.043  18.775  0.00  0.00    +0.000 OA
ATOM     18  C   UNL     1       1.240   2.530  18.562  0.00  0.00    +0.000 C 
BRANCH  18  19
ATOM     19  O   UNL     1       1.499   3.233  17.433  0.00  0.00    +0.000 OA
ATOM     20  H   UNL     1       2.093   4.003  17.612  0.00  0.00    +0.000 HD
ENDBRANCH  18  19
ENDBRANCH  11  18
ENDBRANCH  10  15
ENDBRANCH   9  10
ENDBRANCH   7   9
ENDBRANCH   1   8
BRANCH   4  21
ATOM     21  N   UNL     1      -1.299  10.850  20.101  0.00  0.00    +0.000 NA
ATOM     22  N   UNL     1      -1.937  11.418  19.190  0.00  0.00    +0.000 NA
BRANCH  22  23
ATOM     23  C   UNL     1      -2.917  12.302  19.714  0.00  0.00    +0.000 A 
ATOM     24  C   UNL     1      -2.589  13.291  20.663  0.00  0.00    +0.000 A 
ATOM     25  C   UNL     1      -3.545  14.178  21.147  0.00  0.00    +0.000 A 
ATOM     26  C   UNL     1      -4.859  14.078  20.704  0.00  0.00    +0.000 A 
ATOM     27  C   UNL     1      -5.234  13.094  19.779  0.00  0.00    +0.000 A 
ATOM     28  C   UNL     1      -6.567  13.009  19.347  0.00  0.00    +0.000 A 
ATOM     29  C   UNL     1      -6.961  12.039  18.425  0.00  0.00    +0.000 A 
ATOM     30  C   UNL     1      -6.026  11.141  17.927  0.00  0.00    +0.000 A 
ATOM     31  C   UNL     1      -4.694  11.215  18.346  0.00  0.00    +0.000 A 
ATOM     32  C   UNL     1      -4.266  12.189  19.276  0.00  0.00    +0.000 A 
ENDBRANCH  22  23
ENDBRANCH   4  21
TORSDOF 8
ENDMDL
MODEL 5
REMARK VINA RESULT:      -8.0      3.865     10.659
REMARK  Name = 
REMARK  8 active torsions:
REMARK  status: ('A' for Active; 'I' for Inactive)
REMARK    1  A    between atoms: C_2  and  O_3
REMARK    2  A    between atoms: C_2  and  C_4
REMARK    3  A    between atoms: N_8  and  C_9
REMARK    4  A    between atoms: C_9  and  C_10
REMARK    5  A    between atoms: C_10  and  C_11
REMARK    6  A    between atoms: C_12  and  C_13
REMARK    7  A    between atoms: C_16  and  N_17
REMARK    8  A    between atoms: N_18  and  C_19
REMARK                            x       y       z     vdW  Elec       q    Type
REMARK                         _______ _______ _______ _____ _____    ______ ____
ROOT
ATOM      1  C   UNL     1       2.289   8.487  18.484  0.00  0.00    +0.000 A 
ATOM      2  C   UNL     1       1.899   8.062  19.750  0.00  0.00    +0.000 A 
ATOM      3  C   UNL     1       0.946   8.791  20.460  0.00  0.00    +0.000 A 
ATOM      4  C   UNL     1       0.371   9.948  19.919  0.00  0.00    +0.000 A 
ATOM      5  C   UNL     1       0.738  10.341  18.625  0.00  0.00    +0.000 A 
ATOM      6  C   UNL     1       1.696   9.614  17.908  0.00  0.00    +0.000 A 
ENDROOT
BRANCH   1   8
ATOM      7  C   UNL     1       3.989   6.888  17.313  0.00  0.00    +0.000 C 
ATOM      8  C   UNL     1       3.213   7.695  17.744  0.00  0.00    +0.000 C 
BRANCH   7   9
ATOM      9  C   UNL     1       4.796   5.684  17.121  0.00  0.00    +0.000 C 
BRANCH   9  10
ATOM     10  C   UNL     1       4.845   5.005  18.502  0.00  0.00    +0.000 C 
BRANCH  10  15
ATOM     11  C   UNL     1       2.458   2.281  19.469  0.00  0.00    +0.000 C 
ATOM     12  C   UNL     1       1.956   2.821  20.809  0.00  0.00    +0.000 C 
ATOM     13  C   UNL     1       1.935   4.349  20.839  0.00  0.00    +0.000 C 
ATOM     14  C   UNL     1       3.252   4.952  20.345  0.00  0.00    +0.000 C 
ATOM     15  N   UNL     1       3.588   4.429  19.007  0.00  0.00    +0.000 NA
ATOM     16  C   UNL     1       3.766   2.954  19.071  0.00  0.00    +0.000 C 
BRANCH  11  18
ATOM     17  O   UNL     1       0.231   2.077  18.564  0.00  0.00    +0.000 OA
ATOM     18  C   UNL     1       1.399   2.401  18.391  0.00  0.00    +0.000 C 
BRANCH  18  19
ATOM     19  O   UNL     1       1.819   2.943  17.222  0.00  0.00    +0.000 OA
ATOM     20  H   UNL     1       1.869   3.930  17.275  0.00  0.00    +0.000 HD
ENDBRANCH  18  19
ENDBRANCH  11  18
ENDBRANCH  10  15
ENDBRANCH   9  10
ENDBRANCH   7   9
ENDBRANCH   1   8
BRANCH   4  21
ATOM     21  N   UNL     1      -0.587  10.611  20.703  0.00  0.00    +0.000 NA
ATOM     22  N   UNL     1      -0.653  11.837  20.473  0.00  0.00    +0.000 NA
BRANCH  22  23
ATOM     23  C   UNL     1      -1.518  12.493  21.389  0.00  0.00    +0.000 A 
ATOM     24  C   UNL     1      -1.064  12.935  22.648  0.00  0.00    +0.000 A 
ATOM     25  C   UNL     1      -1.906  13.607  23.527  0.00  0.00    +0.000 A 
ATOM     26  C   UNL     1      -3.230  13.834  23.170  0.00  0.00    +0.000 A 
ATOM     27  C   UNL     1      -3.730  13.391  21.938  0.00  0.00    +0.000 A 
ATOM     28  C   UNL     1      -5.071  13.628  21.597  0.00  0.00    +0.000 A 
ATOM     29  C   UNL     1      -5.587  13.198  20.376  0.00  0.00    +0.000 A 
ATOM     30  C   UNL     1      -4.768  12.523  19.480  0.00  0.00    +0.000 A 
ATOM     31  C   UNL     1      -3.429  12.282  19.803  0.00  0.00    +0.000 A 
ATOM     32  C   UNL     1      -2.878  12.709  21.033  0.00  0.00    +0.000 A 
ENDBRANCH  22  23
ENDBRANCH   4  21
TORSDOF 8
ENDMDL
MODEL 6
REMARK VINA RESULT:      -8.0      3.890     11.180
REMARK  Name = 
REMARK  8 active torsions:
REMARK  status: ('A' for Active; 'I' for Inactive)
REMARK    1  A    between atoms: C_2  and  O_3
REMARK    2  A    between atoms: C_2  and  C_4
REMARK    3  A    between atoms: N_8  and  C_9
REMARK    4  A    between atoms: C_9  and  C_10
REMARK    5  A    between atoms: C_10  and  C_11
REMARK    6  A    between atoms: C_12  and  C_13
REMARK    7  A    between atoms: C_16  and  N_17
REMARK    8  A    between atoms: N_18  and  C_19
REMARK                            x       y       z     vdW  Elec       q    Type
REMARK                         _______ _______ _______ _____ _____    ______ ____
ROOT
ATOM      1  C   UNL     1       1.840   8.344  19.095  0.00  0.00    +0.000 A 
ATOM      2  C   UNL     1       1.312   9.446  18.429  0.00  0.00    +0.000 A 
ATOM      3  C   UNL     1       0.453  10.313  19.102  0.00  0.00    +0.000 A 
ATOM      4  C   UNL     1       0.111  10.096  20.442  0.00  0.00    +0.000 A 
ATOM      5  C   UNL     1       0.684   9.009  21.116  0.00  0.00    +0.000 A 
ATOM      6  C   UNL     1       1.546   8.133  20.445  0.00  0.00    +0.000 A 
ENDROOT
BRANCH   1   8
ATOM      7  C   UNL     1       3.640   7.004  17.762  0.00  0.00    +0.000 C 
ATOM      8  C   UNL     1       2.769   7.505  18.416  0.00  0.00    +0.000 C 
BRANCH   7   9
ATOM      9  C   UNL     1       4.840   6.793  16.953  0.00  0.00    +0.000 C 
BRANCH   9  10
ATOM     10  C   UNL     1       4.902   5.273  16.709  0.00  0.00    +0.000 C 
BRANCH  10  15
ATOM     11  C   UNL     1       2.737   2.408  17.781  0.00  0.00    +0.000 C 
ATOM     12  C   UNL     1       3.527   1.906  18.990  0.00  0.00    +0.000 C 
ATOM     13  C   UNL     1       4.266   3.038  19.702  0.00  0.00    +0.000 C 
ATOM     14  C   UNL     1       5.054   3.914  18.725  0.00  0.00    +0.000 C 
ATOM     15  N   UNL     1       4.170   4.416  17.656  0.00  0.00    +0.000 NA
ATOM     16  C   UNL     1       3.613   3.273  16.884  0.00  0.00    +0.000 C 
BRANCH  11  18
ATOM     17  O   UNL     1       0.758   2.730  19.124  0.00  0.00    +0.000 OA
ATOM     18  C   UNL     1       1.468   3.121  18.205  0.00  0.00    +0.000 C 
BRANCH  18  19
ATOM     19  O   UNL     1       1.189   4.262  17.529  0.00  0.00    +0.000 OA
ATOM     20  H   UNL     1       0.548   4.101  16.792  0.00  0.00    +0.000 HD
ENDBRANCH  18  19
ENDBRANCH  11  18
ENDBRANCH  10  15
ENDBRANCH   9  10
ENDBRANCH   7   9
ENDBRANCH   1   8
BRANCH   4  21
ATOM     21  N   UNL     1      -0.752  11.028  21.040  0.00  0.00    +0.000 NA
ATOM     22  N   UNL     1      -0.253  11.601  22.032  0.00  0.00    +0.000 NA
BRANCH  22  23
ATOM     23  C   UNL     1      -1.207  12.417  22.697  0.00  0.00    +0.000 A 
ATOM     24  C   UNL     1      -2.410  11.885  23.202  0.00  0.00    +0.000 A 
ATOM     25  C   UNL     1      -3.325  12.681  23.884  0.00  0.00    +0.000 A 
ATOM     26  C   UNL     1      -3.062  14.035  24.055  0.00  0.00    +0.000 A 
ATOM     27  C   UNL     1      -1.889  14.610  23.548  0.00  0.00    +0.000 A 
ATOM     28  C   UNL     1      -1.643  15.981  23.729  0.00  0.00    +0.000 A 
ATOM     29  C   UNL     1      -0.481  16.572  23.235  0.00  0.00    +0.000 A 
ATOM     30  C   UNL     1       0.449  15.800  22.550  0.00  0.00    +0.000 A 
ATOM     31  C   UNL     1       0.219  14.433  22.364  0.00  0.00    +0.000 A 
ATOM     32  C   UNL     1      -0.947  13.806  22.856  0.00  0.00    +0.000 A 
ENDBRANCH  22  23
ENDBRANCH   4  21
TORSDOF 8
ENDMDL
MODEL 7
REMARK VINA RESULT:      -8.0      3.969     10.646
REMARK  Name = 
REMARK  8 active torsions:
REMARK  status: ('A' for Active; 'I' for Inactive)
REMARK    1  A    between atoms: C_2  and  O_3
REMARK    2  A    between atoms: C_2  and  C_4
REMARK    3  A    between atoms: N_8  and  C_9
REMARK    4  A    between atoms: C_9  and  C_10
REMARK    5  A    between atoms: C_10  and  C_11
REMARK    6  A    between atoms: C_12  and  C_13
REMARK    7  A    between atoms: C_16  and  N_17
REMARK    8  A    between atoms: N_18  and  C_19
REMARK                            x       y       z     vdW  Elec       q    Type
REMARK                         _______ _______ _______ _____ _____    ______ ____
ROOT
ATOM      1  C   UNL     1       2.546   8.004  18.476  0.00  0.00    +0.000 A 
ATOM      2  C   UNL     1       2.125   7.730  19.773  0.00  0.00    +0.000 A 
ATOM      3  C   UNL     1       1.230   8.592  20.405  0.00  0.00    +0.000 A 
ATOM      4  C   UNL     1       0.744   9.733  19.754  0.00  0.00    +0.000 A 
ATOM      5  C   UNL     1       1.140   9.975  18.432  0.00  0.00    +0.000 A 
ATOM      6  C   UNL     1       2.041   9.113  17.793  0.00  0.00    +0.000 A 
ENDROOT
BRANCH   1   8
ATOM      7  C   UNL     1       3.986   6.135  17.358  0.00  0.00    +0.000 C 
ATOM      8  C   UNL     1       3.407   7.078  17.819  0.00  0.00    +0.000 C 
BRANCH   7   9
ATOM      9  C   UNL     1       4.339   4.786  16.917  0.00  0.00    +0.000 C 
BRANCH   9  10
ATOM     10  C   UNL     1       4.586   3.988  18.212  0.00  0.00    +0.000 C 
BRANCH  10  15
ATOM     11  C   UNL     1       1.943   3.927  20.869  0.00  0.00    +0.000 C 
ATOM     12  C   UNL     1       0.702   3.670  20.014  0.00  0.00    +0.000 C 
ATOM     13  C   UNL     1       1.022   2.831  18.778  0.00  0.00    +0.000 C 
ATOM     14  C   UNL     1       2.237   3.368  18.018  0.00  0.00    +0.000 C 
ATOM     15  N   UNL     1       3.398   3.486  18.921  0.00  0.00    +0.000 NA
ATOM     16  C   UNL     1       3.091   4.449  20.013  0.00  0.00    +0.000 C 
BRANCH  11  18
ATOM     17  O   UNL     1       3.465   2.229  21.658  0.00  0.00    +0.000 OA
ATOM     18  C   UNL     1       2.333   2.697  21.665  0.00  0.00    +0.000 C 
BRANCH  18  19
ATOM     19  O   UNL     1       1.352   2.169  22.436  0.00  0.00    +0.000 OA
ATOM     20  H   UNL     1       1.334   1.182  22.377  0.00  0.00    +0.000 HD
ENDBRANCH  18  19
ENDBRANCH  11  18
ENDBRANCH  10  15
ENDBRANCH   9  10
ENDBRANCH   7   9
ENDBRANCH   1   8
BRANCH   4  21
ATOM     21  N   UNL     1      -0.161  10.537  20.465  0.00  0.00    +0.000 NA
ATOM     22  N   UNL     1       0.390  11.457  21.106  0.00  0.00    +0.000 NA
BRANCH  22  23
ATOM     23  C   UNL     1      -0.539  12.147  21.929  0.00  0.00    +0.000 A 
ATOM     24  C   UNL     1      -1.690  11.512  22.438  0.00  0.00    +0.000 A 
ATOM     25  C   UNL     1      -2.578  12.182  23.273  0.00  0.00    +0.000 A 
ATOM     26  C   UNL     1      -2.342  13.512  23.600  0.00  0.00    +0.000 A 
ATOM     27  C   UNL     1      -1.223  14.189  23.097  0.00  0.00    +0.000 A 
ATOM     28  C   UNL     1      -1.003  15.533  23.438  0.00  0.00    +0.000 A 
ATOM     29  C   UNL     1       0.106  16.224  22.951  0.00  0.00    +0.000 A 
ATOM     30  C   UNL     1       1.008  15.579  22.114  0.00  0.00    +0.000 A 
ATOM     31  C   UNL     1       0.804  14.240  21.768  0.00  0.00    +0.000 A 
ATOM     32  C   UNL     1      -0.308  13.513  22.250  0.00  0.00    +0.000 A 
ENDBRANCH  22  23
ENDBRANCH   4  21
TORSDOF 8
ENDMDL
MODEL 8
REMARK VINA RESULT:      -8.0      4.038     10.662
REMARK  Name = 
REMARK  8 active torsions:
REMARK  status: ('A' for Active; 'I' for Inactive)
REMARK    1  A    between atoms: C_2  and  O_3
REMARK    2  A    between atoms: C_2  and  C_4
REMARK    3  A    between atoms: N_8  and  C_9
REMARK    4  A    between atoms: C_9  and  C_10
REMARK    5  A    between atoms: C_10  and  C_11
REMARK    6  A    between atoms: C_12  and  C_13
REMARK    7  A    between atoms: C_16  and  N_17
REMARK    8  A    between atoms: N_18  and  C_19
REMARK                            x       y       z     vdW  Elec       q    Type
REMARK                         _______ _______ _______ _____ _____    ______ ____
ROOT
ATOM      1  C   UNL     1       2.538   7.892  18.409  0.00  0.00    +0.000 A 
ATOM      2  C   UNL     1       2.095   7.776  19.723  0.00  0.00    +0.000 A 
ATOM      3  C   UNL     1       1.162   8.685  20.220  0.00  0.00    +0.000 A 
ATOM      4  C   UNL     1       0.659   9.716  19.416  0.00  0.00    +0.000 A 
ATOM      5  C   UNL     1       1.078   9.796  18.081  0.00  0.00    +0.000 A 
ATOM      6  C   UNL     1       2.017   8.886  17.578  0.00  0.00    +0.000 A 
ENDROOT
BRANCH   1   8
ATOM      7  C   UNL     1       4.017   5.944  17.495  0.00  0.00    +0.000 C 
ATOM      8  C   UNL     1       3.440   6.916  17.896  0.00  0.00    +0.000 C 
BRANCH   7   9
ATOM      9  C   UNL     1       4.328   4.601  17.007  0.00  0.00    +0.000 C 
BRANCH   9  10
ATOM     10  C   UNL     1       4.531   3.747  18.274  0.00  0.00    +0.000 C 
BRANCH  10  15
ATOM     11  C   UNL     1       1.834   3.891  20.873  0.00  0.00    +0.000 C 
ATOM     12  C   UNL     1       0.605   3.614  20.007  0.00  0.00    +0.000 C 
ATOM     13  C   UNL     1       0.930   2.702  18.826  0.00  0.00    +0.000 C 
ATOM     14  C   UNL     1       2.173   3.169  18.064  0.00  0.00    +0.000 C 
ATOM     15  N   UNL     1       3.317   3.312  18.984  0.00  0.00    +0.000 NA
ATOM     16  C   UNL     1       3.011   4.340  20.015  0.00  0.00    +0.000 C 
BRANCH  11  18
ATOM     17  O   UNL     1       1.361   2.136  22.459  0.00  0.00    +0.000 OA
ATOM     18  C   UNL     1       2.180   2.699  21.743  0.00  0.00    +0.000 C 
BRANCH  18  19
ATOM     19  O   UNL     1       3.456   2.256  21.642  0.00  0.00    +0.000 OA
ATOM     20  H   UNL     1       3.975   2.788  20.989  0.00  0.00    +0.000 HD
ENDBRANCH  18  19
ENDBRANCH  11  18
ENDBRANCH  10  15
ENDBRANCH   9  10
ENDBRANCH   7   9
ENDBRANCH   1   8
BRANCH   4  21
ATOM     21  N   UNL     1      -0.285  10.577  19.998  0.00  0.00    +0.000 NA
ATOM     22  N   UNL     1      -0.030  11.787  19.819  0.00  0.00    +0.000 NA
BRANCH  22  23
ATOM     23  C   UNL     1      -0.917  12.620  20.550  0.00  0.00    +0.000 A 
ATOM     24  C   UNL     1      -1.703  12.117  21.606  0.00  0.00    +0.000 A 
ATOM     25  C   UNL     1      -2.544  12.944  22.342  0.00  0.00    +0.000 A 
ATOM     26  C   UNL     1      -2.632  14.293  22.022  0.00  0.00    +0.000 A 
ATOM     27  C   UNL     1      -1.886  14.832  20.965  0.00  0.00    +0.000 A 
ATOM     28  C   UNL     1      -1.989  16.197  20.655  0.00  0.00    +0.000 A 
ATOM     29  C   UNL     1      -1.254  16.753  19.609  0.00  0.00    +0.000 A 
ATOM     30  C   UNL     1      -0.407  15.949  18.857  0.00  0.00    +0.000 A 
ATOM     31  C   UNL     1      -0.291  14.587  19.155  0.00  0.00    +0.000 A 
ATOM     32  C   UNL     1      -1.021  13.997  20.211  0.00  0.00    +0.000 A 
ENDBRANCH  22  23
ENDBRANCH   4  21
TORSDOF 8
ENDMDL
MODEL 9
REMARK VINA RESULT:      -8.0      4.044     10.751
REMARK  Name = 
REMARK  8 active torsions:
REMARK  status: ('A' for Active; 'I' for Inactive)
REMARK    1  A    between atoms: C_2  and  O_3
REMARK    2  A    between atoms: C_2  and  C_4
REMARK    3  A    between atoms: N_8  and  C_9
REMARK    4  A    between atoms: C_9  and  C_10
REMARK    5  A    between atoms: C_10  and  C_11
REMARK    6  A    between atoms: C_12  and  C_13
REMARK    7  A    between atoms: C_16  and  N_17
REMARK    8  A    between atoms: N_18  and  C_19
REMARK                            x       y       z     vdW  Elec       q    Type
REMARK                         _______ _______ _______ _____ _____    ______ ____
ROOT
ATOM      1  C   UNL     1       2.525   8.180  18.391  0.00  0.00    +0.000 A 
ATOM      2  C   UNL     1       2.106   7.913  19.691  0.00  0.00    +0.000 A 
ATOM      3  C   UNL     1       1.124   8.712  20.277  0.00  0.00    +0.000 A 
ATOM      4  C   UNL     1       0.549   9.781  19.578  0.00  0.00    +0.000 A 
ATOM      5  C   UNL     1       0.947  10.012  18.254  0.00  0.00    +0.000 A 
ATOM      6  C   UNL     1       1.934   9.215  17.661  0.00  0.00    +0.000 A 
ENDROOT
BRANCH   1   8
ATOM      7  C   UNL     1       4.274   6.471  17.476  0.00  0.00    +0.000 C 
ATOM      8  C   UNL     1       3.479   7.316  17.782  0.00  0.00    +0.000 C 
BRANCH   7   9
ATOM      9  C   UNL     1       5.092   5.259  17.455  0.00  0.00    +0.000 C 
BRANCH   9  10
ATOM     10  C   UNL     1       4.938   4.641  18.857  0.00  0.00    +0.000 C 
BRANCH  10  15
ATOM     11  C   UNL     1       2.210   2.186  19.622  0.00  0.00    +0.000 C 
ATOM     12  C   UNL     1       1.643   2.799  20.903  0.00  0.00    +0.000 C 
ATOM     13  C   UNL     1       1.773   4.321  20.916  0.00  0.00    +0.000 C 
ATOM     14  C   UNL     1       3.184   4.781  20.543  0.00  0.00    +0.000 C 
ATOM     15  N   UNL     1       3.587   4.203  19.247  0.00  0.00    +0.000 NA
ATOM     16  C   UNL     1       3.610   2.718  19.342  0.00  0.00    +0.000 C 
BRANCH  11  18
ATOM     17  O   UNL     1       0.106   2.017  18.453  0.00  0.00    +0.000 OA
ATOM     18  C   UNL     1       1.273   2.389  18.448  0.00  0.00    +0.000 C 
BRANCH  18  19
ATOM     19  O   UNL     1       1.797   3.063  17.396  0.00  0.00    +0.000 OA
ATOM     20  H   UNL     1       2.772   3.198  17.499  0.00  0.00    +0.000 HD
ENDBRANCH  18  19
ENDBRANCH  11  18
ENDBRANCH  10  15
ENDBRANCH   9  10
ENDBRANCH   7   9
ENDBRANCH   1   8
BRANCH   4  21
ATOM     21  N   UNL     1      -0.439  10.522  20.246  0.00  0.00    +0.000 NA
ATOM     22  N   UNL     1       0.021  11.467  20.920  0.00  0.00    +0.000 NA
BRANCH  22  23
ATOM     23  C   UNL     1      -0.989  12.092  21.698  0.00  0.00    +0.000 A 
ATOM     24  C   UNL     1      -1.634  11.416  22.753  0.00  0.00    +0.000 A 
ATOM     25  C   UNL     1      -2.598  12.044  23.535  0.00  0.00    +0.000 A 
ATOM     26  C   UNL     1      -2.952  13.360  23.262  0.00  0.00    +0.000 A 
ATOM     27  C   UNL     1      -2.353  14.063  22.207  0.00  0.00    +0.000 A 
ATOM     28  C   UNL     1      -2.726  15.391  21.945  0.00  0.00    +0.000 A 
ATOM     29  C   UNL     1      -2.140  16.108  20.903  0.00  0.00    +0.000 A 
ATOM     30  C   UNL     1      -1.176  15.504  20.106  0.00  0.00    +0.000 A 
ATOM     31  C   UNL     1      -0.792  14.183  20.356  0.00  0.00    +0.000 A 
ATOM     32  C   UNL     1      -1.365  13.433  21.408  0.00  0.00    +0.000 A 
ENDBRANCH  22  23
ENDBRANCH   4  21
TORSDOF 8
ENDMDL
