MODEL 1
REMARK VINA RESULT:      -7.1      0.000      0.000
REMARK  Name = 
REMARK  5 active torsions:
REMARK  status: ('A' for Active; 'I' for Inactive)
REMARK    1  A    between atoms: C_1  and  N_2
REMARK    2  A    between atoms: N_2  and  C_11
REMARK    3  A    between atoms: C_3  and  C_5
REMARK    4  A    between atoms: C_24  and  C_25
REMARK    5  A    between atoms: C_25  and  O_26
REMARK                            x       y       z     vdW  Elec       q    Type
REMARK                         _______ _______ _______ _____ _____    ______ ____
ROOT
ATOM      1  C   UNL     1      -1.677  12.986  19.809  0.00  0.00    +0.000 C 
ATOM      2  C   UNL     1      -0.560  11.980  19.946  0.00  0.00    +0.000 A 
ATOM      3  C   UNL     1       0.415  12.103  18.943  0.00  0.00    +0.000 A 
ATOM      4  C   UNL     1       1.287  11.063  18.679  0.00  0.00    +0.000 A 
ATOM      5  C   UNL     1       1.262   9.928  19.494  0.00  0.00    +0.000 A 
ATOM      6  C   UNL     1       0.471   9.905  20.655  0.00  0.00    +0.000 A 
ATOM      7  C   UNL     1       0.521   8.830  21.563  0.00  0.00    +0.000 A 
ATOM      8  C   UNL     1      -0.143   8.894  22.788  0.00  0.00    +0.000 A 
ATOM      9  C   UNL     1      -0.790  10.063  23.157  0.00  0.00    +0.000 A 
ATOM     10  C   UNL     1      -0.869  11.115  22.247  0.00  0.00    +0.000 A 
ATOM     11  C   UNL     1      -0.359  11.007  20.944  0.00  0.00    +0.000 A 
ATOM     12  O   UNL     1       0.531  13.250  18.193  0.00  0.00    +0.000 OA
ATOM     13  C   UNL     1      -0.153  14.454  18.649  0.00  0.00    +0.000 C 
ATOM     14  C   UNL     1      -0.978  14.329  19.966  0.00  0.00    +0.000 C 
ENDROOT
BRANCH   1  16
ATOM     15  C   UNL     1      -3.581  13.166  21.533  0.00  0.00    +0.000 C 
ATOM     16  N   UNL     1      -3.066  12.716  20.246  0.00  0.00    +0.000 N 
ATOM     17  C   UNL     1      -4.012  12.057  19.417  0.00  0.00    +0.000 C 
ATOM     18  O   UNL     1      -5.221  12.067  19.642  0.00  0.00    +0.000 OA
BRANCH  17  19
ATOM     19  C   UNL     1      -3.579  11.351  18.188  0.00  0.00    +0.000 A 
ATOM     20  C   UNL     1      -2.593  10.347  18.234  0.00  0.00    +0.000 A 
ATOM     21  C   UNL     1      -2.132   9.773  17.046  0.00  0.00    +0.000 A 
ATOM     22  C   UNL     1      -2.686  10.153  15.822  0.00  0.00    +0.000 A 
ATOM     23  C   UNL     1      -3.709  11.103  15.782  0.00  0.00    +0.000 A 
ATOM     24  C   UNL     1      -4.155  11.701  16.963  0.00  0.00    +0.000 A 
ENDBRANCH  17  19
ENDBRANCH   1  16
BRANCH  14  25
ATOM     25  C   UNL     1      -1.876  15.532  20.192  0.00  0.00    +0.000 C 
BRANCH  25  26
ATOM     26  O   UNL     1      -1.597  16.529  19.211  0.00  0.00    +0.000 OA
ATOM     27  H   UNL     1      -1.033  16.127  18.528  0.00  0.00    +0.000 HD
ENDBRANCH  25  26
ENDBRANCH  14  25
TORSDOF 4
ENDMDL
MODEL 2
REMARK VINA RESULT:      -6.7      1.929      4.934
REMARK  Name = 
REMARK  5 active torsions:
REMARK  status: ('A' for Active; 'I' for Inactive)
REMARK    1  A    between atoms: C_1  and  N_2
REMARK    2  A    between atoms: N_2  and  C_11
REMARK    3  A    between atoms: C_3  and  C_5
REMARK    4  A    between atoms: C_24  and  C_25
REMARK    5  A    between atoms: C_25  and  O_26
REMARK                            x       y       z     vdW  Elec       q    Type
REMARK                         _______ _______ _______ _____ _____    ______ ____
ROOT
ATOM      1  C   UNL     1      -1.655  12.574  21.142  0.00  0.00    +0.000 C 
ATOM      2  C   UNL     1      -1.421  11.497  20.111  0.00  0.00    +0.000 A 
ATOM      3  C   UNL     1      -0.393  10.609  20.470  0.00  0.00    +0.000 A 
ATOM      4  C   UNL     1       0.212   9.812  19.516  0.00  0.00    +0.000 A 
ATOM      5  C   UNL     1      -0.282   9.817  18.209  0.00  0.00    +0.000 A 
ATOM      6  C   UNL     1      -1.468  10.503  17.902  0.00  0.00    +0.000 A 
ATOM      7  C   UNL     1      -2.060  10.423  16.626  0.00  0.00    +0.000 A 
ATOM      8  C   UNL     1      -3.318  10.974  16.383  0.00  0.00    +0.000 A 
ATOM      9  C   UNL     1      -4.036  11.532  17.429  0.00  0.00    +0.000 A 
ATOM     10  C   UNL     1      -3.440  11.642  18.683  0.00  0.00    +0.000 A 
ATOM     11  C   UNL     1      -2.110  11.254  18.907  0.00  0.00    +0.000 A 
ATOM     12  O   UNL     1       0.044  10.507  21.770  0.00  0.00    +0.000 OA
ATOM     13  C   UNL     1      -0.771  11.093  22.828  0.00  0.00    +0.000 C 
ATOM     14  C   UNL     1      -2.085  11.805  22.382  0.00  0.00    +0.000 C 
ENDROOT
BRANCH   1  16
ATOM     15  C   UNL     1      -3.534  14.327  20.958  0.00  0.00    +0.000 C 
ATOM     16  N   UNL     1      -2.140  13.930  20.797  0.00  0.00    +0.000 N 
ATOM     17  C   UNL     1      -1.271  14.960  20.346  0.00  0.00    +0.000 C 
ATOM     18  O   UNL     1      -1.596  16.146  20.319  0.00  0.00    +0.000 OA
BRANCH  17  19
ATOM     19  C   UNL     1       0.114  14.649  19.923  0.00  0.00    +0.000 A 
ATOM     20  C   UNL     1       0.382  14.088  18.660  0.00  0.00    +0.000 A 
ATOM     21  C   UNL     1       1.687  13.710  18.332  0.00  0.00    +0.000 A 
ATOM     22  C   UNL     1       2.731  13.939  19.230  0.00  0.00    +0.000 A 
ATOM     23  C   UNL     1       2.475  14.553  20.458  0.00  0.00    +0.000 A 
ATOM     24  C   UNL     1       1.169  14.909  20.804  0.00  0.00    +0.000 A 
ENDBRANCH  17  19
ENDBRANCH   1  16
BRANCH  14  25
ATOM     25  C   UNL     1      -2.698  12.623  23.503  0.00  0.00    +0.000 C 
BRANCH  25  26
ATOM     26  O   UNL     1      -3.984  12.098  23.831  0.00  0.00    +0.000 OA
ATOM     27  H   UNL     1      -4.055  11.211  23.437  0.00  0.00    +0.000 HD
ENDBRANCH  25  26
ENDBRANCH  14  25
TORSDOF 4
ENDMDL
MODEL 3
REMARK VINA RESULT:      -6.6      9.197     12.110
REMARK  Name = 
REMARK  5 active torsions:
REMARK  status: ('A' for Active; 'I' for Inactive)
REMARK    1  A    between atoms: C_1  and  N_2
REMARK    2  A    between atoms: N_2  and  C_11
REMARK    3  A    between atoms: C_3  and  C_5
REMARK    4  A    between atoms: C_24  and  C_25
REMARK    5  A    between atoms: C_25  and  O_26
REMARK                            x       y       z     vdW  Elec       q    Type
REMARK                         _______ _______ _______ _____ _____    ______ ____
ROOT
ATOM      1  C   UNL     1       9.954  14.278  18.626  0.00  0.00    +0.000 C 
ATOM      2  C   UNL     1       9.072  15.502  18.670  0.00  0.00    +0.000 A 
ATOM      3  C   UNL     1       9.796  16.692  18.852  0.00  0.00    +0.000 A 
ATOM      4  C   UNL     1       9.161  17.841  19.288  0.00  0.00    +0.000 A 
ATOM      5  C   UNL     1       7.772  17.836  19.443  0.00  0.00    +0.000 A 
ATOM      6  C   UNL     1       7.014  16.733  19.016  0.00  0.00    +0.000 A 
ATOM      7  C   UNL     1       5.606  16.749  19.040  0.00  0.00    +0.000 A 
ATOM      8  C   UNL     1       4.867  15.716  18.463  0.00  0.00    +0.000 A 
ATOM      9  C   UNL     1       5.522  14.702  17.781  0.00  0.00    +0.000 A 
ATOM     10  C   UNL     1       6.914  14.667  17.785  0.00  0.00    +0.000 A 
ATOM     11  C   UNL     1       7.677  15.598  18.507  0.00  0.00    +0.000 A 
ATOM     12  O   UNL     1      11.148  16.754  18.608  0.00  0.00    +0.000 OA
ATOM     13  C   UNL     1      11.772  15.668  17.862  0.00  0.00    +0.000 C 
ATOM     14  C   UNL     1      10.835  14.506  17.407  0.00  0.00    +0.000 C 
ENDROOT
BRANCH   1  16
ATOM     15  C   UNL     1       9.467  11.784  18.208  0.00  0.00    +0.000 C 
ATOM     16  N   UNL     1       9.507  12.944  19.090  0.00  0.00    +0.000 N 
ATOM     17  C   UNL     1       9.149  12.686  20.440  0.00  0.00    +0.000 C 
ATOM     18  O   UNL     1       9.044  11.550  20.898  0.00  0.00    +0.000 OA
BRANCH  17  19
ATOM     19  C   UNL     1       8.927  13.801  21.390  0.00  0.00    +0.000 A 
ATOM     20  C   UNL     1       7.627  14.203  21.751  0.00  0.00    +0.000 A 
ATOM     21  C   UNL     1       7.448  15.323  22.566  0.00  0.00    +0.000 A 
ATOM     22  C   UNL     1       8.556  16.009  23.069  0.00  0.00    +0.000 A 
ATOM     23  C   UNL     1       9.847  15.572  22.763  0.00  0.00    +0.000 A 
ATOM     24  C   UNL     1      10.033  14.470  21.925  0.00  0.00    +0.000 A 
ENDBRANCH  17  19
ENDBRANCH   1  16
BRANCH  14  25
ATOM     25  C   UNL     1      11.618  13.306  16.908  0.00  0.00    +0.000 C 
BRANCH  25  26
ATOM     26  O   UNL     1      11.677  13.332  15.482  0.00  0.00    +0.000 OA
ATOM     27  H   UNL     1      10.918  13.849  15.161  0.00  0.00    +0.000 HD
ENDBRANCH  25  26
ENDBRANCH  14  25
TORSDOF 4
ENDMDL
MODEL 4
REMARK VINA RESULT:      -6.4      9.403     11.752
REMARK  Name = 
REMARK  5 active torsions:
REMARK  status: ('A' for Active; 'I' for Inactive)
REMARK    1  A    between atoms: C_1  and  N_2
REMARK    2  A    between atoms: N_2  and  C_11
REMARK    3  A    between atoms: C_3  and  C_5
REMARK    4  A    between atoms: C_24  and  C_25
REMARK    5  A    between atoms: C_25  and  O_26
REMARK                            x       y       z     vdW  Elec       q    Type
REMARK                         _______ _______ _______ _____ _____    ______ ____
ROOT
ATOM      1  C   UNL     1       7.778  14.427  20.117  0.00  0.00    +0.000 C 
ATOM      2  C   UNL     1       8.924  15.240  19.566  0.00  0.00    +0.000 A 
ATOM      3  C   UNL     1       8.843  15.430  18.176  0.00  0.00    +0.000 A 
ATOM      4  C   UNL     1       9.959  15.806  17.452  0.00  0.00    +0.000 A 
ATOM      5  C   UNL     1      11.144  16.103  18.130  0.00  0.00    +0.000 A 
ATOM      6  C   UNL     1      11.162  16.167  19.533  0.00  0.00    +0.000 A 
ATOM      7  C   UNL     1      12.306  16.587  20.240  0.00  0.00    +0.000 A 
ATOM      8  C   UNL     1      12.259  16.803  21.618  0.00  0.00    +0.000 A 
ATOM      9  C   UNL     1      11.051  16.686  22.289  0.00  0.00    +0.000 A 
ATOM     10  C   UNL     1       9.928  16.239  21.598  0.00  0.00    +0.000 A 
ATOM     11  C   UNL     1       9.992  15.848  20.252  0.00  0.00    +0.000 A 
ATOM     12  O   UNL     1       7.662  15.246  17.495  0.00  0.00    +0.000 OA
ATOM     13  C   UNL     1       6.423  15.158  18.258  0.00  0.00    +0.000 C 
ATOM     14  C   UNL     1       6.550  15.272  19.808  0.00  0.00    +0.000 C 
ENDROOT
BRANCH   1  16
ATOM     15  C   UNL     1       7.163  13.791  22.535  0.00  0.00    +0.000 C 
ATOM     16  N   UNL     1       7.906  13.552  21.304  0.00  0.00    +0.000 N 
ATOM     17  C   UNL     1       8.712  12.381  21.306  0.00  0.00    +0.000 C 
ATOM     18  O   UNL     1       8.620  11.508  22.166  0.00  0.00    +0.000 OA
BRANCH  17  19
ATOM     19  C   UNL     1       9.688  12.134  20.219  0.00  0.00    +0.000 A 
ATOM     20  C   UNL     1       9.277  11.634  18.969  0.00  0.00    +0.000 A 
ATOM     21  C   UNL     1      10.232  11.313  18.002  0.00  0.00    +0.000 A 
ATOM     22  C   UNL     1      11.587  11.541  18.252  0.00  0.00    +0.000 A 
ATOM     23  C   UNL     1      11.991  12.096  19.467  0.00  0.00    +0.000 A 
ATOM     24  C   UNL     1      11.043  12.393  20.450  0.00  0.00    +0.000 A 
ENDBRANCH  17  19
ENDBRANCH   1  16
BRANCH  14  25
ATOM     25  C   UNL     1       5.267  14.878  20.516  0.00  0.00    +0.000 C 
BRANCH  25  26
ATOM     26  O   UNL     1       4.445  16.031  20.696  0.00  0.00    +0.000 OA
ATOM     27  H   UNL     1       3.939  15.912  21.518  0.00  0.00    +0.000 HD
ENDBRANCH  25  26
ENDBRANCH  14  25
TORSDOF 4
ENDMDL
MODEL 5
REMARK VINA RESULT:      -6.3      9.568     11.844
REMARK  Name = 
REMARK  5 active torsions:
REMARK  status: ('A' for Active; 'I' for Inactive)
REMARK    1  A    between atoms: C_1  and  N_2
REMARK    2  A    between atoms: N_2  and  C_11
REMARK    3  A    between atoms: C_3  and  C_5
REMARK    4  A    between atoms: C_24  and  C_25
REMARK    5  A    between atoms: C_25  and  O_26
REMARK                            x       y       z     vdW  Elec       q    Type
REMARK                         _______ _______ _______ _____ _____    ______ ____
ROOT
ATOM      1  C   UNL     1      10.029  15.078  18.933  0.00  0.00    +0.000 C 
ATOM      2  C   UNL     1       9.753  14.486  20.294  0.00  0.00    +0.000 A 
ATOM      3  C   UNL     1       9.284  13.163  20.231  0.00  0.00    +0.000 A 
ATOM      4  C   UNL     1       8.631  12.596  21.310  0.00  0.00    +0.000 A 
ATOM      5  C   UNL     1       8.538  13.315  22.505  0.00  0.00    +0.000 A 
ATOM      6  C   UNL     1       9.228  14.529  22.658  0.00  0.00    +0.000 A 
ATOM      7  C   UNL     1       9.258  15.212  23.890  0.00  0.00    +0.000 A 
ATOM      8  C   UNL     1      10.077  16.327  24.072  0.00  0.00    +0.000 A 
ATOM      9  C   UNL     1      10.938  16.717  23.059  0.00  0.00    +0.000 A 
ATOM     10  C   UNL     1      10.886  16.064  21.830  0.00  0.00    +0.000 A 
ATOM     11  C   UNL     1       9.947  15.055  21.566  0.00  0.00    +0.000 A 
ATOM     12  O   UNL     1       9.454  12.395  19.102  0.00  0.00    +0.000 OA
ATOM     13  C   UNL     1      10.395  12.848  18.085  0.00  0.00    +0.000 C 
ATOM     14  C   UNL     1      11.131  14.194  18.368  0.00  0.00    +0.000 C 
ENDROOT
BRANCH   1  16
ATOM     15  C   UNL     1      11.028  17.361  18.285  0.00  0.00    +0.000 C 
ATOM     16  N   UNL     1       9.889  16.522  18.637  0.00  0.00    +0.000 N 
ATOM     17  C   UNL     1       8.629  17.178  18.613  0.00  0.00    +0.000 C 
ATOM     18  O   UNL     1       8.462  18.287  18.110  0.00  0.00    +0.000 OA
BRANCH  17  19
ATOM     19  C   UNL     1       7.422  16.517  19.163  0.00  0.00    +0.000 A 
ATOM     20  C   UNL     1       7.028  16.716  20.500  0.00  0.00    +0.000 A 
ATOM     21  C   UNL     1       5.946  16.000  21.018  0.00  0.00    +0.000 A 
ATOM     22  C   UNL     1       5.224  15.130  20.199  0.00  0.00    +0.000 A 
ATOM     23  C   UNL     1       5.576  14.979  18.856  0.00  0.00    +0.000 A 
ATOM     24  C   UNL     1       6.673  15.672  18.338  0.00  0.00    +0.000 A 
ENDBRANCH  17  19
ENDBRANCH   1  16
BRANCH  14  25
ATOM     25  C   UNL     1      11.851  14.718  17.139  0.00  0.00    +0.000 C 
BRANCH  25  26
ATOM     26  O   UNL     1      11.142  14.326  15.965  0.00  0.00    +0.000 OA
ATOM     27  H   UNL     1      11.541  13.501  15.636  0.00  0.00    +0.000 HD
ENDBRANCH  25  26
ENDBRANCH  14  25
TORSDOF 4
ENDMDL
MODEL 6
REMARK VINA RESULT:      -6.3      2.124      5.346
REMARK  Name = 
REMARK  5 active torsions:
REMARK  status: ('A' for Active; 'I' for Inactive)
REMARK    1  A    between atoms: C_1  and  N_2
REMARK    2  A    between atoms: N_2  and  C_11
REMARK    3  A    between atoms: C_3  and  C_5
REMARK    4  A    between atoms: C_24  and  C_25
REMARK    5  A    between atoms: C_25  and  O_26
REMARK                            x       y       z     vdW  Elec       q    Type
REMARK                         _______ _______ _______ _____ _____    ______ ____
ROOT
ATOM      1  C   UNL     1      -1.381  12.148  20.396  0.00  0.00    +0.000 C 
ATOM      2  C   UNL     1      -1.936  11.443  19.182  0.00  0.00    +0.000 A 
ATOM      3  C   UNL     1      -1.062  10.471  18.667  0.00  0.00    +0.000 A 
ATOM      4  C   UNL     1      -1.217  10.001  17.375  0.00  0.00    +0.000 A 
ATOM      5  C   UNL     1      -2.317  10.422  16.623  0.00  0.00    +0.000 A 
ATOM      6  C   UNL     1      -3.332  11.188  17.219  0.00  0.00    +0.000 A 
ATOM      7  C   UNL     1      -4.512  11.520  16.525  0.00  0.00    +0.000 A 
ATOM      8  C   UNL     1      -5.579  12.139  17.178  0.00  0.00    +0.000 A 
ATOM      9  C   UNL     1      -5.513  12.353  18.546  0.00  0.00    +0.000 A 
ATOM     10  C   UNL     1      -4.335  12.057  19.227  0.00  0.00    +0.000 A 
ATOM     11  C   UNL     1      -3.189  11.598  18.559  0.00  0.00    +0.000 A 
ATOM     12  O   UNL     1      -0.031   9.961  19.420  0.00  0.00    +0.000 OA
ATOM     13  C   UNL     1      -0.034  10.200  20.859  0.00  0.00    +0.000 C 
ATOM     14  C   UNL     1      -1.224  11.036  21.423  0.00  0.00    +0.000 C 
ENDROOT
BRANCH   1  16
ATOM     15  C   UNL     1      -3.056  13.970  21.107  0.00  0.00    +0.000 C 
ATOM     16  N   UNL     1      -1.710  13.551  20.735  0.00  0.00    +0.000 N 
ATOM     17  C   UNL     1      -0.726  14.575  20.785  0.00  0.00    +0.000 C 
ATOM     18  O   UNL     1      -0.921  15.664  21.321  0.00  0.00    +0.000 OA
BRANCH  17  19
ATOM     19  C   UNL     1       0.625  14.353  20.221  0.00  0.00    +0.000 A 
ATOM     20  C   UNL     1       1.684  13.888  21.025  0.00  0.00    +0.000 A 
ATOM     21  C   UNL     1       2.970  13.788  20.489  0.00  0.00    +0.000 A 
ATOM     22  C   UNL     1       3.196  14.093  19.145  0.00  0.00    +0.000 A 
ATOM     23  C   UNL     1       2.135  14.493  18.331  0.00  0.00    +0.000 A 
ATOM     24  C   UNL     1       0.851  14.623  18.867  0.00  0.00    +0.000 A 
ENDBRANCH  17  19
ENDBRANCH   1  16
BRANCH  14  25
ATOM     25  C   UNL     1      -0.984  11.473  22.856  0.00  0.00    +0.000 C 
BRANCH  25  26
ATOM     26  O   UNL     1      -0.236  10.471  23.544  0.00  0.00    +0.000 OA
ATOM     27  H   UNL     1      -0.854   9.969  24.104  0.00  0.00    +0.000 HD
ENDBRANCH  25  26
ENDBRANCH  14  25
TORSDOF 4
ENDMDL
MODEL 7
REMARK VINA RESULT:      -6.2      9.629     12.054
REMARK  Name = 
REMARK  5 active torsions:
REMARK  status: ('A' for Active; 'I' for Inactive)
REMARK    1  A    between atoms: C_1  and  N_2
REMARK    2  A    between atoms: N_2  and  C_11
REMARK    3  A    between atoms: C_3  and  C_5
REMARK    4  A    between atoms: C_24  and  C_25
REMARK    5  A    between atoms: C_25  and  O_26
REMARK                            x       y       z     vdW  Elec       q    Type
REMARK                         _______ _______ _______ _____ _____    ______ ____
ROOT
ATOM      1  C   UNL     1      10.374  13.807  19.559  0.00  0.00    +0.000 C 
ATOM      2  C   UNL     1       9.746  13.882  20.929  0.00  0.00    +0.000 A 
ATOM      3  C   UNL     1       8.992  12.741  21.249  0.00  0.00    +0.000 A 
ATOM      4  C   UNL     1       8.055  12.779  22.266  0.00  0.00    +0.000 A 
ATOM      5  C   UNL     1       7.943  13.933  23.046  0.00  0.00    +0.000 A 
ATOM      6  C   UNL     1       8.868  14.981  22.902  0.00  0.00    +0.000 A 
ATOM      7  C   UNL     1       8.858  16.098  23.758  0.00  0.00    +0.000 A 
ATOM      8  C   UNL     1       9.879  17.049  23.709  0.00  0.00    +0.000 A 
ATOM      9  C   UNL     1      10.962  16.847  22.868  0.00  0.00    +0.000 A 
ATOM     10  C   UNL     1      10.957  15.761  21.997  0.00  0.00    +0.000 A 
ATOM     11  C   UNL     1       9.860  14.890  21.905  0.00  0.00    +0.000 A 
ATOM     12  O   UNL     1       9.155  11.558  20.565  0.00  0.00    +0.000 OA
ATOM     13  C   UNL     1      10.330  11.400  19.717  0.00  0.00    +0.000 C 
ATOM     14  C   UNL     1      11.310  12.611  19.651  0.00  0.00    +0.000 C 
ENDROOT
BRANCH   1  16
ATOM     15  C   UNL     1      11.979  15.506  18.477  0.00  0.00    +0.000 C 
ATOM     16  N   UNL     1      10.633  15.002  18.723  0.00  0.00    +0.000 N 
ATOM     17  C   UNL     1       9.596  15.703  18.051  0.00  0.00    +0.000 C 
ATOM     18  O   UNL     1       9.811  16.512  17.150  0.00  0.00    +0.000 OA
BRANCH  17  19
ATOM     19  C   UNL     1       8.175  15.450  18.382  0.00  0.00    +0.000 A 
ATOM     20  C   UNL     1       7.402  14.542  17.632  0.00  0.00    +0.000 A 
ATOM     21  C   UNL     1       6.039  14.402  17.903  0.00  0.00    +0.000 A 
ATOM     22  C   UNL     1       5.455  15.118  18.950  0.00  0.00    +0.000 A 
ATOM     23  C   UNL     1       6.233  15.971  19.734  0.00  0.00    +0.000 A 
ATOM     24  C   UNL     1       7.592  16.137  19.452  0.00  0.00    +0.000 A 
ENDBRANCH  17  19
ENDBRANCH   1  16
BRANCH  14  25
ATOM     25  C   UNL     1      12.325  12.463  18.533  0.00  0.00    +0.000 C 
BRANCH  25  26
ATOM     26  O   UNL     1      11.747  11.728  17.455  0.00  0.00    +0.000 OA
ATOM     27  H   UNL     1      12.359  11.009  17.222  0.00  0.00    +0.000 HD
ENDBRANCH  25  26
ENDBRANCH  14  25
TORSDOF 4
ENDMDL
MODEL 8
REMARK VINA RESULT:      -6.2      2.127      4.744
REMARK  Name = 
REMARK  5 active torsions:
REMARK  status: ('A' for Active; 'I' for Inactive)
REMARK    1  A    between atoms: C_1  and  N_2
REMARK    2  A    between atoms: N_2  and  C_11
REMARK    3  A    between atoms: C_3  and  C_5
REMARK    4  A    between atoms: C_24  and  C_25
REMARK    5  A    between atoms: C_25  and  O_26
REMARK                            x       y       z     vdW  Elec       q    Type
REMARK                         _______ _______ _______ _____ _____    ______ ____
ROOT
ATOM      1  C   UNL     1      -1.948  13.317  21.559  0.00  0.00    +0.000 C 
ATOM      2  C   UNL     1      -1.524  12.021  20.911  0.00  0.00    +0.000 A 
ATOM      3  C   UNL     1      -0.732  11.223  21.752  0.00  0.00    +0.000 A 
ATOM      4  C   UNL     1       0.049  10.209  21.228  0.00  0.00    +0.000 A 
ATOM      5  C   UNL     1      -0.041   9.914  19.865  0.00  0.00    +0.000 A 
ATOM      6  C   UNL     1      -1.020  10.532  19.068  0.00  0.00    +0.000 A 
ATOM      7  C   UNL     1      -1.220  10.163  17.724  0.00  0.00    +0.000 A 
ATOM      8  C   UNL     1      -2.298  10.667  16.995  0.00  0.00    +0.000 A 
ATOM      9  C   UNL     1      -3.234  11.473  17.624  0.00  0.00    +0.000 A 
ATOM     10  C   UNL     1      -3.020  11.865  18.943  0.00  0.00    +0.000 A 
ATOM     11  C   UNL     1      -1.854  11.514  19.640  0.00  0.00    +0.000 A 
ATOM     12  O   UNL     1      -0.702  11.423  23.113  0.00  0.00    +0.000 OA
ATOM     13  C   UNL     1      -1.731  12.260  23.717  0.00  0.00    +0.000 C 
ATOM     14  C   UNL     1      -2.788  12.873  22.748  0.00  0.00    +0.000 C 
ENDROOT
BRANCH   1  16
ATOM     15  C   UNL     1      -3.483  15.227  20.765  0.00  0.00    +0.000 C 
ATOM     16  N   UNL     1      -2.186  14.562  20.793  0.00  0.00    +0.000 N 
ATOM     17  C   UNL     1      -1.152  15.232  20.085  0.00  0.00    +0.000 C 
ATOM     18  O   UNL     1      -1.258  16.388  19.681  0.00  0.00    +0.000 OA
BRANCH  17  19
ATOM     19  C   UNL     1       0.149  14.567  19.838  0.00  0.00    +0.000 A 
ATOM     20  C   UNL     1       1.159  14.554  20.819  0.00  0.00    +0.000 A 
ATOM     21  C   UNL     1       2.410  14.010  20.519  0.00  0.00    +0.000 A 
ATOM     22  C   UNL     1       2.642  13.430  19.270  0.00  0.00    +0.000 A 
ATOM     23  C   UNL     1       1.621  13.386  18.319  0.00  0.00    +0.000 A 
ATOM     24  C   UNL     1       0.375  13.953  18.602  0.00  0.00    +0.000 A 
ENDBRANCH  17  19
ENDBRANCH   1  16
BRANCH  14  25
ATOM     25  C   UNL     1      -3.623  13.947  23.420  0.00  0.00    +0.000 C 
BRANCH  25  26
ATOM     26  O   UNL     1      -4.307  13.390  24.541  0.00  0.00    +0.000 OA
ATOM     27  H   UNL     1      -4.463  14.105  25.182  0.00  0.00    +0.000 HD
ENDBRANCH  25  26
ENDBRANCH  14  25
TORSDOF 4
ENDMDL
MODEL 9
REMARK VINA RESULT:      -6.1      9.677     12.152
REMARK  Name = 
REMARK  5 active torsions:
REMARK  status: ('A' for Active; 'I' for Inactive)
REMARK    1  A    between atoms: C_1  and  N_2
REMARK    2  A    between atoms: N_2  and  C_11
REMARK    3  A    between atoms: C_3  and  C_5
REMARK    4  A    between atoms: C_24  and  C_25
REMARK    5  A    between atoms: C_25  and  O_26
REMARK                            x       y       z     vdW  Elec       q    Type
REMARK                         _______ _______ _______ _____ _____    ______ ____
ROOT
ATOM      1  C   UNL     1      10.416  13.668  19.696  0.00  0.00    +0.000 C 
ATOM      2  C   UNL     1       9.681  13.882  20.997  0.00  0.00    +0.000 A 
ATOM      3  C   UNL     1       8.813  12.825  21.316  0.00  0.00    +0.000 A 
ATOM      4  C   UNL     1       7.799  13.002  22.240  0.00  0.00    +0.000 A 
ATOM      5  C   UNL     1       7.714  14.211  22.935  0.00  0.00    +0.000 A 
ATOM      6  C   UNL     1       8.729  15.174  22.812  0.00  0.00    +0.000 A 
ATOM      7  C   UNL     1       8.737  16.344  23.595  0.00  0.00    +0.000 A 
ATOM      8  C   UNL     1       9.832  17.210  23.581  0.00  0.00    +0.000 A 
ATOM      9  C   UNL     1      10.963  16.871  22.855  0.00  0.00    +0.000 A 
ATOM     10  C   UNL     1      10.944  15.732  22.054  0.00  0.00    +0.000 A 
ATOM     11  C   UNL     1       9.792  14.942  21.916  0.00  0.00    +0.000 A 
ATOM     12  O   UNL     1       8.937  11.590  20.723  0.00  0.00    +0.000 OA
ATOM     13  C   UNL     1      10.164  11.287  19.995  0.00  0.00    +0.000 C 
ATOM     14  C   UNL     1      11.241  12.414  19.945  0.00  0.00    +0.000 C 
ENDROOT
BRANCH   1  16
ATOM     15  C   UNL     1      12.244  15.098  18.581  0.00  0.00    +0.000 C 
ATOM     16  N   UNL     1      10.841  14.781  18.817  0.00  0.00    +0.000 N 
ATOM     17  C   UNL     1       9.915  15.577  18.091  0.00  0.00    +0.000 C 
ATOM     18  O   UNL     1      10.248  16.310  17.161  0.00  0.00    +0.000 OA
BRANCH  17  19
ATOM     19  C   UNL     1       8.467  15.522  18.398  0.00  0.00    +0.000 A 
ATOM     20  C   UNL     1       7.892  16.379  19.356  0.00  0.00    +0.000 A 
ATOM     21  C   UNL     1       6.545  16.233  19.698  0.00  0.00    +0.000 A 
ATOM     22  C   UNL     1       5.757  15.277  19.053  0.00  0.00    +0.000 A 
ATOM     23  C   UNL     1       6.312  14.469  18.059  0.00  0.00    +0.000 A 
ATOM     24  C   UNL     1       7.664  14.591  17.730  0.00  0.00    +0.000 A 
ENDBRANCH  17  19
ENDBRANCH   1  16
BRANCH  14  25
ATOM     25  C   UNL     1      12.332  12.115  18.934  0.00  0.00    +0.000 C 
BRANCH  25  26
ATOM     26  O   UNL     1      11.751  11.581  17.745  0.00  0.00    +0.000 OA
ATOM     27  H   UNL     1      10.799  11.780  17.762  0.00  0.00    +0.000 HD
ENDBRANCH  25  26
ENDBRANCH  14  25
TORSDOF 4
ENDMDL
