MODEL 1
REMARK VINA RESULT:      -7.9      0.000      0.000
REMARK  Name = 
REMARK  3 active torsions:
REMARK  status: ('A' for Active; 'I' for Inactive)
REMARK    1  A    between atoms: C_8  and  N_9
REMARK    2  A    between atoms: N_12  and  C_13
REMARK    3  A    between atoms: C_13  and  C_14
REMARK                            x       y       z     vdW  Elec       q    Type
REMARK                         _______ _______ _______ _____ _____    ______ ____
ROOT
ATOM      1  N   UNL     1       5.368   5.722  16.106  0.00  0.00    +0.000 N 
ATOM      2  C   UNL     1       6.463   5.248  15.433  0.00  0.00    +0.000 C 
ATOM      3  O   UNL     1       7.429   4.732  15.983  0.00  0.00    +0.000 OA
ATOM      4  N   UNL     1       6.347   5.420  14.080  0.00  0.00    +0.000 N 
ATOM      5  H   UNL     1       4.809   6.398  15.608  0.00  0.00    +0.000 HD
ATOM      6  H   UNL     1       5.412   5.496  13.710  0.00  0.00    +0.000 HD
ENDROOT
BRANCH   1  14
ATOM      7  O   UNL     1       0.032   2.222  19.039  0.00  0.00    +0.000 OA
ATOM      8  C   UNL     1       1.026   2.921  19.112  0.00  0.00    +0.000 C 
ATOM      9  C   UNL     1       1.534   3.633  20.332  0.00  0.00    +0.000 C 
ATOM     10  C   UNL     1       2.977   3.966  19.959  0.00  0.00    +0.000 C 
ATOM     11  C   UNL     1       2.988   4.049  18.419  0.00  0.00    +0.000 C 
ATOM     12  C   UNL     1       4.269   3.439  17.832  0.00  0.00    +0.000 C 
ATOM     13  C   UNL     1       5.498   4.301  18.106  0.00  0.00    +0.000 C 
ATOM     14  C   UNL     1       5.329   5.722  17.566  0.00  0.00    +0.000 C 
ATOM     15  C   UNL     1       4.044   6.371  18.104  0.00  0.00    +0.000 C 
ATOM     16  C   UNL     1       2.798   5.495  17.913  0.00  0.00    +0.000 C 
ATOM     17  N   UNL     1       1.858   3.224  18.059  0.00  0.00    +0.000 N 
ATOM     18  H   UNL     1       1.651   2.872  17.132  0.00  0.00    +0.000 HD
ENDBRANCH   1  14
BRANCH   4  19
ATOM     19  C   UNL     1       7.346   4.853  13.203  0.00  0.00    +0.000 C 
BRANCH  19  20
ATOM     20  C   UNL     1       6.792   3.690  12.425  0.00  0.00    +0.000 A 
ATOM     21  C   UNL     1       7.665   2.797  11.788  0.00  0.00    +0.000 A 
ATOM     22  C   UNL     1       7.166   1.724  11.047  0.00  0.00    +0.000 A 
ATOM     23  C   UNL     1       5.791   1.539  10.931  0.00  0.00    +0.000 A 
ATOM     24  C   UNL     1       4.912   2.421  11.559  0.00  0.00    +0.000 A 
ATOM     25  C   UNL     1       5.409   3.495  12.302  0.00  0.00    +0.000 A 
ENDBRANCH  19  20
ENDBRANCH   4  19
TORSDOF 3
ENDMDL
MODEL 2
REMARK VINA RESULT:      -7.8      0.186      1.045
REMARK  Name = 
REMARK  3 active torsions:
REMARK  status: ('A' for Active; 'I' for Inactive)
REMARK    1  A    between atoms: C_8  and  N_9
REMARK    2  A    between atoms: N_12  and  C_13
REMARK    3  A    between atoms: C_13  and  C_14
REMARK                            x       y       z     vdW  Elec       q    Type
REMARK                         _______ _______ _______ _____ _____    ______ ____
ROOT
ATOM      1  N   UNL     1       5.375   5.675  16.131  0.00  0.00    +0.000 N 
ATOM      2  C   UNL     1       6.478   5.232  15.451  0.00  0.00    +0.000 C 
ATOM      3  O   UNL     1       7.482   4.789  15.997  0.00  0.00    +0.000 OA
ATOM      4  N   UNL     1       6.323   5.341  14.095  0.00  0.00    +0.000 N 
ATOM      5  H   UNL     1       4.771   6.301  15.620  0.00  0.00    +0.000 HD
ATOM      6  H   UNL     1       5.377   5.354  13.746  0.00  0.00    +0.000 HD
ENDROOT
BRANCH   1  14
ATOM      7  O   UNL     1      -0.038   2.527  19.310  0.00  0.00    +0.000 OA
ATOM      8  C   UNL     1       0.986   3.184  19.334  0.00  0.00    +0.000 C 
ATOM      9  C   UNL     1       1.552   3.920  20.515  0.00  0.00    +0.000 C 
ATOM     10  C   UNL     1       2.999   4.175  20.099  0.00  0.00    +0.000 C 
ATOM     11  C   UNL     1       2.978   4.199  18.558  0.00  0.00    +0.000 C 
ATOM     12  C   UNL     1       4.218   3.511  17.968  0.00  0.00    +0.000 C 
ATOM     13  C   UNL     1       5.489   4.328  18.183  0.00  0.00    +0.000 C 
ATOM     14  C   UNL     1       5.369   5.733  17.590  0.00  0.00    +0.000 C 
ATOM     15  C   UNL     1       4.126   6.458  18.129  0.00  0.00    +0.000 C 
ATOM     16  C   UNL     1       2.839   5.631  17.998  0.00  0.00    +0.000 C 
ATOM     17  N   UNL     1       1.807   3.410  18.254  0.00  0.00    +0.000 N 
ATOM     18  H   UNL     1       1.563   3.033  17.345  0.00  0.00    +0.000 HD
ENDBRANCH   1  14
BRANCH   4  19
ATOM     19  C   UNL     1       7.330   4.792  13.217  0.00  0.00    +0.000 C 
BRANCH  19  20
ATOM     20  C   UNL     1       6.774   3.665  12.388  0.00  0.00    +0.000 A 
ATOM     21  C   UNL     1       5.390   3.555  12.199  0.00  0.00    +0.000 A 
ATOM     22  C   UNL     1       4.857   2.507  11.447  0.00  0.00    +0.000 A 
ATOM     23  C   UNL     1       5.703   1.555  10.884  0.00  0.00    +0.000 A 
ATOM     24  C   UNL     1       7.082   1.653  11.066  0.00  0.00    +0.000 A 
ATOM     25  C   UNL     1       7.618   2.703  11.816  0.00  0.00    +0.000 A 
ENDBRANCH  19  20
ENDBRANCH   4  19
TORSDOF 3
ENDMDL
MODEL 3
REMARK VINA RESULT:      -7.7      1.023      1.031
REMARK  Name = 
REMARK  3 active torsions:
REMARK  status: ('A' for Active; 'I' for Inactive)
REMARK    1  A    between atoms: C_8  and  N_9
REMARK    2  A    between atoms: N_12  and  C_13
REMARK    3  A    between atoms: C_13  and  C_14
REMARK                            x       y       z     vdW  Elec       q    Type
REMARK                         _______ _______ _______ _____ _____    ______ ____
ROOT
ATOM      1  N   UNL     1       6.265   4.876  16.994  0.00  0.00    +0.000 N 
ATOM      2  C   UNL     1       6.272   5.279  15.685  0.00  0.00    +0.000 C 
ATOM      3  O   UNL     1       5.821   6.352  15.300  0.00  0.00    +0.000 OA
ATOM      4  N   UNL     1       6.841   4.343  14.864  0.00  0.00    +0.000 N 
ATOM      5  H   UNL     1       6.350   3.882  17.145  0.00  0.00    +0.000 HD
ATOM      6  H   UNL     1       7.491   3.700  15.289  0.00  0.00    +0.000 HD
ENDROOT
BRANCH   1  14
ATOM      7  O   UNL     1       0.280   2.307  19.623  0.00  0.00    +0.000 OA
ATOM      8  C   UNL     1       1.135   3.171  19.545  0.00  0.00    +0.000 C 
ATOM      9  C   UNL     1       1.068   4.554  20.126  0.00  0.00    +0.000 C 
ATOM     10  C   UNL     1       2.526   5.008  20.099  0.00  0.00    +0.000 C 
ATOM     11  C   UNL     1       3.177   4.210  18.953  0.00  0.00    +0.000 C 
ATOM     12  C   UNL     1       4.601   3.764  19.316  0.00  0.00    +0.000 C 
ATOM     13  C   UNL     1       5.581   4.934  19.353  0.00  0.00    +0.000 C 
ATOM     14  C   UNL     1       5.618   5.687  18.022  0.00  0.00    +0.000 C 
ATOM     15  C   UNL     1       4.210   6.134  17.598  0.00  0.00    +0.000 C 
ATOM     16  C   UNL     1       3.180   4.995  17.624  0.00  0.00    +0.000 C 
ATOM     17  N   UNL     1       2.323   3.048  18.863  0.00  0.00    +0.000 N 
ATOM     18  H   UNL     1       2.531   2.195  18.358  0.00  0.00    +0.000 HD
ENDBRANCH   1  14
BRANCH   4  19
ATOM     19  C   UNL     1       7.060   4.657  13.471  0.00  0.00    +0.000 C 
BRANCH  19  20
ATOM     20  C   UNL     1       6.320   3.702  12.573  0.00  0.00    +0.000 A 
ATOM     21  C   UNL     1       7.009   2.647  11.958  0.00  0.00    +0.000 A 
ATOM     22  C   UNL     1       6.341   1.763  11.109  0.00  0.00    +0.000 A 
ATOM     23  C   UNL     1       4.981   1.930  10.862  0.00  0.00    +0.000 A 
ATOM     24  C   UNL     1       4.285   2.976  11.466  0.00  0.00    +0.000 A 
ATOM     25  C   UNL     1       4.951   3.861  12.318  0.00  0.00    +0.000 A 
ENDBRANCH  19  20
ENDBRANCH   4  19
TORSDOF 3
ENDMDL
MODEL 4
REMARK VINA RESULT:      -7.7      4.864      7.157
REMARK  Name = 
REMARK  3 active torsions:
REMARK  status: ('A' for Active; 'I' for Inactive)
REMARK    1  A    between atoms: C_8  and  N_9
REMARK    2  A    between atoms: N_12  and  C_13
REMARK    3  A    between atoms: C_13  and  C_14
REMARK                            x       y       z     vdW  Elec       q    Type
REMARK                         _______ _______ _______ _____ _____    ______ ____
ROOT
ATOM      1  N   UNL     1       7.517   7.269  16.944  0.00  0.00    +0.000 N 
ATOM      2  C   UNL     1       8.113   7.841  18.036  0.00  0.00    +0.000 C 
ATOM      3  O   UNL     1       8.654   7.201  18.930  0.00  0.00    +0.000 OA
ATOM      4  N   UNL     1       8.031   9.207  18.007  0.00  0.00    +0.000 N 
ATOM      5  H   UNL     1       6.841   7.844  16.465  0.00  0.00    +0.000 HD
ATOM      6  H   UNL     1       7.916   9.636  17.103  0.00  0.00    +0.000 HD
ENDROOT
BRANCH   1  14
ATOM      7  O   UNL     1       1.149   4.549  18.121  0.00  0.00    +0.000 OA
ATOM      8  C   UNL     1       2.336   4.435  17.871  0.00  0.00    +0.000 C 
ATOM      9  C   UNL     1       3.133   3.163  17.866  0.00  0.00    +0.000 C 
ATOM     10  C   UNL     1       4.389   3.549  17.087  0.00  0.00    +0.000 C 
ATOM     11  C   UNL     1       4.541   5.069  17.292  0.00  0.00    +0.000 C 
ATOM     12  C   UNL     1       5.015   5.764  16.008  0.00  0.00    +0.000 C 
ATOM     13  C   UNL     1       6.470   5.441  15.679  0.00  0.00    +0.000 C 
ATOM     14  C   UNL     1       7.410   5.817  16.825  0.00  0.00    +0.000 C 
ATOM     15  C   UNL     1       6.964   5.166  18.144  0.00  0.00    +0.000 C 
ATOM     16  C   UNL     1       5.482   5.407  18.467  0.00  0.00    +0.000 C 
ATOM     17  N   UNL     1       3.186   5.477  17.582  0.00  0.00    +0.000 N 
ATOM     18  H   UNL     1       2.840   6.430  17.586  0.00  0.00    +0.000 HD
ENDBRANCH   1  14
BRANCH   4  19
ATOM     19  C   UNL     1       8.727   9.982  19.009  0.00  0.00    +0.000 C 
BRANCH  19  20
ATOM     20  C   UNL     1       9.449  11.149  18.389  0.00  0.00    +0.000 A 
ATOM     21  C   UNL     1       8.722  12.257  17.933  0.00  0.00    +0.000 A 
ATOM     22  C   UNL     1       9.375  13.339  17.341  0.00  0.00    +0.000 A 
ATOM     23  C   UNL     1      10.760  13.319  17.192  0.00  0.00    +0.000 A 
ATOM     24  C   UNL     1      11.493  12.222  17.641  0.00  0.00    +0.000 A 
ATOM     25  C   UNL     1      10.842  11.139  18.236  0.00  0.00    +0.000 A 
ENDBRANCH  19  20
ENDBRANCH   4  19
TORSDOF 3
ENDMDL
MODEL 5
REMARK VINA RESULT:      -7.7      3.969      8.699
REMARK  Name = 
REMARK  3 active torsions:
REMARK  status: ('A' for Active; 'I' for Inactive)
REMARK    1  A    between atoms: C_8  and  N_9
REMARK    2  A    between atoms: N_12  and  C_13
REMARK    3  A    between atoms: C_13  and  C_14
REMARK                            x       y       z     vdW  Elec       q    Type
REMARK                         _______ _______ _______ _____ _____    ______ ____
ROOT
ATOM      1  N   UNL     1       3.337   6.004  19.764  0.00  0.00    +0.000 N 
ATOM      2  C   UNL     1       2.152   6.382  20.336  0.00  0.00    +0.000 C 
ATOM      3  O   UNL     1       1.184   5.639  20.452  0.00  0.00    +0.000 OA
ATOM      4  N   UNL     1       2.181   7.682  20.763  0.00  0.00    +0.000 N 
ATOM      5  H   UNL     1       3.921   6.757  19.433  0.00  0.00    +0.000 HD
ATOM      6  H   UNL     1       3.088   8.074  20.965  0.00  0.00    +0.000 HD
ENDROOT
BRANCH   1  14
ATOM      7  O   UNL     1       7.764   5.608  14.325  0.00  0.00    +0.000 OA
ATOM      8  C   UNL     1       6.954   5.113  15.088  0.00  0.00    +0.000 C 
ATOM      9  C   UNL     1       6.309   3.763  14.960  0.00  0.00    +0.000 C 
ATOM     10  C   UNL     1       5.759   3.512  16.362  0.00  0.00    +0.000 C 
ATOM     11  C   UNL     1       5.522   4.912  16.961  0.00  0.00    +0.000 C 
ATOM     12  C   UNL     1       5.902   4.959  18.448  0.00  0.00    +0.000 C 
ATOM     13  C   UNL     1       4.923   4.180  19.320  0.00  0.00    +0.000 C 
ATOM     14  C   UNL     1       3.488   4.684  19.157  0.00  0.00    +0.000 C 
ATOM     15  C   UNL     1       3.064   4.682  17.679  0.00  0.00    +0.000 C 
ATOM     16  C   UNL     1       4.069   5.393  16.761  0.00  0.00    +0.000 C 
ATOM     17  N   UNL     1       6.444   5.729  16.207  0.00  0.00    +0.000 N 
ATOM     18  H   UNL     1       6.725   6.676  16.437  0.00  0.00    +0.000 HD
ENDBRANCH   1  14
BRANCH   4  19
ATOM     19  C   UNL     1       1.066   8.208  21.518  0.00  0.00    +0.000 C 
BRANCH  19  20
ATOM     20  C   UNL     1       0.466   9.409  20.838  0.00  0.00    +0.000 A 
ATOM     21  C   UNL     1       0.759   9.667  19.491  0.00  0.00    +0.000 A 
ATOM     22  C   UNL     1       0.224  10.787  18.851  0.00  0.00    +0.000 A 
ATOM     23  C   UNL     1      -0.600  11.662  19.554  0.00  0.00    +0.000 A 
ATOM     24  C   UNL     1      -0.897  11.417  20.894  0.00  0.00    +0.000 A 
ATOM     25  C   UNL     1      -0.365  10.295  21.536  0.00  0.00    +0.000 A 
ENDBRANCH  19  20
ENDBRANCH   4  19
TORSDOF 3
ENDMDL
MODEL 6
REMARK VINA RESULT:      -7.7      4.911      7.141
REMARK  Name = 
REMARK  3 active torsions:
REMARK  status: ('A' for Active; 'I' for Inactive)
REMARK    1  A    between atoms: C_8  and  N_9
REMARK    2  A    between atoms: N_12  and  C_13
REMARK    3  A    between atoms: C_13  and  C_14
REMARK                            x       y       z     vdW  Elec       q    Type
REMARK                         _______ _______ _______ _____ _____    ______ ____
ROOT
ATOM      1  N   UNL     1       7.019   7.496  16.981  0.00  0.00    +0.000 N 
ATOM      2  C   UNL     1       7.899   7.854  17.967  0.00  0.00    +0.000 C 
ATOM      3  O   UNL     1       8.478   7.050  18.688  0.00  0.00    +0.000 OA
ATOM      4  N   UNL     1       8.052   9.212  18.048  0.00  0.00    +0.000 N 
ATOM      5  H   UNL     1       6.375   8.216  16.688  0.00  0.00    +0.000 HD
ATOM      6  H   UNL     1       7.847   9.743  17.216  0.00  0.00    +0.000 HD
ENDROOT
BRANCH   1  14
ATOM      7  O   UNL     1       1.425   5.298  20.615  0.00  0.00    +0.000 OA
ATOM      8  C   UNL     1       2.354   5.103  19.854  0.00  0.00    +0.000 C 
ATOM      9  C   UNL     1       2.858   3.771  19.375  0.00  0.00    +0.000 C 
ATOM     10  C   UNL     1       3.702   4.141  18.158  0.00  0.00    +0.000 C 
ATOM     11  C   UNL     1       4.169   5.587  18.413  0.00  0.00    +0.000 C 
ATOM     12  C   UNL     1       4.151   6.420  17.123  0.00  0.00    +0.000 C 
ATOM     13  C   UNL     1       5.252   6.003  16.152  0.00  0.00    +0.000 C 
ATOM     14  C   UNL     1       6.640   6.099  16.788  0.00  0.00    +0.000 C 
ATOM     15  C   UNL     1       6.704   5.302  18.101  0.00  0.00    +0.000 C 
ATOM     16  C   UNL     1       5.564   5.642  19.072  0.00  0.00    +0.000 C 
ATOM     17  N   UNL     1       3.154   6.083  19.314  0.00  0.00    +0.000 N 
ATOM     18  H   UNL     1       3.001   7.054  19.560  0.00  0.00    +0.000 HD
ENDBRANCH   1  14
BRANCH   4  19
ATOM     19  C   UNL     1       9.048   9.764  18.938  0.00  0.00    +0.000 C 
BRANCH  19  20
ATOM     20  C   UNL     1       9.623  11.041  18.389  0.00  0.00    +0.000 A 
ATOM     21  C   UNL     1       8.766  12.071  17.975  0.00  0.00    +0.000 A 
ATOM     22  C   UNL     1       9.283  13.255  17.446  0.00  0.00    +0.000 A 
ATOM     23  C   UNL     1      10.661  13.417  17.320  0.00  0.00    +0.000 A 
ATOM     24  C   UNL     1      11.523  12.400  17.726  0.00  0.00    +0.000 A 
ATOM     25  C   UNL     1      11.008  11.214  18.258  0.00  0.00    +0.000 A 
ENDBRANCH  19  20
ENDBRANCH   4  19
TORSDOF 3
ENDMDL
MODEL 7
REMARK VINA RESULT:      -7.6      4.959      7.132
REMARK  Name = 
REMARK  3 active torsions:
REMARK  status: ('A' for Active; 'I' for Inactive)
REMARK    1  A    between atoms: C_8  and  N_9
REMARK    2  A    between atoms: N_12  and  C_13
REMARK    3  A    between atoms: C_13  and  C_14
REMARK                            x       y       z     vdW  Elec       q    Type
REMARK                         _______ _______ _______ _____ _____    ______ ____
ROOT
ATOM      1  N   UNL     1       7.194   7.464  16.963  0.00  0.00    +0.000 N 
ATOM      2  C   UNL     1       8.000   7.890  17.985  0.00  0.00    +0.000 C 
ATOM      3  O   UNL     1       8.562   7.135  18.770  0.00  0.00    +0.000 OA
ATOM      4  N   UNL     1       8.103   9.255  18.021  0.00  0.00    +0.000 N 
ATOM      5  H   UNL     1       6.545   8.149  16.604  0.00  0.00    +0.000 HD
ATOM      6  H   UNL     1       7.930   9.747  17.158  0.00  0.00    +0.000 HD
ENDROOT
BRANCH   1  14
ATOM      7  O   UNL     1       1.506   5.188  20.398  0.00  0.00    +0.000 OA
ATOM      8  C   UNL     1       2.479   5.001  19.690  0.00  0.00    +0.000 C 
ATOM      9  C   UNL     1       3.052   3.673  19.286  0.00  0.00    +0.000 C 
ATOM     10  C   UNL     1       3.943   4.031  18.099  0.00  0.00    +0.000 C 
ATOM     11  C   UNL     1       4.345   5.502  18.323  0.00  0.00    +0.000 C 
ATOM     12  C   UNL     1       4.363   6.287  17.004  0.00  0.00    +0.000 C 
ATOM     13  C   UNL     1       5.525   5.878  16.104  0.00  0.00    +0.000 C 
ATOM     14  C   UNL     1       6.875   6.048  16.803  0.00  0.00    +0.000 C 
ATOM     15  C   UNL     1       6.901   5.300  18.146  0.00  0.00    +0.000 C 
ATOM     16  C   UNL     1       5.702   5.631  19.047  0.00  0.00    +0.000 C 
ATOM     17  N   UNL     1       3.270   5.991  19.155  0.00  0.00    +0.000 N 
ATOM     18  H   UNL     1       3.070   6.964  19.357  0.00  0.00    +0.000 HD
ENDBRANCH   1  14
BRANCH   4  19
ATOM     19  C   UNL     1       9.023   9.875  18.946  0.00  0.00    +0.000 C 
BRANCH  19  20
ATOM     20  C   UNL     1       9.584  11.153  18.383  0.00  0.00    +0.000 A 
ATOM     21  C   UNL     1      10.960  11.264  18.140  0.00  0.00    +0.000 A 
ATOM     22  C   UNL     1      11.499  12.449  17.635  0.00  0.00    +0.000 A 
ATOM     23  C   UNL     1      10.667  13.535  17.375  0.00  0.00    +0.000 A 
ATOM     24  C   UNL     1       9.297  13.437  17.614  0.00  0.00    +0.000 A 
ATOM     25  C   UNL     1       8.755  12.252  18.117  0.00  0.00    +0.000 A 
ENDBRANCH  19  20
ENDBRANCH   4  19
TORSDOF 3
ENDMDL
MODEL 8
REMARK VINA RESULT:      -7.6      4.043      8.861
REMARK  Name = 
REMARK  3 active torsions:
REMARK  status: ('A' for Active; 'I' for Inactive)
REMARK    1  A    between atoms: C_8  and  N_9
REMARK    2  A    between atoms: N_12  and  C_13
REMARK    3  A    between atoms: C_13  and  C_14
REMARK                            x       y       z     vdW  Elec       q    Type
REMARK                         _______ _______ _______ _____ _____    ______ ____
ROOT
ATOM      1  N   UNL     1       3.292   6.007  19.703  0.00  0.00    +0.000 N 
ATOM      2  C   UNL     1       2.141   6.328  20.372  0.00  0.00    +0.000 C 
ATOM      3  O   UNL     1       1.237   5.530  20.595  0.00  0.00    +0.000 OA
ATOM      4  N   UNL     1       2.125   7.640  20.762  0.00  0.00    +0.000 N 
ATOM      5  H   UNL     1       3.794   6.784  19.301  0.00  0.00    +0.000 HD
ATOM      6  H   UNL     1       3.019   8.094  20.870  0.00  0.00    +0.000 HD
ENDROOT
BRANCH   1  14
ATOM      7  O   UNL     1       7.775   5.607  14.312  0.00  0.00    +0.000 OA
ATOM      8  C   UNL     1       6.968   5.110  15.075  0.00  0.00    +0.000 C 
ATOM      9  C   UNL     1       6.348   3.747  14.962  0.00  0.00    +0.000 C 
ATOM     10  C   UNL     1       5.790   3.507  16.363  0.00  0.00    +0.000 C 
ATOM     11  C   UNL     1       5.522   4.912  16.938  0.00  0.00    +0.000 C 
ATOM     12  C   UNL     1       5.887   4.989  18.427  0.00  0.00    +0.000 C 
ATOM     13  C   UNL     1       4.914   4.205  19.303  0.00  0.00    +0.000 C 
ATOM     14  C   UNL     1       3.472   4.681  19.118  0.00  0.00    +0.000 C 
ATOM     15  C   UNL     1       3.062   4.648  17.637  0.00  0.00    +0.000 C 
ATOM     16  C   UNL     1       4.062   5.363  16.717  0.00  0.00    +0.000 C 
ATOM     17  N   UNL     1       6.436   5.733  16.180  0.00  0.00    +0.000 N 
ATOM     18  H   UNL     1       6.698   6.688  16.397  0.00  0.00    +0.000 HD
ENDBRANCH   1  14
BRANCH   4  19
ATOM     19  C   UNL     1       1.051   8.119  21.602  0.00  0.00    +0.000 C 
BRANCH  19  20
ATOM     20  C   UNL     1       0.452   9.386  21.053  0.00  0.00    +0.000 A 
ATOM     21  C   UNL     1      -0.185  10.288  21.916  0.00  0.00    +0.000 A 
ATOM     22  C   UNL     1      -0.760  11.459  21.419  0.00  0.00    +0.000 A 
ATOM     23  C   UNL     1      -0.711  11.734  20.055  0.00  0.00    +0.000 A 
ATOM     24  C   UNL     1      -0.081  10.843  19.186  0.00  0.00    +0.000 A 
ATOM     25  C   UNL     1       0.497   9.672  19.681  0.00  0.00    +0.000 A 
ENDBRANCH  19  20
ENDBRANCH   4  19
TORSDOF 3
ENDMDL
MODEL 9
REMARK VINA RESULT:      -7.6      1.186      1.613
REMARK  Name = 
REMARK  3 active torsions:
REMARK  status: ('A' for Active; 'I' for Inactive)
REMARK    1  A    between atoms: C_8  and  N_9
REMARK    2  A    between atoms: N_12  and  C_13
REMARK    3  A    between atoms: C_13  and  C_14
REMARK                            x       y       z     vdW  Elec       q    Type
REMARK                         _______ _______ _______ _____ _____    ______ ____
ROOT
ATOM      1  N   UNL     1       6.006   5.005  16.808  0.00  0.00    +0.000 N 
ATOM      2  C   UNL     1       6.161   5.329  15.486  0.00  0.00    +0.000 C 
ATOM      3  O   UNL     1       5.864   6.419  15.013  0.00  0.00    +0.000 OA
ATOM      4  N   UNL     1       6.686   4.292  14.763  0.00  0.00    +0.000 N 
ATOM      5  H   UNL     1       5.968   4.018  17.014  0.00  0.00    +0.000 HD
ATOM      6  H   UNL     1       7.226   3.609  15.273  0.00  0.00    +0.000 HD
ENDROOT
BRANCH   1  14
ATOM      7  O   UNL     1       0.844   2.366  20.773  0.00  0.00    +0.000 OA
ATOM      8  C   UNL     1       1.542   3.289  20.395  0.00  0.00    +0.000 C 
ATOM      9  C   UNL     1       1.337   4.747  20.688  0.00  0.00    +0.000 C 
ATOM     10  C   UNL     1       2.695   5.359  20.351  0.00  0.00    +0.000 C 
ATOM     11  C   UNL     1       3.316   4.414  19.304  0.00  0.00    +0.000 C 
ATOM     12  C   UNL     1       4.824   4.238  19.531  0.00  0.00    +0.000 C 
ATOM     13  C   UNL     1       5.612   5.497  19.183  0.00  0.00    +0.000 C 
ATOM     14  C   UNL     1       5.373   5.937  17.737  0.00  0.00    +0.000 C 
ATOM     15  C   UNL     1       3.873   6.103  17.449  0.00  0.00    +0.000 C 
ATOM     16  C   UNL     1       3.039   4.881  17.860  0.00  0.00    +0.000 C 
ATOM     17  N   UNL     1       2.644   3.165  19.580  0.00  0.00    +0.000 N 
ATOM     18  H   UNL     1       2.916   2.253  19.232  0.00  0.00    +0.000 HD
ENDBRANCH   1  14
BRANCH   4  19
ATOM     19  C   UNL     1       7.049   4.501  13.380  0.00  0.00    +0.000 C 
BRANCH  19  20
ATOM     20  C   UNL     1       6.276   3.586  12.470  0.00  0.00    +0.000 A 
ATOM     21  C   UNL     1       4.919   3.834  12.218  0.00  0.00    +0.000 A 
ATOM     22  C   UNL     1       4.183   2.984  11.390  0.00  0.00    +0.000 A 
ATOM     23  C   UNL     1       4.795   1.875  10.813  0.00  0.00    +0.000 A 
ATOM     24  C   UNL     1       6.144   1.616  11.057  0.00  0.00    +0.000 A 
ATOM     25  C   UNL     1       6.883   2.467  11.883  0.00  0.00    +0.000 A 
ENDBRANCH  19  20
ENDBRANCH   4  19
TORSDOF 3
ENDMDL
