MODEL 1
REMARK VINA RESULT:      -7.4      0.000      0.000
REMARK  Name = 
REMARK  4 active torsions:
REMARK  status: ('A' for Active; 'I' for Inactive)
REMARK    1  A    between atoms: C_1  and  N_2
REMARK    2  A    between atoms: C_7  and  C_8
REMARK    3  A    between atoms: C_16  and  O_17
REMARK    4  A    between atoms: C_19  and  O_20
REMARK                            x       y       z     vdW  Elec       q    Type
REMARK                         _______ _______ _______ _____ _____    ______ ____
ROOT
ATOM      1  C   UNL     1       4.583   6.396  17.411  0.00  0.00    +0.000 C 
ATOM      2  O   UNL     1       4.313   7.588  17.336  0.00  0.00    +0.000 OA
ATOM      3  N   UNL     1       3.988   5.570  18.384  0.00  0.00    +0.000 N 
ATOM      4  C   UNL     1       2.879   6.067  19.186  0.00  0.00    +0.000 C 
ATOM      5  C   UNL     1       1.783   5.007  19.262  0.00  0.00    +0.000 C 
ATOM      6  C   UNL     1       2.305   3.623  19.730  0.00  0.00    +0.000 C 
ATOM      7  C   UNL     1       3.646   3.227  19.085  0.00  0.00    +0.000 C 
ATOM      8  C   UNL     1       4.621   4.395  18.970  0.00  0.00    +0.000 C 
ATOM      9  C   UNL     1       1.165   2.565  19.509  0.00  0.00    +0.000 C 
ATOM     10  C   UNL     1       0.796   2.680  20.997  0.00  0.00    +0.000 C 
ATOM     11  C   UNL     1       2.166   3.341  21.267  0.00  0.00    +0.000 C 
ENDROOT
BRANCH   1  18
ATOM     12  C   UNL     1       7.696   6.044  17.683  0.00  0.00    +0.000 C 
ATOM     13  N   UNL     1       6.862   5.609  16.582  0.00  0.00    +0.000 N 
ATOM     14  C   UNL     1       7.368   4.922  15.502  0.00  0.00    +0.000 A 
ATOM     15  C   UNL     1       6.337   4.662  14.641  0.00  0.00    +0.000 A 
ATOM     16 CL   UNL     1       6.404   3.817  13.173  0.00  0.00    +0.000 Cl
ATOM     17  C   UNL     1       5.179   5.227  15.202  0.00  0.00    +0.000 A 
ATOM     18  C   UNL     1       5.490   5.747  16.458  0.00  0.00    +0.000 A 
ENDBRANCH   1  18
BRANCH   9  19
ATOM     19  O   UNL     1       1.538   1.254  19.033  0.00  0.00    +0.000 OA
ATOM     20  H   UNL     1       2.477   1.289  18.796  0.00  0.00    +0.000 HD
ENDBRANCH   9  19
BRANCH  11  21
ATOM     21  O   UNL     1       3.157   2.492  21.884  0.00  0.00    +0.000 OA
ATOM     22  H   UNL     1       2.698   1.689  22.179  0.00  0.00    +0.000 HD
ENDBRANCH  11  21
TORSDOF 3
ENDMDL
MODEL 2
REMARK VINA RESULT:      -6.6      2.176      2.999
REMARK  Name = 
REMARK  4 active torsions:
REMARK  status: ('A' for Active; 'I' for Inactive)
REMARK    1  A    between atoms: C_1  and  N_2
REMARK    2  A    between atoms: C_7  and  C_8
REMARK    3  A    between atoms: C_16  and  O_17
REMARK    4  A    between atoms: C_19  and  O_20
REMARK                            x       y       z     vdW  Elec       q    Type
REMARK                         _______ _______ _______ _____ _____    ______ ____
ROOT
ATOM      1  C   UNL     1       6.838   5.299  15.541  0.00  0.00    +0.000 C 
ATOM      2  O   UNL     1       7.677   6.157  15.782  0.00  0.00    +0.000 OA
ATOM      3  N   UNL     1       5.900   4.899  16.513  0.00  0.00    +0.000 N 
ATOM      4  C   UNL     1       5.772   5.644  17.756  0.00  0.00    +0.000 C 
ATOM      5  C   UNL     1       4.295   5.868  18.072  0.00  0.00    +0.000 C 
ATOM      6  C   UNL     1       3.464   4.559  18.056  0.00  0.00    +0.000 C 
ATOM      7  C   UNL     1       3.816   3.627  16.882  0.00  0.00    +0.000 C 
ATOM      8  C   UNL     1       5.313   3.567  16.596  0.00  0.00    +0.000 C 
ATOM      9  C   UNL     1       1.942   4.939  18.122  0.00  0.00    +0.000 C 
ATOM     10  C   UNL     1       1.953   4.650  19.631  0.00  0.00    +0.000 C 
ATOM     11  C   UNL     1       3.274   3.870  19.453  0.00  0.00    +0.000 C 
ENDROOT
BRANCH   1  18
ATOM     12  C   UNL     1       8.650   5.829  13.027  0.00  0.00    +0.000 C 
ATOM     13  N   UNL     1       7.513   4.936  13.110  0.00  0.00    +0.000 N 
ATOM     14  C   UNL     1       7.113   4.153  12.050  0.00  0.00    +0.000 A 
ATOM     15  C   UNL     1       6.017   3.434  12.442  0.00  0.00    +0.000 A 
ATOM     16 CL   UNL     1       5.149   2.295  11.534  0.00  0.00    +0.000 Cl
ATOM     17  C   UNL     1       5.731   3.807  13.766  0.00  0.00    +0.000 A 
ATOM     18  C   UNL     1       6.717   4.685  14.215  0.00  0.00    +0.000 A 
ENDBRANCH   1  18
BRANCH   9  19
ATOM     19  O   UNL     1       1.015   4.174  17.322  0.00  0.00    +0.000 OA
ATOM     20  H   UNL     1       1.063   4.516  16.417  0.00  0.00    +0.000 HD
ENDBRANCH   9  19
BRANCH  11  21
ATOM     21  O   UNL     1       3.156   2.431  19.479  0.00  0.00    +0.000 OA
ATOM     22  H   UNL     1       2.729   2.197  20.319  0.00  0.00    +0.000 HD
ENDBRANCH  11  21
TORSDOF 3
ENDMDL
MODEL 3
REMARK VINA RESULT:      -6.6      2.538      3.354
REMARK  Name = 
REMARK  4 active torsions:
REMARK  status: ('A' for Active; 'I' for Inactive)
REMARK    1  A    between atoms: C_1  and  N_2
REMARK    2  A    between atoms: C_7  and  C_8
REMARK    3  A    between atoms: C_16  and  O_17
REMARK    4  A    between atoms: C_19  and  O_20
REMARK                            x       y       z     vdW  Elec       q    Type
REMARK                         _______ _______ _______ _____ _____    ______ ____
ROOT
ATOM      1  C   UNL     1       5.925   5.871  16.441  0.00  0.00    +0.000 C 
ATOM      2  O   UNL     1       6.100   5.668  15.247  0.00  0.00    +0.000 OA
ATOM      3  N   UNL     1       4.850   5.281  17.134  0.00  0.00    +0.000 N 
ATOM      4  C   UNL     1       4.045   4.251  16.496  0.00  0.00    +0.000 C 
ATOM      5  C   UNL     1       3.815   3.099  17.471  0.00  0.00    +0.000 C 
ATOM      6  C   UNL     1       3.243   3.563  18.837  0.00  0.00    +0.000 C 
ATOM      7  C   UNL     1       3.912   4.840  19.376  0.00  0.00    +0.000 C 
ATOM      8  C   UNL     1       4.187   5.875  18.289  0.00  0.00    +0.000 C 
ATOM      9  C   UNL     1       3.305   2.352  19.835  0.00  0.00    +0.000 C 
ATOM     10  C   UNL     1       1.819   2.073  19.561  0.00  0.00    +0.000 C 
ATOM     11  C   UNL     1       1.681   3.492  18.967  0.00  0.00    +0.000 C 
ENDROOT
BRANCH   1  18
ATOM     12  C   UNL     1       7.825   4.888  18.745  0.00  0.00    +0.000 C 
ATOM     13  N   UNL     1       7.679   6.242  18.254  0.00  0.00    +0.000 N 
ATOM     14  C   UNL     1       8.427   7.288  18.744  0.00  0.00    +0.000 A 
ATOM     15  C   UNL     1       8.052   8.426  18.084  0.00  0.00    +0.000 A 
ATOM     16 CL   UNL     1       8.680   9.989  18.279  0.00  0.00    +0.000 Cl
ATOM     17  C   UNL     1       7.032   8.066  17.187  0.00  0.00    +0.000 A 
ATOM     18  C   UNL     1       6.855   6.683  17.232  0.00  0.00    +0.000 A 
ENDBRANCH   1  18
BRANCH   9  19
ATOM     19  O   UNL     1       3.672   2.619  21.205  0.00  0.00    +0.000 OA
ATOM     20  H   UNL     1       3.709   1.767  21.665  0.00  0.00    +0.000 HD
ENDBRANCH   9  19
BRANCH  11  21
ATOM     21  O   UNL     1       1.036   4.464  19.818  0.00  0.00    +0.000 OA
ATOM     22  H   UNL     1       0.453   3.972  20.418  0.00  0.00    +0.000 HD
ENDBRANCH  11  21
TORSDOF 3
ENDMDL
MODEL 4
REMARK VINA RESULT:      -6.2      1.798      2.258
REMARK  Name = 
REMARK  4 active torsions:
REMARK  status: ('A' for Active; 'I' for Inactive)
REMARK    1  A    between atoms: C_1  and  N_2
REMARK    2  A    between atoms: C_7  and  C_8
REMARK    3  A    between atoms: C_16  and  O_17
REMARK    4  A    between atoms: C_19  and  O_20
REMARK                            x       y       z     vdW  Elec       q    Type
REMARK                         _______ _______ _______ _____ _____    ______ ____
ROOT
ATOM      1  C   UNL     1       5.306   5.743  15.302  0.00  0.00    +0.000 C 
ATOM      2  O   UNL     1       5.316   6.962  15.193  0.00  0.00    +0.000 OA
ATOM      3  N   UNL     1       4.810   5.116  16.461  0.00  0.00    +0.000 N 
ATOM      4  C   UNL     1       4.104   5.894  17.469  0.00  0.00    +0.000 C 
ATOM      5  C   UNL     1       2.848   5.146  17.909  0.00  0.00    +0.000 C 
ATOM      6  C   UNL     1       3.131   3.686  18.351  0.00  0.00    +0.000 C 
ATOM      7  C   UNL     1       4.120   2.951  17.428  0.00  0.00    +0.000 C 
ATOM      8  C   UNL     1       5.278   3.832  16.971  0.00  0.00    +0.000 C 
ATOM      9  C   UNL     1       1.757   2.944  18.516  0.00  0.00    +0.000 C 
ATOM     10  C   UNL     1       1.832   3.182  20.033  0.00  0.00    +0.000 C 
ATOM     11  C   UNL     1       3.340   3.482  19.892  0.00  0.00    +0.000 C 
ENDROOT
BRANCH   1  18
ATOM     12  C   UNL     1       8.169   5.607  14.009  0.00  0.00    +0.000 C 
ATOM     13  N   UNL     1       7.008   4.823  13.642  0.00  0.00    +0.000 N 
ATOM     14  C   UNL     1       7.053   3.855  12.664  0.00  0.00    +0.000 A 
ATOM     15  C   UNL     1       5.806   3.304  12.553  0.00  0.00    +0.000 A 
ATOM     16 CL   UNL     1       5.318   2.050  11.522  0.00  0.00    +0.000 Cl
ATOM     17  C   UNL     1       4.977   3.971  13.470  0.00  0.00    +0.000 A 
ATOM     18  C   UNL     1       5.748   4.866  14.213  0.00  0.00    +0.000 A 
ENDBRANCH   1  18
BRANCH   9  19
ATOM     19  O   UNL     1       1.668   1.572  18.079  0.00  0.00    +0.000 OA
ATOM     20  H   UNL     1       2.206   1.040  18.685  0.00  0.00    +0.000 HD
ENDBRANCH   9  19
BRANCH  11  21
ATOM     21  O   UNL     1       4.229   2.425  20.313  0.00  0.00    +0.000 OA
ATOM     22  H   UNL     1       3.977   1.629  19.818  0.00  0.00    +0.000 HD
ENDBRANCH  11  21
TORSDOF 3
ENDMDL
MODEL 5
REMARK VINA RESULT:      -6.0      3.397      5.694
REMARK  Name = 
REMARK  4 active torsions:
REMARK  status: ('A' for Active; 'I' for Inactive)
REMARK    1  A    between atoms: C_1  and  N_2
REMARK    2  A    between atoms: C_7  and  C_8
REMARK    3  A    between atoms: C_16  and  O_17
REMARK    4  A    between atoms: C_19  and  O_20
REMARK                            x       y       z     vdW  Elec       q    Type
REMARK                         _______ _______ _______ _____ _____    ______ ____
ROOT
ATOM      1  C   UNL     1       3.017   5.749  19.486  0.00  0.00    +0.000 C 
ATOM      2  O   UNL     1       2.967   5.139  20.545  0.00  0.00    +0.000 OA
ATOM      3  N   UNL     1       2.207   6.878  19.252  0.00  0.00    +0.000 N 
ATOM      4  C   UNL     1       1.446   7.470  20.343  0.00  0.00    +0.000 C 
ATOM      5  C   UNL     1       1.595   8.990  20.308  0.00  0.00    +0.000 C 
ATOM      6  C   UNL     1       1.258   9.603  18.924  0.00  0.00    +0.000 C 
ATOM      7  C   UNL     1       1.831   8.796  17.744  0.00  0.00    +0.000 C 
ATOM      8  C   UNL     1       1.719   7.288  17.941  0.00  0.00    +0.000 C 
ATOM      9  C   UNL     1       1.702  11.109  18.929  0.00  0.00    +0.000 C 
ATOM     10  C   UNL     1       0.249  11.518  19.215  0.00  0.00    +0.000 C 
ATOM     11  C   UNL     1      -0.215  10.117  18.760  0.00  0.00    +0.000 C 
ENDROOT
BRANCH   1  18
ATOM     12  C   UNL     1       2.694   3.462  17.353  0.00  0.00    +0.000 C 
ATOM     13  N   UNL     1       3.816   4.366  17.499  0.00  0.00    +0.000 N 
ATOM     14  C   UNL     1       4.896   4.342  16.647  0.00  0.00    +0.000 A 
ATOM     15  C   UNL     1       5.779   5.305  17.051  0.00  0.00    +0.000 A 
ATOM     16 CL   UNL     1       7.258   5.720  16.333  0.00  0.00    +0.000 Cl
ATOM     17  C   UNL     1       5.231   5.914  18.193  0.00  0.00    +0.000 A 
ATOM     18  C   UNL     1       3.962   5.384  18.426  0.00  0.00    +0.000 A 
ENDBRANCH   1  18
BRANCH   9  19
ATOM     19  O   UNL     1       2.303  11.645  17.732  0.00  0.00    +0.000 OA
ATOM     20  H   UNL     1       3.157  11.203  17.614  0.00  0.00    +0.000 HD
ENDBRANCH   9  19
BRANCH  11  21
ATOM     21  O   UNL     1      -0.804  10.052  17.443  0.00  0.00    +0.000 OA
ATOM     22  H   UNL     1      -0.907   9.111  17.225  0.00  0.00    +0.000 HD
ENDBRANCH  11  21
TORSDOF 3
ENDMDL
MODEL 6
REMARK VINA RESULT:      -5.8      3.837      5.824
REMARK  Name = 
REMARK  4 active torsions:
REMARK  status: ('A' for Active; 'I' for Inactive)
REMARK    1  A    between atoms: C_1  and  N_2
REMARK    2  A    between atoms: C_7  and  C_8
REMARK    3  A    between atoms: C_16  and  O_17
REMARK    4  A    between atoms: C_19  and  O_20
REMARK                            x       y       z     vdW  Elec       q    Type
REMARK                         _______ _______ _______ _____ _____    ______ ____
ROOT
ATOM      1  C   UNL     1       2.468   7.791  18.527  0.00  0.00    +0.000 C 
ATOM      2  O   UNL     1       3.154   8.445  17.752  0.00  0.00    +0.000 OA
ATOM      3  N   UNL     1       2.531   6.384  18.553  0.00  0.00    +0.000 N 
ATOM      4  C   UNL     1       3.566   5.685  17.806  0.00  0.00    +0.000 C 
ATOM      5  C   UNL     1       4.177   4.589  18.677  0.00  0.00    +0.000 C 
ATOM      6  C   UNL     1       3.117   3.637  19.291  0.00  0.00    +0.000 C 
ATOM      7  C   UNL     1       1.875   4.373  19.826  0.00  0.00    +0.000 C 
ATOM      8  C   UNL     1       1.421   5.514  18.922  0.00  0.00    +0.000 C 
ATOM      9  C   UNL     1       3.825   2.738  20.366  0.00  0.00    +0.000 C 
ATOM     10  C   UNL     1       3.917   1.605  19.331  0.00  0.00    +0.000 C 
ATOM     11  C   UNL     1       2.847   2.323  18.479  0.00  0.00    +0.000 C 
ENDROOT
BRANCH   1  18
ATOM     12  C   UNL     1       0.217   9.917  17.978  0.00  0.00    +0.000 C 
ATOM     13  N   UNL     1       0.612   9.377  19.263  0.00  0.00    +0.000 N 
ATOM     14  C   UNL     1      -0.019   9.727  20.434  0.00  0.00    +0.000 A 
ATOM     15  C   UNL     1       0.586   9.056  21.462  0.00  0.00    +0.000 A 
ATOM     16 CL   UNL     1       0.180   9.101  23.107  0.00  0.00    +0.000 Cl
ATOM     17  C   UNL     1       1.627   8.297  20.901  0.00  0.00    +0.000 A 
ATOM     18  C   UNL     1       1.593   8.432  19.513  0.00  0.00    +0.000 A 
ENDBRANCH   1  18
BRANCH   9  19
ATOM     19  O   UNL     1       3.111   2.445  21.585  0.00  0.00    +0.000 OA
ATOM     20  H   UNL     1       3.495   1.637  21.959  0.00  0.00    +0.000 HD
ENDBRANCH   9  19
BRANCH  11  21
ATOM     21  O   UNL     1       1.519   1.759  18.540  0.00  0.00    +0.000 OA
ATOM     22  H   UNL     1       1.118   2.070  19.368  0.00  0.00    +0.000 HD
ENDBRANCH  11  21
TORSDOF 3
ENDMDL
MODEL 7
REMARK VINA RESULT:      -5.8      2.487      3.291
REMARK  Name = 
REMARK  4 active torsions:
REMARK  status: ('A' for Active; 'I' for Inactive)
REMARK    1  A    between atoms: C_1  and  N_2
REMARK    2  A    between atoms: C_7  and  C_8
REMARK    3  A    between atoms: C_16  and  O_17
REMARK    4  A    between atoms: C_19  and  O_20
REMARK                            x       y       z     vdW  Elec       q    Type
REMARK                         _______ _______ _______ _____ _____    ______ ____
ROOT
ATOM      1  C   UNL     1       5.377   4.071  16.946  0.00  0.00    +0.000 C 
ATOM      2  O   UNL     1       5.754   3.255  16.115  0.00  0.00    +0.000 OA
ATOM      3  N   UNL     1       4.260   3.819  17.765  0.00  0.00    +0.000 N 
ATOM      4  C   UNL     1       3.654   2.496  17.790  0.00  0.00    +0.000 C 
ATOM      5  C   UNL     1       3.371   2.086  19.233  0.00  0.00    +0.000 C 
ATOM      6  C   UNL     1       2.555   3.146  20.018  0.00  0.00    +0.000 C 
ATOM      7  C   UNL     1       3.023   4.590  19.758  0.00  0.00    +0.000 C 
ATOM      8  C   UNL     1       3.376   4.849  18.297  0.00  0.00    +0.000 C 
ATOM      9  C   UNL     1       2.561   2.748  21.537  0.00  0.00    +0.000 C 
ATOM     10  C   UNL     1       1.165   2.130  21.362  0.00  0.00    +0.000 C 
ATOM     11  C   UNL     1       1.004   2.915  20.042  0.00  0.00    +0.000 C 
ENDROOT
BRANCH   1  18
ATOM     12  C   UNL     1       5.012   6.795  15.419  0.00  0.00    +0.000 C 
ATOM     13  N   UNL     1       5.941   6.516  16.494  0.00  0.00    +0.000 N 
ATOM     14  C   UNL     1       6.775   7.479  17.015  0.00  0.00    +0.000 A 
ATOM     15  C   UNL     1       7.525   6.903  18.004  0.00  0.00    +0.000 A 
ATOM     16 CL   UNL     1       8.686   7.650  18.989  0.00  0.00    +0.000 Cl
ATOM     17  C   UNL     1       7.152   5.550  18.069  0.00  0.00    +0.000 A 
ATOM     18  C   UNL     1       6.100   5.325  17.182  0.00  0.00    +0.000 A 
ENDBRANCH   1  18
BRANCH   9  19
ATOM     19  O   UNL     1       2.685   3.802  22.516  0.00  0.00    +0.000 OA
ATOM     20  H   UNL     1       1.837   4.271  22.544  0.00  0.00    +0.000 HD
ENDBRANCH   9  19
BRANCH  11  21
ATOM     21  O   UNL     1       0.154   4.080  20.108  0.00  0.00    +0.000 OA
ATOM     22  H   UNL     1       0.031   4.393  19.197  0.00  0.00    +0.000 HD
ENDBRANCH  11  21
TORSDOF 3
ENDMDL
MODEL 8
REMARK VINA RESULT:      -5.6      3.553      6.369
REMARK  Name = 
REMARK  4 active torsions:
REMARK  status: ('A' for Active; 'I' for Inactive)
REMARK    1  A    between atoms: C_1  and  N_2
REMARK    2  A    between atoms: C_7  and  C_8
REMARK    3  A    between atoms: C_16  and  O_17
REMARK    4  A    between atoms: C_19  and  O_20
REMARK                            x       y       z     vdW  Elec       q    Type
REMARK                         _______ _______ _______ _____ _____    ______ ____
ROOT
ATOM      1  C   UNL     1       2.085   5.230  19.703  0.00  0.00    +0.000 C 
ATOM      2  O   UNL     1       1.312   4.319  19.974  0.00  0.00    +0.000 OA
ATOM      3  N   UNL     1       3.260   4.997  18.962  0.00  0.00    +0.000 N 
ATOM      4  C   UNL     1       3.477   3.709  18.321  0.00  0.00    +0.000 C 
ATOM      5  C   UNL     1       3.985   3.923  16.897  0.00  0.00    +0.000 C 
ATOM      6  C   UNL     1       5.221   4.858  16.825  0.00  0.00    +0.000 C 
ATOM      7  C   UNL     1       5.107   6.090  17.741  0.00  0.00    +0.000 C 
ATOM      8  C   UNL     1       4.489   5.770  19.098  0.00  0.00    +0.000 C 
ATOM      9  C   UNL     1       5.481   5.217  15.319  0.00  0.00    +0.000 C 
ATOM     10  C   UNL     1       6.574   4.138  15.269  0.00  0.00    +0.000 C 
ATOM     11  C   UNL     1       6.611   4.130  16.813  0.00  0.00    +0.000 C 
ENDROOT
BRANCH   1  18
ATOM     12  C   UNL     1       2.072   7.743  17.814  0.00  0.00    +0.000 C 
ATOM     13  N   UNL     1       1.813   7.722  19.239  0.00  0.00    +0.000 N 
ATOM     14  C   UNL     1       1.475   8.855  19.943  0.00  0.00    +0.000 A 
ATOM     15  C   UNL     1       1.303   8.507  21.254  0.00  0.00    +0.000 A 
ATOM     16 CL   UNL     1       0.851   9.514  22.541  0.00  0.00    +0.000 Cl
ATOM     17  C   UNL     1       1.565   7.130  21.353  0.00  0.00    +0.000 A 
ATOM     18  C   UNL     1       1.803   6.619  20.077  0.00  0.00    +0.000 A 
ENDBRANCH   1  18
BRANCH   9  19
ATOM     19  O   UNL     1       5.887   6.565  15.002  0.00  0.00    +0.000 OA
ATOM     20  H   UNL     1       5.439   7.156  15.626  0.00  0.00    +0.000 HD
ENDBRANCH   9  19
BRANCH  11  21
ATOM     21  O   UNL     1       7.730   4.816  17.414  0.00  0.00    +0.000 OA
ATOM     22  H   UNL     1       8.094   4.223  18.092  0.00  0.00    +0.000 HD
ENDBRANCH  11  21
TORSDOF 3
ENDMDL
MODEL 9
REMARK VINA RESULT:      -5.6      3.099      4.594
REMARK  Name = 
REMARK  4 active torsions:
REMARK  status: ('A' for Active; 'I' for Inactive)
REMARK    1  A    between atoms: C_1  and  N_2
REMARK    2  A    between atoms: C_7  and  C_8
REMARK    3  A    between atoms: C_16  and  O_17
REMARK    4  A    between atoms: C_19  and  O_20
REMARK                            x       y       z     vdW  Elec       q    Type
REMARK                         _______ _______ _______ _____ _____    ______ ____
ROOT
ATOM      1  C   UNL     1       6.823   4.609  13.612  0.00  0.00    +0.000 C 
ATOM      2  O   UNL     1       7.752   5.324  13.260  0.00  0.00    +0.000 OA
ATOM      3  N   UNL     1       6.416   4.546  14.959  0.00  0.00    +0.000 N 
ATOM      4  C   UNL     1       6.954   5.488  15.930  0.00  0.00    +0.000 C 
ATOM      5  C   UNL     1       5.823   6.028  16.803  0.00  0.00    +0.000 C 
ATOM      6  C   UNL     1       4.964   4.908  17.448  0.00  0.00    +0.000 C 
ATOM      7  C   UNL     1       4.639   3.756  16.480  0.00  0.00    +0.000 C 
ATOM      8  C   UNL     1       5.816   3.376  15.587  0.00  0.00    +0.000 C 
ATOM      9  C   UNL     1       3.692   5.569  18.088  0.00  0.00    +0.000 C 
ATOM     10  C   UNL     1       4.381   5.523  19.461  0.00  0.00    +0.000 C 
ATOM     11  C   UNL     1       5.387   4.494  18.901  0.00  0.00    +0.000 C 
ENDROOT
BRANCH   1  18
ATOM     12  C   UNL     1       7.865   2.325  11.719  0.00  0.00    +0.000 C 
ATOM     13  N   UNL     1       6.512   2.833  11.810  0.00  0.00    +0.000 N 
ATOM     14  C   UNL     1       5.478   2.311  11.066  0.00  0.00    +0.000 A 
ATOM     15  C   UNL     1       4.339   3.004  11.373  0.00  0.00    +0.000 A 
ATOM     16 CL   UNL     1       2.777   2.749  10.766  0.00  0.00    +0.000 Cl
ATOM     17  C   UNL     1       4.696   3.988  12.310  0.00  0.00    +0.000 A 
ATOM     18  C   UNL     1       6.040   3.828  12.649  0.00  0.00    +0.000 A 
ENDBRANCH   1  18
BRANCH   9  19
ATOM     19  O   UNL     1       2.433   4.873  17.971  0.00  0.00    +0.000 OA
ATOM     20  H   UNL     1       2.633   3.945  17.778  0.00  0.00    +0.000 HD
ENDBRANCH   9  19
BRANCH  11  21
ATOM     21  O   UNL     1       5.164   3.124  19.297  0.00  0.00    +0.000 OA
ATOM     22  H   UNL     1       4.862   3.141  20.221  0.00  0.00    +0.000 HD
ENDBRANCH  11  21
TORSDOF 3
ENDMDL
