MODEL 1
REMARK VINA RESULT:      -7.7      0.000      0.000
REMARK  Name = 
REMARK  5 active torsions:
REMARK  status: ('A' for Active; 'I' for Inactive)
REMARK    1  A    between atoms: C_1  and  O_2
REMARK    2  A    between atoms: O_2  and  C_3
REMARK    3  A    between atoms: C_6  and  N_7
REMARK    4  A    between atoms: N_7  and  C_8
REMARK    5  A    between atoms: C_10  and  C_11
REMARK                            x       y       z     vdW  Elec       q    Type
REMARK                         _______ _______ _______ _____ _____    ______ ____
ROOT
ATOM      1  C   UNL     1       5.372   3.902  15.806  0.00  0.00    +0.000 A 
ATOM      2  C   UNL     1       6.119   4.338  16.885  0.00  0.00    +0.000 A 
ATOM      3  C   UNL     1       6.679   5.555  16.655  0.00  0.00    +0.000 A 
ATOM      4  C   UNL     1       5.772   6.767  16.639  0.00  0.00    +0.000 C 
ATOM      5  N   UNL     1       7.536   5.613  15.648  0.00  0.00    +0.000 NA
ATOM      6  C   UNL     1       7.152   4.983  14.547  0.00  0.00    +0.000 A 
ATOM      7  C   UNL     1       7.845   5.401  13.427  0.00  0.00    +0.000 A 
ATOM      8  C   UNL     1       7.590   4.858  12.179  0.00  0.00    +0.000 A 
ATOM      9  C   UNL     1       6.639   3.844  12.084  0.00  0.00    +0.000 A 
ATOM     10  C   UNL     1       5.863   3.481  13.206  0.00  0.00    +0.000 A 
ATOM     11  C   UNL     1       6.051   4.080  14.504  0.00  0.00    +0.000 A 
ENDROOT
BRANCH   1  12
ATOM     12  N   UNL     1       3.934   3.848  16.025  0.00  0.00    +0.000 N 
ATOM     13  H   UNL     1       3.373   3.733  15.188  0.00  0.00    +0.000 HD
BRANCH  12  17
ATOM     14  C   UNL     1       1.641   3.198  19.687  0.00  0.00    +0.000 A 
ATOM     15  C   UNL     1       1.847   4.464  19.164  0.00  0.00    +0.000 A 
ATOM     16  C   UNL     1       2.582   4.682  17.976  0.00  0.00    +0.000 A 
ATOM     17  C   UNL     1       3.182   3.642  17.251  0.00  0.00    +0.000 A 
ATOM     18  C   UNL     1       2.901   2.344  17.755  0.00  0.00    +0.000 A 
ATOM     19  C   UNL     1       2.149   2.131  18.958  0.00  0.00    +0.000 A 
BRANCH  14  21
ATOM     20  C   UNL     1       1.508   2.555  22.022  0.00  0.00    +0.000 C 
ATOM     21  O   UNL     1       0.969   3.185  20.869  0.00  0.00    +0.000 OA
ENDBRANCH  14  21
ENDBRANCH  12  17
ENDBRANCH   1  12
TORSDOF 3
ENDMDL
MODEL 2
REMARK VINA RESULT:      -7.6      0.271      1.087
REMARK  Name = 
REMARK  5 active torsions:
REMARK  status: ('A' for Active; 'I' for Inactive)
REMARK    1  A    between atoms: C_1  and  O_2
REMARK    2  A    between atoms: O_2  and  C_3
REMARK    3  A    between atoms: C_6  and  N_7
REMARK    4  A    between atoms: N_7  and  C_8
REMARK    5  A    between atoms: C_10  and  C_11
REMARK                            x       y       z     vdW  Elec       q    Type
REMARK                         _______ _______ _______ _____ _____    ______ ____
ROOT
ATOM      1  C   UNL     1       5.400   3.925  15.839  0.00  0.00    +0.000 A 
ATOM      2  C   UNL     1       6.169   4.372  16.897  0.00  0.00    +0.000 A 
ATOM      3  C   UNL     1       6.728   5.584  16.641  0.00  0.00    +0.000 A 
ATOM      4  C   UNL     1       5.825   6.798  16.626  0.00  0.00    +0.000 C 
ATOM      5  N   UNL     1       7.566   5.626  15.617  0.00  0.00    +0.000 NA
ATOM      6  C   UNL     1       7.158   4.983  14.532  0.00  0.00    +0.000 A 
ATOM      7  C   UNL     1       7.831   5.384  13.393  0.00  0.00    +0.000 A 
ATOM      8  C   UNL     1       7.550   4.826  12.157  0.00  0.00    +0.000 A 
ATOM      9  C   UNL     1       6.595   3.814  12.094  0.00  0.00    +0.000 A 
ATOM     10  C   UNL     1       5.839   3.468  13.235  0.00  0.00    +0.000 A 
ATOM     11  C   UNL     1       6.054   4.083  14.522  0.00  0.00    +0.000 A 
ENDROOT
BRANCH   1  12
ATOM     12  N   UNL     1       3.966   3.878  16.086  0.00  0.00    +0.000 N 
ATOM     13  H   UNL     1       3.395   3.656  15.278  0.00  0.00    +0.000 HD
BRANCH  12  17
ATOM     14  C   UNL     1       1.800   3.710  19.877  0.00  0.00    +0.000 A 
ATOM     15  C   UNL     1       2.386   2.588  19.315  0.00  0.00    +0.000 A 
ATOM     16  C   UNL     1       3.094   2.635  18.092  0.00  0.00    +0.000 A 
ATOM     17  C   UNL     1       3.235   3.810  17.340  0.00  0.00    +0.000 A 
ATOM     18  C   UNL     1       2.696   4.967  17.962  0.00  0.00    +0.000 A 
ATOM     19  C   UNL     1       1.984   4.912  19.207  0.00  0.00    +0.000 A 
BRANCH  14  21
ATOM     20  C   UNL     1       1.539   2.487  21.955  0.00  0.00    +0.000 C 
ATOM     21  O   UNL     1       1.106   3.464  21.020  0.00  0.00    +0.000 OA
ENDBRANCH  14  21
ENDBRANCH  12  17
ENDBRANCH   1  12
TORSDOF 3
ENDMDL
MODEL 3
REMARK VINA RESULT:      -7.3      3.943      6.674
REMARK  Name = 
REMARK  5 active torsions:
REMARK  status: ('A' for Active; 'I' for Inactive)
REMARK    1  A    between atoms: C_1  and  O_2
REMARK    2  A    between atoms: O_2  and  C_3
REMARK    3  A    between atoms: C_6  and  N_7
REMARK    4  A    between atoms: N_7  and  C_8
REMARK    5  A    between atoms: C_10  and  C_11
REMARK                            x       y       z     vdW  Elec       q    Type
REMARK                         _______ _______ _______ _____ _____    ______ ____
ROOT
ATOM      1  C   UNL     1       3.642   5.860  19.088  0.00  0.00    +0.000 A 
ATOM      2  C   UNL     1       4.966   5.529  18.865  0.00  0.00    +0.000 A 
ATOM      3  C   UNL     1       5.088   4.359  18.184  0.00  0.00    +0.000 A 
ATOM      4  C   UNL     1       4.711   4.343  16.719  0.00  0.00    +0.000 C 
ATOM      5  N   UNL     1       4.605   3.287  18.792  0.00  0.00    +0.000 NA
ATOM      6  C   UNL     1       3.422   3.453  19.366  0.00  0.00    +0.000 A 
ATOM      7  C   UNL     1       2.780   2.255  19.616  0.00  0.00    +0.000 A 
ATOM      8  C   UNL     1       1.532   2.218  20.214  0.00  0.00    +0.000 A 
ATOM      9  C   UNL     1       0.951   3.424  20.600  0.00  0.00    +0.000 A 
ATOM     10  C   UNL     1       1.558   4.653  20.262  0.00  0.00    +0.000 A 
ATOM     11  C   UNL     1       2.821   4.729  19.571  0.00  0.00    +0.000 A 
ENDROOT
BRANCH   1  12
ATOM     12  N   UNL     1       3.158   7.022  18.357  0.00  0.00    +0.000 N 
ATOM     13  H   UNL     1       3.339   7.013  17.360  0.00  0.00    +0.000 HD
BRANCH  12  17
ATOM     14  C   UNL     1       0.290  10.082  19.584  0.00  0.00    +0.000 A 
ATOM     15  C   UNL     1       0.677   9.925  18.264  0.00  0.00    +0.000 A 
ATOM     16  C   UNL     1       1.600   8.934  17.858  0.00  0.00    +0.000 A 
ATOM     17  C   UNL     1       2.214   8.052  18.759  0.00  0.00    +0.000 A 
ATOM     18  C   UNL     1       1.753   8.172  20.096  0.00  0.00    +0.000 A 
ATOM     19  C   UNL     1       0.812   9.178  20.500  0.00  0.00    +0.000 A 
BRANCH  14  21
ATOM     20  C   UNL     1      -1.709  11.324  18.998  0.00  0.00    +0.000 C 
ATOM     21  O   UNL     1      -0.553  11.128  19.798  0.00  0.00    +0.000 OA
ENDBRANCH  14  21
ENDBRANCH  12  17
ENDBRANCH   1  12
TORSDOF 3
ENDMDL
MODEL 4
REMARK VINA RESULT:      -7.3      3.910      6.607
REMARK  Name = 
REMARK  5 active torsions:
REMARK  status: ('A' for Active; 'I' for Inactive)
REMARK    1  A    between atoms: C_1  and  O_2
REMARK    2  A    between atoms: O_2  and  C_3
REMARK    3  A    between atoms: C_6  and  N_7
REMARK    4  A    between atoms: N_7  and  C_8
REMARK    5  A    between atoms: C_10  and  C_11
REMARK                            x       y       z     vdW  Elec       q    Type
REMARK                         _______ _______ _______ _____ _____    ______ ____
ROOT
ATOM      1  C   UNL     1       3.626   5.822  19.053  0.00  0.00    +0.000 A 
ATOM      2  C   UNL     1       4.957   5.508  18.852  0.00  0.00    +0.000 A 
ATOM      3  C   UNL     1       5.105   4.388  18.096  0.00  0.00    +0.000 A 
ATOM      4  C   UNL     1       4.778   4.474  16.621  0.00  0.00    +0.000 C 
ATOM      5  N   UNL     1       4.605   3.276  18.611  0.00  0.00    +0.000 NA
ATOM      6  C   UNL     1       3.402   3.401  19.154  0.00  0.00    +0.000 A 
ATOM      7  C   UNL     1       2.756   2.189  19.299  0.00  0.00    +0.000 A 
ATOM      8  C   UNL     1       1.488   2.110  19.851  0.00  0.00    +0.000 A 
ATOM      9  C   UNL     1       0.892   3.286  20.299  0.00  0.00    +0.000 A 
ATOM     10  C   UNL     1       1.507   4.536  20.069  0.00  0.00    +0.000 A 
ATOM     11  C   UNL     1       2.792   4.660  19.428  0.00  0.00    +0.000 A 
ENDROOT
BRANCH   1  12
ATOM     12  N   UNL     1       3.164   7.032  18.389  0.00  0.00    +0.000 N 
ATOM     13  H   UNL     1       3.405   7.107  17.407  0.00  0.00    +0.000 HD
BRANCH  12  17
ATOM     14  C   UNL     1       0.224  10.013  19.641  0.00  0.00    +0.000 A 
ATOM     15  C   UNL     1       0.800   9.128  20.537  0.00  0.00    +0.000 A 
ATOM     16  C   UNL     1       1.756   8.164  20.141  0.00  0.00    +0.000 A 
ATOM     17  C   UNL     1       2.176   8.011  18.812  0.00  0.00    +0.000 A 
ATOM     18  C   UNL     1       1.636   8.973  17.917  0.00  0.00    +0.000 A 
ATOM     19  C   UNL     1       0.671   9.951  18.328  0.00  0.00    +0.000 A 
BRANCH  14  21
ATOM     20  C   UNL     1      -1.599  11.590  19.375  0.00  0.00    +0.000 C 
ATOM     21  O   UNL     1      -0.722  10.823  20.187  0.00  0.00    +0.000 OA
ENDBRANCH  14  21
ENDBRANCH  12  17
ENDBRANCH   1  12
TORSDOF 3
ENDMDL
MODEL 5
REMARK VINA RESULT:      -7.3      3.237      6.890
REMARK  Name = 
REMARK  5 active torsions:
REMARK  status: ('A' for Active; 'I' for Inactive)
REMARK    1  A    between atoms: C_1  and  O_2
REMARK    2  A    between atoms: O_2  and  C_3
REMARK    3  A    between atoms: C_6  and  N_7
REMARK    4  A    between atoms: N_7  and  C_8
REMARK    5  A    between atoms: C_10  and  C_11
REMARK                            x       y       z     vdW  Elec       q    Type
REMARK                         _______ _______ _______ _____ _____    ______ ____
ROOT
ATOM      1  C   UNL     1       3.772   3.282  17.782  0.00  0.00    +0.000 A 
ATOM      2  C   UNL     1       2.745   3.795  17.012  0.00  0.00    +0.000 A 
ATOM      3  C   UNL     1       2.060   4.770  17.664  0.00  0.00    +0.000 A 
ATOM      4  C   UNL     1       2.739   6.108  17.865  0.00  0.00    +0.000 C 
ATOM      5  N   UNL     1       1.448   4.397  18.777  0.00  0.00    +0.000 NA
ATOM      6  C   UNL     1       2.163   3.618  19.576  0.00  0.00    +0.000 A 
ATOM      7  C   UNL     1       1.676   3.594  20.869  0.00  0.00    +0.000 A 
ATOM      8  C   UNL     1       2.285   2.833  21.853  0.00  0.00    +0.000 A 
ATOM      9  C   UNL     1       3.384   2.055  21.498  0.00  0.00    +0.000 A 
ATOM     10  C   UNL     1       3.942   2.150  20.205  0.00  0.00    +0.000 A 
ATOM     11  C   UNL     1       3.378   2.990  19.177  0.00  0.00    +0.000 A 
ENDROOT
BRANCH   1  12
ATOM     12  N   UNL     1       5.116   3.592  17.316  0.00  0.00    +0.000 N 
ATOM     13  H   UNL     1       5.432   3.056  16.517  0.00  0.00    +0.000 HD
BRANCH  12  17
ATOM     14  C   UNL     1       7.706   7.007  18.171  0.00  0.00    +0.000 A 
ATOM     15  C   UNL     1       7.623   5.916  19.021  0.00  0.00    +0.000 A 
ATOM     16  C   UNL     1       6.792   4.805  18.749  0.00  0.00    +0.000 A 
ATOM     17  C   UNL     1       5.969   4.730  17.616  0.00  0.00    +0.000 A 
ATOM     18  C   UNL     1       6.119   5.819  16.716  0.00  0.00    +0.000 A 
ATOM     19  C   UNL     1       6.968   6.940  16.996  0.00  0.00    +0.000 A 
BRANCH  14  21
ATOM     20  C   UNL     1       8.386   9.334  18.127  0.00  0.00    +0.000 C 
ATOM     21  O   UNL     1       8.503   8.010  18.627  0.00  0.00    +0.000 OA
ENDBRANCH  14  21
ENDBRANCH  12  17
ENDBRANCH   1  12
TORSDOF 3
ENDMDL
MODEL 6
REMARK VINA RESULT:      -7.2      3.899      6.412
REMARK  Name = 
REMARK  5 active torsions:
REMARK  status: ('A' for Active; 'I' for Inactive)
REMARK    1  A    between atoms: C_1  and  O_2
REMARK    2  A    between atoms: O_2  and  C_3
REMARK    3  A    between atoms: C_6  and  N_7
REMARK    4  A    between atoms: N_7  and  C_8
REMARK    5  A    between atoms: C_10  and  C_11
REMARK                            x       y       z     vdW  Elec       q    Type
REMARK                         _______ _______ _______ _____ _____    ______ ____
ROOT
ATOM      1  C   UNL     1       3.358   5.819  19.211  0.00  0.00    +0.000 A 
ATOM      2  C   UNL     1       4.714   5.635  19.019  0.00  0.00    +0.000 A 
ATOM      3  C   UNL     1       4.970   4.729  18.040  0.00  0.00    +0.000 A 
ATOM      4  C   UNL     1       4.699   5.131  16.606  0.00  0.00    +0.000 C 
ATOM      5  N   UNL     1       4.525   3.502  18.261  0.00  0.00    +0.000 NA
ATOM      6  C   UNL     1       3.295   3.431  18.750  0.00  0.00    +0.000 A 
ATOM      7  C   UNL     1       2.727   2.183  18.580  0.00  0.00    +0.000 A 
ATOM      8  C   UNL     1       1.446   1.908  19.028  0.00  0.00    +0.000 A 
ATOM      9  C   UNL     1       0.752   2.914  19.696  0.00  0.00    +0.000 A 
ATOM     10  C   UNL     1       1.290   4.216  19.789  0.00  0.00    +0.000 A 
ATOM     11  C   UNL     1       2.590   4.556  19.266  0.00  0.00    +0.000 A 
ENDROOT
BRANCH   1  12
ATOM     12  N   UNL     1       2.842   7.121  18.813  0.00  0.00    +0.000 N 
ATOM     13  H   UNL     1       2.977   7.360  17.837  0.00  0.00    +0.000 HD
BRANCH  12  17
ATOM     14  C   UNL     1       0.102   9.835  20.867  0.00  0.00    +0.000 A 
ATOM     15  C   UNL     1       0.592   8.689  21.471  0.00  0.00    +0.000 A 
ATOM     16  C   UNL     1       1.483   7.809  20.815  0.00  0.00    +0.000 A 
ATOM     17  C   UNL     1       1.920   8.011  19.498  0.00  0.00    +0.000 A 
ATOM     18  C   UNL     1       1.471   9.226  18.916  0.00  0.00    +0.000 A 
ATOM     19  C   UNL     1       0.570  10.117  19.590  0.00  0.00    +0.000 A 
BRANCH  14  21
ATOM     20  C   UNL     1      -0.795  10.434  23.039  0.00  0.00    +0.000 C 
ATOM     21  O   UNL     1      -0.795  10.524  21.622  0.00  0.00    +0.000 OA
ENDBRANCH  14  21
ENDBRANCH  12  17
ENDBRANCH   1  12
TORSDOF 3
ENDMDL
MODEL 7
REMARK VINA RESULT:      -7.2      1.498      1.953
REMARK  Name = 
REMARK  5 active torsions:
REMARK  status: ('A' for Active; 'I' for Inactive)
REMARK    1  A    between atoms: C_1  and  O_2
REMARK    2  A    between atoms: O_2  and  C_3
REMARK    3  A    between atoms: C_6  and  N_7
REMARK    4  A    between atoms: N_7  and  C_8
REMARK    5  A    between atoms: C_10  and  C_11
REMARK                            x       y       z     vdW  Elec       q    Type
REMARK                         _______ _______ _______ _____ _____    ______ ____
ROOT
ATOM      1  C   UNL     1       5.426   4.006  16.170  0.00  0.00    +0.000 A 
ATOM      2  C   UNL     1       6.331   4.464  17.109  0.00  0.00    +0.000 A 
ATOM      3  C   UNL     1       6.923   5.624  16.720  0.00  0.00    +0.000 A 
ATOM      4  C   UNL     1       6.091   6.888  16.728  0.00  0.00    +0.000 C 
ATOM      5  N   UNL     1       7.642   5.558  15.610  0.00  0.00    +0.000 NA
ATOM      6  C   UNL     1       7.082   4.882  14.618  0.00  0.00    +0.000 A 
ATOM      7  C   UNL     1       7.645   5.177  13.390  0.00  0.00    +0.000 A 
ATOM      8  C   UNL     1       7.197   4.569  12.229  0.00  0.00    +0.000 A 
ATOM      9  C   UNL     1       6.188   3.615  12.332  0.00  0.00    +0.000 A 
ATOM     10  C   UNL     1       5.546   3.380  13.568  0.00  0.00    +0.000 A 
ATOM     11  C   UNL     1       5.936   4.052  14.783  0.00  0.00    +0.000 A 
ENDROOT
BRANCH   1  12
ATOM     12  N   UNL     1       4.028   4.061  16.573  0.00  0.00    +0.000 N 
ATOM     13  H   UNL     1       3.420   3.388  16.119  0.00  0.00    +0.000 HD
BRANCH  12  17
ATOM     14  C   UNL     1       2.127   5.989  20.003  0.00  0.00    +0.000 A 
ATOM     15  C   UNL     1       2.456   6.690  18.855  0.00  0.00    +0.000 A 
ATOM     16  C   UNL     1       3.066   6.073  17.739  0.00  0.00    +0.000 A 
ATOM     17  C   UNL     1       3.409   4.713  17.715  0.00  0.00    +0.000 A 
ATOM     18  C   UNL     1       2.999   3.990  18.866  0.00  0.00    +0.000 A 
ATOM     19  C   UNL     1       2.376   4.623  19.993  0.00  0.00    +0.000 A 
BRANCH  14  21
ATOM     20  C   UNL     1       1.395   8.151  20.822  0.00  0.00    +0.000 C 
ATOM     21  O   UNL     1       1.610   6.758  20.998  0.00  0.00    +0.000 OA
ENDBRANCH  14  21
ENDBRANCH  12  17
ENDBRANCH   1  12
TORSDOF 3
ENDMDL
MODEL 8
REMARK VINA RESULT:      -7.1      3.856      5.480
REMARK  Name = 
REMARK  5 active torsions:
REMARK  status: ('A' for Active; 'I' for Inactive)
REMARK    1  A    between atoms: C_1  and  O_2
REMARK    2  A    between atoms: O_2  and  C_3
REMARK    3  A    between atoms: C_6  and  N_7
REMARK    4  A    between atoms: N_7  and  C_8
REMARK    5  A    between atoms: C_10  and  C_11
REMARK                            x       y       z     vdW  Elec       q    Type
REMARK                         _______ _______ _______ _____ _____    ______ ____
ROOT
ATOM      1  C   UNL     1       2.956   5.407  18.164  0.00  0.00    +0.000 A 
ATOM      2  C   UNL     1       2.284   4.209  18.326  0.00  0.00    +0.000 A 
ATOM      3  C   UNL     1       3.140   3.165  18.483  0.00  0.00    +0.000 A 
ATOM      4  C   UNL     1       3.901   3.055  19.787  0.00  0.00    +0.000 C 
ATOM      5  N   UNL     1       3.947   2.926  17.462  0.00  0.00    +0.000 NA
ATOM      6  C   UNL     1       4.505   4.000  16.923  0.00  0.00    +0.000 A 
ATOM      7  C   UNL     1       5.621   3.697  16.166  0.00  0.00    +0.000 A 
ATOM      8  C   UNL     1       6.342   4.686  15.518  0.00  0.00    +0.000 A 
ATOM      9  C   UNL     1       5.889   6.000  15.613  0.00  0.00    +0.000 A 
ATOM     10  C   UNL     1       4.808   6.326  16.460  0.00  0.00    +0.000 A 
ATOM     11  C   UNL     1       4.082   5.330  17.209  0.00  0.00    +0.000 A 
ENDROOT
BRANCH   1  12
ATOM     12  N   UNL     1       2.827   6.349  19.266  0.00  0.00    +0.000 N 
ATOM     13  H   UNL     1       3.474   6.210  20.033  0.00  0.00    +0.000 HD
BRANCH  12  17
ATOM     14  C   UNL     1       0.770  10.201  19.444  0.00  0.00    +0.000 A 
ATOM     15  C   UNL     1       0.875   9.372  20.549  0.00  0.00    +0.000 A 
ATOM     16  C   UNL     1       1.544   8.127  20.501  0.00  0.00    +0.000 A 
ATOM     17  C   UNL     1       2.128   7.622  19.330  0.00  0.00    +0.000 A 
ATOM     18  C   UNL     1       2.080   8.513  18.225  0.00  0.00    +0.000 A 
ATOM     19  C   UNL     1       1.404   9.777  18.283  0.00  0.00    +0.000 A 
BRANCH  14  21
ATOM     20  C   UNL     1      -0.790  11.875  18.641  0.00  0.00    +0.000 C 
ATOM     21  O   UNL     1       0.035  11.325  19.657  0.00  0.00    +0.000 OA
ENDBRANCH  14  21
ENDBRANCH  12  17
ENDBRANCH   1  12
TORSDOF 3
ENDMDL
MODEL 9
REMARK VINA RESULT:      -7.1      3.833      5.466
REMARK  Name = 
REMARK  5 active torsions:
REMARK  status: ('A' for Active; 'I' for Inactive)
REMARK    1  A    between atoms: C_1  and  O_2
REMARK    2  A    between atoms: O_2  and  C_3
REMARK    3  A    between atoms: C_6  and  N_7
REMARK    4  A    between atoms: N_7  and  C_8
REMARK    5  A    between atoms: C_10  and  C_11
REMARK                            x       y       z     vdW  Elec       q    Type
REMARK                         _______ _______ _______ _____ _____    ______ ____
ROOT
ATOM      1  C   UNL     1       2.936   5.340  18.225  0.00  0.00    +0.000 A 
ATOM      2  C   UNL     1       2.283   4.134  18.393  0.00  0.00    +0.000 A 
ATOM      3  C   UNL     1       3.154   3.098  18.519  0.00  0.00    +0.000 A 
ATOM      4  C   UNL     1       3.948   2.986  19.803  0.00  0.00    +0.000 C 
ATOM      5  N   UNL     1       3.939   2.877  17.476  0.00  0.00    +0.000 NA
ATOM      6  C   UNL     1       4.471   3.963  16.934  0.00  0.00    +0.000 A 
ATOM      7  C   UNL     1       5.571   3.679  16.147  0.00  0.00    +0.000 A 
ATOM      8  C   UNL     1       6.264   4.683  15.490  0.00  0.00    +0.000 A 
ATOM      9  C   UNL     1       5.798   5.990  15.609  0.00  0.00    +0.000 A 
ATOM     10  C   UNL     1       4.735   6.297  16.485  0.00  0.00    +0.000 A 
ATOM     11  C   UNL     1       4.040   5.286  17.242  0.00  0.00    +0.000 A 
ENDROOT
BRANCH   1  12
ATOM     12  N   UNL     1       2.823   6.271  19.339  0.00  0.00    +0.000 N 
ATOM     13  H   UNL     1       3.445   6.091  20.119  0.00  0.00    +0.000 HD
BRANCH  12  17
ATOM     14  C   UNL     1       0.851  10.165  19.558  0.00  0.00    +0.000 A 
ATOM     15  C   UNL     1       1.445   9.706  18.394  0.00  0.00    +0.000 A 
ATOM     16  C   UNL     1       2.080   8.446  18.313  0.00  0.00    +0.000 A 
ATOM     17  C   UNL     1       2.182   7.574  19.407  0.00  0.00    +0.000 A 
ATOM     18  C   UNL     1       1.505   8.021  20.572  0.00  0.00    +0.000 A 
ATOM     19  C   UNL     1       0.858   9.300  20.645  0.00  0.00    +0.000 A 
BRANCH  14  21
ATOM     20  C   UNL     1      -0.736  11.732  18.606  0.00  0.00    +0.000 C 
ATOM     21  O   UNL     1       0.349  11.426  19.470  0.00  0.00    +0.000 OA
ENDBRANCH  14  21
ENDBRANCH  12  17
ENDBRANCH   1  12
TORSDOF 3
ENDMDL
