MODEL 1
REMARK VINA RESULT:      -8.1      0.000      0.000
REMARK  Name = 
REMARK  3 active torsions:
REMARK  status: ('A' for Active; 'I' for Inactive)
REMARK    1  A    between atoms: C_1  and  N_2
REMARK    2  A    between atoms: C_6  and  C_7
REMARK    3  A    between atoms: C_12  and  C_13
REMARK                            x       y       z     vdW  Elec       q    Type
REMARK                         _______ _______ _______ _____ _____    ______ ____
ROOT
ATOM      1  C   UNL     1       3.833   5.143  19.835  0.00  0.00    +0.000 C 
ATOM      2  C   UNL     1       3.152   6.074  18.831  0.00  0.00    +0.000 C 
ATOM      3  O   UNL     1       3.369   5.694  17.474  0.00  0.00    +0.000 OA
ATOM      4  C   UNL     1       4.671   5.336  17.251  0.00  0.00    +0.000 A 
ATOM      5  C   UNL     1       5.045   5.186  15.916  0.00  0.00    +0.000 A 
ATOM      6  C   UNL     1       6.354   4.818  15.555  0.00  0.00    +0.000 A 
ATOM      7  C   UNL     1       7.278   4.633  16.600  0.00  0.00    +0.000 A 
ATOM      8  C   UNL     1       6.894   4.739  17.943  0.00  0.00    +0.000 A 
ATOM      9  C   UNL     1       5.579   5.057  18.266  0.00  0.00    +0.000 A 
ATOM     10  O   UNL     1       5.248   5.034  19.592  0.00  0.00    +0.000 OA
ENDROOT
BRANCH   1  16
ATOM     11  C   UNL     1       0.846   4.349  20.501  0.00  0.00    +0.000 C 
ATOM     12  N   UNL     1       1.768   3.657  19.607  0.00  0.00    +0.000 NA
ATOM     13  C   UNL     1       1.467   2.221  19.561  0.00  0.00    +0.000 C 
ATOM     14  C   UNL     1       2.702   1.629  18.914  0.00  0.00    +0.000 C 
ATOM     15  C   UNL     1       3.841   2.558  19.314  0.00  0.00    +0.000 C 
ATOM     16  C   UNL     1       3.183   3.746  20.038  0.00  0.00    +0.000 C 
ENDBRANCH   1  16
BRANCH   6  17
ATOM     17  C   UNL     1       6.715   4.602  14.133  0.00  0.00    +0.000 A 
ATOM     18  C   UNL     1       7.649   5.429  13.481  0.00  0.00    +0.000 A 
ATOM     19  C   UNL     1       7.939   5.280  12.121  0.00  0.00    +0.000 A 
ATOM     20  C   UNL     1       7.315   4.281  11.385  0.00  0.00    +0.000 A 
ATOM     21  C   UNL     1       6.404   3.434  12.005  0.00  0.00    +0.000 A 
ATOM     22  C   UNL     1       6.105   3.597  13.363  0.00  0.00    +0.000 A 
ENDBRANCH   6  17
TORSDOF 2
ENDMDL
MODEL 2
REMARK VINA RESULT:      -8.1      0.168      1.037
REMARK  Name = 
REMARK  3 active torsions:
REMARK  status: ('A' for Active; 'I' for Inactive)
REMARK    1  A    between atoms: C_1  and  N_2
REMARK    2  A    between atoms: C_6  and  C_7
REMARK    3  A    between atoms: C_12  and  C_13
REMARK                            x       y       z     vdW  Elec       q    Type
REMARK                         _______ _______ _______ _____ _____    ______ ____
ROOT
ATOM      1  C   UNL     1       3.789   5.260  19.941  0.00  0.00    +0.000 C 
ATOM      2  C   UNL     1       3.119   6.212  18.948  0.00  0.00    +0.000 C 
ATOM      3  O   UNL     1       3.307   5.828  17.587  0.00  0.00    +0.000 OA
ATOM      4  C   UNL     1       4.596   5.437  17.346  0.00  0.00    +0.000 A 
ATOM      5  C   UNL     1       4.948   5.280  16.005  0.00  0.00    +0.000 A 
ATOM      6  C   UNL     1       6.241   4.879  15.625  0.00  0.00    +0.000 A 
ATOM      7  C   UNL     1       7.174   4.666  16.657  0.00  0.00    +0.000 A 
ATOM      8  C   UNL     1       6.812   4.779  18.006  0.00  0.00    +0.000 A 
ATOM      9  C   UNL     1       5.510   5.131  18.347  0.00  0.00    +0.000 A 
ATOM     10  O   UNL     1       5.197   5.114  19.678  0.00  0.00    +0.000 OA
ENDROOT
BRANCH   1  16
ATOM     11  C   UNL     1       0.758   4.535  20.476  0.00  0.00    +0.000 C 
ATOM     12  N   UNL     1       1.712   3.802  19.650  0.00  0.00    +0.000 NA
ATOM     13  C   UNL     1       1.388   2.370  19.630  0.00  0.00    +0.000 C 
ATOM     14  C   UNL     1       2.644   1.739  19.064  0.00  0.00    +0.000 C 
ATOM     15  C   UNL     1       3.778   2.662  19.495  0.00  0.00    +0.000 C 
ATOM     16  C   UNL     1       3.105   3.880  20.150  0.00  0.00    +0.000 C 
ENDBRANCH   1  16
BRANCH   6  17
ATOM     17  C   UNL     1       6.577   4.656  14.198  0.00  0.00    +0.000 A 
ATOM     18  C   UNL     1       5.934   3.658  13.443  0.00  0.00    +0.000 A 
ATOM     19  C   UNL     1       6.297   3.390  12.119  0.00  0.00    +0.000 A 
ATOM     20  C   UNL     1       7.300   4.134  11.511  0.00  0.00    +0.000 A 
ATOM     21  C   UNL     1       7.940   5.142  12.224  0.00  0.00    +0.000 A 
ATOM     22  C   UNL     1       7.584   5.396  13.554  0.00  0.00    +0.000 A 
ENDBRANCH   6  17
TORSDOF 2
ENDMDL
MODEL 3
REMARK VINA RESULT:      -8.1      0.805      1.454
REMARK  Name = 
REMARK  3 active torsions:
REMARK  status: ('A' for Active; 'I' for Inactive)
REMARK    1  A    between atoms: C_1  and  N_2
REMARK    2  A    between atoms: C_6  and  C_7
REMARK    3  A    between atoms: C_12  and  C_13
REMARK                            x       y       z     vdW  Elec       q    Type
REMARK                         _______ _______ _______ _____ _____    ______ ____
ROOT
ATOM      1  C   UNL     1       3.509   5.395  19.827  0.00  0.00    +0.000 C 
ATOM      2  C   UNL     1       3.027   6.445  18.824  0.00  0.00    +0.000 C 
ATOM      3  O   UNL     1       3.270   6.080  17.467  0.00  0.00    +0.000 OA
ATOM      4  C   UNL     1       4.521   5.549  17.303  0.00  0.00    +0.000 A 
ATOM      5  C   UNL     1       4.950   5.390  15.986  0.00  0.00    +0.000 A 
ATOM      6  C   UNL     1       6.214   4.852  15.683  0.00  0.00    +0.000 A 
ATOM      7  C   UNL     1       7.038   4.504  16.770  0.00  0.00    +0.000 A 
ATOM      8  C   UNL     1       6.592   4.621  18.092  0.00  0.00    +0.000 A 
ATOM      9  C   UNL     1       5.318   5.112  18.354  0.00  0.00    +0.000 A 
ATOM     10  O   UNL     1       4.907   5.094  19.658  0.00  0.00    +0.000 OA
ENDROOT
BRANCH   1  16
ATOM     11  C   UNL     1       4.403   2.374  20.088  0.00  0.00    +0.000 C 
ATOM     12  N   UNL     1       3.276   3.025  20.750  0.00  0.00    +0.000 NA
ATOM     13  C   UNL     1       2.198   2.063  21.005  0.00  0.00    +0.000 C 
ATOM     14  C   UNL     1       1.015   2.950  21.335  0.00  0.00    +0.000 C 
ATOM     15  C   UNL     1       1.255   4.235  20.553  0.00  0.00    +0.000 C 
ATOM     16  C   UNL     1       2.659   4.099  19.937  0.00  0.00    +0.000 C 
ENDBRANCH   1  16
BRANCH   6  17
ATOM     17  C   UNL     1       6.627   4.631  14.276  0.00  0.00    +0.000 A 
ATOM     18  C   UNL     1       7.623   5.422  13.674  0.00  0.00    +0.000 A 
ATOM     19  C   UNL     1       7.964   5.272  12.326  0.00  0.00    +0.000 A 
ATOM     20  C   UNL     1       7.331   4.307  11.553  0.00  0.00    +0.000 A 
ATOM     21  C   UNL     1       6.358   3.495  12.125  0.00  0.00    +0.000 A 
ATOM     22  C   UNL     1       6.008   3.660  13.470  0.00  0.00    +0.000 A 
ENDBRANCH   6  17
TORSDOF 2
ENDMDL
MODEL 4
REMARK VINA RESULT:      -8.0      5.004      6.947
REMARK  Name = 
REMARK  3 active torsions:
REMARK  status: ('A' for Active; 'I' for Inactive)
REMARK    1  A    between atoms: C_1  and  N_2
REMARK    2  A    between atoms: C_6  and  C_7
REMARK    3  A    between atoms: C_12  and  C_13
REMARK                            x       y       z     vdW  Elec       q    Type
REMARK                         _______ _______ _______ _____ _____    ______ ____
ROOT
ATOM      1  C   UNL     1       0.019  10.963  19.707  0.00  0.00    +0.000 C 
ATOM      2  C   UNL     1       1.126  11.497  18.795  0.00  0.00    +0.000 C 
ATOM      3  O   UNL     1       1.652  10.509  17.912  0.00  0.00    +0.000 OA
ATOM      4  C   UNL     1       1.854   9.316  18.551  0.00  0.00    +0.000 A 
ATOM      5  C   UNL     1       2.591   8.362  17.849  0.00  0.00    +0.000 A 
ATOM      6  C   UNL     1       2.865   7.095  18.394  0.00  0.00    +0.000 A 
ATOM      7  C   UNL     1       2.384   6.840  19.691  0.00  0.00    +0.000 A 
ATOM      8  C   UNL     1       1.605   7.778  20.381  0.00  0.00    +0.000 A 
ATOM      9  C   UNL     1       1.312   9.004  19.792  0.00  0.00    +0.000 A 
ATOM     10  O   UNL     1       0.457   9.825  20.472  0.00  0.00    +0.000 OA
ENDROOT
BRANCH   1  16
ATOM     11  C   UNL     1      -2.743  12.460  20.066  0.00  0.00    +0.000 C 
ATOM     12  N   UNL     1      -2.183  11.918  18.832  0.00  0.00    +0.000 NA
ATOM     13  C   UNL     1      -3.251  11.510  17.913  0.00  0.00    +0.000 C 
ATOM     14  C   UNL     1      -2.523  10.661  16.892  0.00  0.00    +0.000 C 
ATOM     15  C   UNL     1      -1.355  10.044  17.652  0.00  0.00    +0.000 C 
ATOM     16  C   UNL     1      -1.362  10.703  19.043  0.00  0.00    +0.000 C 
ENDBRANCH   1  16
BRANCH   6  17
ATOM     17  C   UNL     1       3.596   6.073  17.607  0.00  0.00    +0.000 A 
ATOM     18  C   UNL     1       3.260   4.709  17.688  0.00  0.00    +0.000 A 
ATOM     19  C   UNL     1       3.992   3.730  17.009  0.00  0.00    +0.000 A 
ATOM     20  C   UNL     1       5.067   4.099  16.210  0.00  0.00    +0.000 A 
ATOM     21  C   UNL     1       5.411   5.441  16.091  0.00  0.00    +0.000 A 
ATOM     22  C   UNL     1       4.685   6.415  16.786  0.00  0.00    +0.000 A 
ENDBRANCH   6  17
TORSDOF 2
ENDMDL
MODEL 5
REMARK VINA RESULT:      -8.0      0.799      1.774
REMARK  Name = 
REMARK  3 active torsions:
REMARK  status: ('A' for Active; 'I' for Inactive)
REMARK    1  A    between atoms: C_1  and  N_2
REMARK    2  A    between atoms: C_6  and  C_7
REMARK    3  A    between atoms: C_12  and  C_13
REMARK                            x       y       z     vdW  Elec       q    Type
REMARK                         _______ _______ _______ _____ _____    ______ ____
ROOT
ATOM      1  C   UNL     1       3.618   5.395  19.841  0.00  0.00    +0.000 C 
ATOM      2  C   UNL     1       3.152   6.493  18.884  0.00  0.00    +0.000 C 
ATOM      3  O   UNL     1       3.354   6.165  17.511  0.00  0.00    +0.000 OA
ATOM      4  C   UNL     1       4.582   5.597  17.301  0.00  0.00    +0.000 A 
ATOM      5  C   UNL     1       4.977   5.466  15.971  0.00  0.00    +0.000 A 
ATOM      6  C   UNL     1       6.215   4.895  15.623  0.00  0.00    +0.000 A 
ATOM      7  C   UNL     1       7.049   4.484  16.679  0.00  0.00    +0.000 A 
ATOM      8  C   UNL     1       6.635   4.572  18.015  0.00  0.00    +0.000 A 
ATOM      9  C   UNL     1       5.385   5.098  18.321  0.00  0.00    +0.000 A 
ATOM     10  O   UNL     1       5.001   5.051  19.632  0.00  0.00    +0.000 OA
ENDROOT
BRANCH   1  16
ATOM     11  C   UNL     1       4.411   2.346  20.109  0.00  0.00    +0.000 C 
ATOM     12  N   UNL     1       3.292   3.030  20.750  0.00  0.00    +0.000 NA
ATOM     13  C   UNL     1       2.179   2.101  20.979  0.00  0.00    +0.000 C 
ATOM     14  C   UNL     1       1.018   3.024  21.288  0.00  0.00    +0.000 C 
ATOM     15  C   UNL     1       1.315   4.304  20.516  0.00  0.00    +0.000 C 
ATOM     16  C   UNL     1       2.726   4.125  19.929  0.00  0.00    +0.000 C 
ENDBRANCH   1  16
BRANCH   6  17
ATOM     17  C   UNL     1       6.589   4.707  14.201  0.00  0.00    +0.000 A 
ATOM     18  C   UNL     1       5.987   3.710  13.411  0.00  0.00    +0.000 A 
ATOM     19  C   UNL     1       6.388   3.475  12.092  0.00  0.00    +0.000 A 
ATOM     20  C   UNL     1       7.389   4.252  11.523  0.00  0.00    +0.000 A 
ATOM     21  C   UNL     1       7.989   5.260  12.271  0.00  0.00    +0.000 A 
ATOM     22  C   UNL     1       7.596   5.480  13.596  0.00  0.00    +0.000 A 
ENDBRANCH   6  17
TORSDOF 2
ENDMDL
MODEL 6
REMARK VINA RESULT:      -7.9      5.147      7.142
REMARK  Name = 
REMARK  3 active torsions:
REMARK  status: ('A' for Active; 'I' for Inactive)
REMARK    1  A    between atoms: C_1  and  N_2
REMARK    2  A    between atoms: C_6  and  C_7
REMARK    3  A    between atoms: C_12  and  C_13
REMARK                            x       y       z     vdW  Elec       q    Type
REMARK                         _______ _______ _______ _____ _____    ______ ____
ROOT
ATOM      1  C   UNL     1      -0.117  11.101  19.733  0.00  0.00    +0.000 C 
ATOM      2  C   UNL     1       0.995  11.521  18.771  0.00  0.00    +0.000 C 
ATOM      3  O   UNL     1       1.486  10.444  17.975  0.00  0.00    +0.000 OA
ATOM      4  C   UNL     1       1.660   9.306  18.714  0.00  0.00    +0.000 A 
ATOM      5  C   UNL     1       2.363   8.274  18.094  0.00  0.00    +0.000 A 
ATOM      6  C   UNL     1       2.606   7.052  18.746  0.00  0.00    +0.000 A 
ATOM      7  C   UNL     1       2.129   6.925  20.064  0.00  0.00    +0.000 A 
ATOM      8  C   UNL     1       1.384   7.942  20.674  0.00  0.00    +0.000 A 
ATOM      9  C   UNL     1       1.121   9.120  19.982  0.00  0.00    +0.000 A 
ATOM     10  O   UNL     1       0.295  10.022  20.593  0.00  0.00    +0.000 OA
ENDROOT
BRANCH   1  16
ATOM     11  C   UNL     1      -2.899  12.528  20.204  0.00  0.00    +0.000 C 
ATOM     12  N   UNL     1      -2.364  12.025  18.943  0.00  0.00    +0.000 NA
ATOM     13  C   UNL     1      -3.450  11.612  18.047  0.00  0.00    +0.000 C 
ATOM     14  C   UNL     1      -2.734  10.800  16.987  0.00  0.00    +0.000 C 
ATOM     15  C   UNL     1      -1.531  10.195  17.700  0.00  0.00    +0.000 C 
ATOM     16  C   UNL     1      -1.512  10.824  19.104  0.00  0.00    +0.000 C 
ENDBRANCH   1  16
BRANCH   6  17
ATOM     17  C   UNL     1       3.300   5.944  18.047  0.00  0.00    +0.000 A 
ATOM     18  C   UNL     1       4.573   6.124  17.475  0.00  0.00    +0.000 A 
ATOM     19  C   UNL     1       5.202   5.109  16.748  0.00  0.00    +0.000 A 
ATOM     20  C   UNL     1       4.579   3.877  16.596  0.00  0.00    +0.000 A 
ATOM     21  C   UNL     1       3.330   3.660  17.168  0.00  0.00    +0.000 A 
ATOM     22  C   UNL     1       2.697   4.685  17.881  0.00  0.00    +0.000 A 
ENDBRANCH   6  17
TORSDOF 2
ENDMDL
MODEL 7
REMARK VINA RESULT:      -7.8      5.161      7.483
REMARK  Name = 
REMARK  3 active torsions:
REMARK  status: ('A' for Active; 'I' for Inactive)
REMARK    1  A    between atoms: C_1  and  N_2
REMARK    2  A    between atoms: C_6  and  C_7
REMARK    3  A    between atoms: C_12  and  C_13
REMARK                            x       y       z     vdW  Elec       q    Type
REMARK                         _______ _______ _______ _____ _____    ______ ____
ROOT
ATOM      1  C   UNL     1      -0.141  11.108  19.658  0.00  0.00    +0.000 C 
ATOM      2  C   UNL     1       1.025  11.345  18.696  0.00  0.00    +0.000 C 
ATOM      3  O   UNL     1       1.485  10.151  18.066  0.00  0.00    +0.000 OA
ATOM      4  C   UNL     1       1.574   9.112  18.953  0.00  0.00    +0.000 A 
ATOM      5  C   UNL     1       2.243   7.976  18.501  0.00  0.00    +0.000 A 
ATOM      6  C   UNL     1       2.399   6.840  19.316  0.00  0.00    +0.000 A 
ATOM      7  C   UNL     1       1.871   6.910  20.619  0.00  0.00    +0.000 A 
ATOM      8  C   UNL     1       1.159   8.033  21.060  0.00  0.00    +0.000 A 
ATOM      9  C   UNL     1       0.982   9.120  20.211  0.00  0.00    +0.000 A 
ATOM     10  O   UNL     1       0.184  10.133  20.666  0.00  0.00    +0.000 OA
ENDROOT
BRANCH   1  16
ATOM     11  C   UNL     1      -2.932  12.539  20.061  0.00  0.00    +0.000 C 
ATOM     12  N   UNL     1      -2.377  12.013  18.817  0.00  0.00    +0.000 NA
ATOM     13  C   UNL     1      -3.449  11.582  17.912  0.00  0.00    +0.000 C 
ATOM     14  C   UNL     1      -2.716  10.752  16.879  0.00  0.00    +0.000 C 
ATOM     15  C   UNL     1      -1.522  10.162  17.621  0.00  0.00    +0.000 C 
ATOM     16  C   UNL     1      -1.525  10.817  19.013  0.00  0.00    +0.000 C 
ENDBRANCH   1  16
BRANCH   6  17
ATOM     17  C   UNL     1       3.058   5.618  18.795  0.00  0.00    +0.000 A 
ATOM     18  C   UNL     1       2.434   4.805  17.831  0.00  0.00    +0.000 A 
ATOM     19  C   UNL     1       3.013   3.611  17.390  0.00  0.00    +0.000 A 
ATOM     20  C   UNL     1       4.248   3.214  17.889  0.00  0.00    +0.000 A 
ATOM     21  C   UNL     1       4.901   4.008  18.826  0.00  0.00    +0.000 A 
ATOM     22  C   UNL     1       4.309   5.194  19.276  0.00  0.00    +0.000 A 
ENDBRANCH   6  17
TORSDOF 2
ENDMDL
MODEL 8
REMARK VINA RESULT:      -7.8      4.724      7.195
REMARK  Name = 
REMARK  3 active torsions:
REMARK  status: ('A' for Active; 'I' for Inactive)
REMARK    1  A    between atoms: C_1  and  N_2
REMARK    2  A    between atoms: C_6  and  C_7
REMARK    3  A    between atoms: C_12  and  C_13
REMARK                            x       y       z     vdW  Elec       q    Type
REMARK                         _______ _______ _______ _____ _____    ______ ____
ROOT
ATOM      1  C   UNL     1       0.647  10.725  19.310  0.00  0.00    +0.000 C 
ATOM      2  C   UNL     1       1.673  10.676  18.176  0.00  0.00    +0.000 C 
ATOM      3  O   UNL     1       1.817   9.378  17.604  0.00  0.00    +0.000 OA
ATOM      4  C   UNL     1       1.862   8.404  18.565  0.00  0.00    +0.000 A 
ATOM      5  C   UNL     1       2.247   7.136  18.133  0.00  0.00    +0.000 A 
ATOM      6  C   UNL     1       2.330   6.049  19.022  0.00  0.00    +0.000 A 
ATOM      7  C   UNL     1       2.031   6.304  20.374  0.00  0.00    +0.000 A 
ATOM      8  C   UNL     1       1.600   7.566  20.802  0.00  0.00    +0.000 A 
ATOM      9  C   UNL     1       1.484   8.607  19.887  0.00  0.00    +0.000 A 
ATOM     10  O   UNL     1       0.952   9.778  20.351  0.00  0.00    +0.000 OA
ENDROOT
BRANCH   1  16
ATOM     11  C   UNL     1      -1.813  12.506  20.190  0.00  0.00    +0.000 C 
ATOM     12  N   UNL     1      -1.544  11.959  18.864  0.00  0.00    +0.000 NA
ATOM     13  C   UNL     1      -2.798  11.714  18.140  0.00  0.00    +0.000 C 
ATOM     14  C   UNL     1      -2.364  10.833  16.987  0.00  0.00    +0.000 C 
ATOM     15  C   UNL     1      -1.162  10.057  17.513  0.00  0.00    +0.000 C 
ATOM     16  C   UNL     1      -0.850  10.651  18.897  0.00  0.00    +0.000 C 
ENDBRANCH   1  16
BRANCH   6  17
ATOM     17  C   UNL     1       2.679   4.694  18.532  0.00  0.00    +0.000 A 
ATOM     18  C   UNL     1       1.901   3.571  18.869  0.00  0.00    +0.000 A 
ATOM     19  C   UNL     1       2.266   2.280  18.475  0.00  0.00    +0.000 A 
ATOM     20  C   UNL     1       3.410   2.084  17.712  0.00  0.00    +0.000 A 
ATOM     21  C   UNL     1       4.189   3.176  17.344  0.00  0.00    +0.000 A 
ATOM     22  C   UNL     1       3.828   4.466  17.755  0.00  0.00    +0.000 A 
ENDBRANCH   6  17
TORSDOF 2
ENDMDL
MODEL 9
REMARK VINA RESULT:      -7.8      4.741      7.152
REMARK  Name = 
REMARK  3 active torsions:
REMARK  status: ('A' for Active; 'I' for Inactive)
REMARK    1  A    between atoms: C_1  and  N_2
REMARK    2  A    between atoms: C_6  and  C_7
REMARK    3  A    between atoms: C_12  and  C_13
REMARK                            x       y       z     vdW  Elec       q    Type
REMARK                         _______ _______ _______ _____ _____    ______ ____
ROOT
ATOM      1  C   UNL     1       0.586  10.740  19.289  0.00  0.00    +0.000 C 
ATOM      2  C   UNL     1       1.645  10.692  18.186  0.00  0.00    +0.000 C 
ATOM      3  O   UNL     1       1.822   9.390  17.633  0.00  0.00    +0.000 OA
ATOM      4  C   UNL     1       1.851   8.427  18.605  0.00  0.00    +0.000 A 
ATOM      5  C   UNL     1       2.264   7.159  18.199  0.00  0.00    +0.000 A 
ATOM      6  C   UNL     1       2.333   6.083  19.102  0.00  0.00    +0.000 A 
ATOM      7  C   UNL     1       1.991   6.348  20.441  0.00  0.00    +0.000 A 
ATOM      8  C   UNL     1       1.532   7.609  20.843  0.00  0.00    +0.000 A 
ATOM      9  C   UNL     1       1.430   8.639  19.913  0.00  0.00    +0.000 A 
ATOM     10  O   UNL     1       0.871   9.808  20.348  0.00  0.00    +0.000 OA
ENDROOT
BRANCH   1  16
ATOM     11  C   UNL     1      -1.899  12.566  19.989  0.00  0.00    +0.000 C 
ATOM     12  N   UNL     1      -1.589  11.947  18.704  0.00  0.00    +0.000 NA
ATOM     13  C   UNL     1      -2.818  11.662  17.955  0.00  0.00    +0.000 C 
ATOM     14  C   UNL     1      -2.349  10.719  16.866  0.00  0.00    +0.000 C 
ATOM     15  C   UNL     1      -1.166   9.973  17.473  0.00  0.00    +0.000 C 
ATOM     16  C   UNL     1      -0.897  10.643  18.832  0.00  0.00    +0.000 C 
ENDBRANCH   1  16
BRANCH   6  17
ATOM     17  C   UNL     1       2.714   4.727  18.638  0.00  0.00    +0.000 A 
ATOM     18  C   UNL     1       3.908   4.506  17.927  0.00  0.00    +0.000 A 
ATOM     19  C   UNL     1       4.238   3.245  17.419  0.00  0.00    +0.000 A 
ATOM     20  C   UNL     1       3.388   2.168  17.632  0.00  0.00    +0.000 A 
ATOM     21  C   UNL     1       2.211   2.349  18.350  0.00  0.00    +0.000 A 
ATOM     22  C   UNL     1       1.877   3.616  18.842  0.00  0.00    +0.000 A 
ENDBRANCH   6  17
TORSDOF 2
ENDMDL
