MODEL 1
REMARK VINA RESULT:      -7.9      0.000      0.000
REMARK  Name = 
REMARK  0 active torsions:
REMARK  status: ('A' for Active; 'I' for Inactive)
REMARK                            x       y       z     vdW  Elec       q    Type
REMARK                         _______ _______ _______ _____ _____    ______ ____
ROOT
ATOM      1  C   UNL     1      -0.768  10.010  23.075  0.00  0.00    +0.000 A 
ATOM      2  C   UNL     1      -0.219   9.042  22.194  0.00  0.00    +0.000 A 
ATOM      3  C   UNL     1       0.351   9.724  21.134  0.00  0.00    +0.000 A 
ATOM      4  C   UNL     1       1.095   9.303  19.949  0.00  0.00    +0.000 A 
ATOM      5  N   UNL     1       1.441   7.972  19.740  0.00  0.00    +0.000 N 
ATOM      6  C   UNL     1       2.324   7.412  18.862  0.00  0.00    +0.000 C 
ATOM      7  N   UNL     1       3.057   8.021  17.990  0.00  0.00    +0.000 NA
ATOM      8  C   UNL     1       3.762   6.953  17.301  0.00  0.00    +0.000 C 
ATOM      9  C   UNL     1       3.677   5.759  18.247  0.00  0.00    +0.000 C 
ATOM     10  C   UNL     1       4.861   5.684  19.259  0.00  0.00    +0.000 C 
ATOM     11  N   UNL     1       5.676   4.448  19.096  0.00  0.00    +0.000 NA
ATOM     12  C   UNL     1       4.815   3.266  19.327  0.00  0.00    +0.000 C 
ATOM     13  C   UNL     1       3.661   3.198  18.321  0.00  0.00    +0.000 C 
ATOM     14  C   UNL     1       3.685   4.445  17.420  0.00  0.00    +0.000 C 
ATOM     15  C   UNL     1       5.047   4.376  16.676  0.00  0.00    +0.000 C 
ATOM     16  C   UNL     1       6.189   4.401  17.709  0.00  0.00    +0.000 C 
ATOM     17  O   UNL     1       2.457   6.046  18.956  0.00  0.00    +0.000 OA
ATOM     18  N   UNL     1       1.443  10.225  19.077  0.00  0.00    +0.000 NA
ATOM     19  C   UNL     1       1.150  11.552  19.302  0.00  0.00    +0.000 A 
ATOM     20  C   UNL     1       0.530  11.998  20.400  0.00  0.00    +0.000 A 
ATOM     21  N   UNL     1       0.121  11.069  21.335  0.00  0.00    +0.000 N 
ATOM     22  C   UNL     1      -0.525  11.249  22.530  0.00  0.00    +0.000 A 
ATOM     23  H   UNL     1       1.065   7.315  20.403  0.00  0.00    +0.000 HD
ENDROOT
TORSDOF 0
ENDMDL
MODEL 2
REMARK VINA RESULT:      -7.8      2.089      7.259
REMARK  Name = 
REMARK  0 active torsions:
REMARK  status: ('A' for Active; 'I' for Inactive)
REMARK                            x       y       z     vdW  Elec       q    Type
REMARK                         _______ _______ _______ _____ _____    ______ ____
ROOT
ATOM      1  C   UNL     1       2.267   2.990  21.402  0.00  0.00    +0.000 A 
ATOM      2  C   UNL     1       2.142   4.401  21.321  0.00  0.00    +0.000 A 
ATOM      3  C   UNL     1       2.577   4.783  20.064  0.00  0.00    +0.000 A 
ATOM      4  C   UNL     1       2.652   6.068  19.372  0.00  0.00    +0.000 A 
ATOM      5  N   UNL     1       2.156   7.235  19.945  0.00  0.00    +0.000 N 
ATOM      6  C   UNL     1       1.900   8.455  19.390  0.00  0.00    +0.000 C 
ATOM      7  N   UNL     1       2.078   8.813  18.161  0.00  0.00    +0.000 NA
ATOM      8  C   UNL     1       1.691  10.214  18.132  0.00  0.00    +0.000 C 
ATOM      9  C   UNL     1       0.830  10.405  19.377  0.00  0.00    +0.000 C 
ATOM     10  C   UNL     1      -0.686  10.137  19.129  0.00  0.00    +0.000 C 
ATOM     11  N   UNL     1      -1.526  11.343  19.369  0.00  0.00    +0.000 NA
ATOM     12  C   UNL     1      -1.372  11.769  20.778  0.00  0.00    +0.000 C 
ATOM     13  C   UNL     1       0.078  12.141  21.104  0.00  0.00    +0.000 C 
ATOM     14  C   UNL     1       0.971  11.866  19.882  0.00  0.00    +0.000 C 
ATOM     15  C   UNL     1       0.419  12.795  18.765  0.00  0.00    +0.000 C 
ATOM     16  C   UNL     1      -1.051  12.432  18.487  0.00  0.00    +0.000 C 
ATOM     17  O   UNL     1       1.361   9.388  20.248  0.00  0.00    +0.000 OA
ATOM     18  N   UNL     1       3.199   6.096  18.176  0.00  0.00    +0.000 NA
ATOM     19  C   UNL     1       3.645   4.936  17.580  0.00  0.00    +0.000 A 
ATOM     20  C   UNL     1       3.540   3.727  18.141  0.00  0.00    +0.000 A 
ATOM     21  N   UNL     1       2.996   3.646  19.407  0.00  0.00    +0.000 N 
ATOM     22  C   UNL     1       2.776   2.551  20.202  0.00  0.00    +0.000 A 
ATOM     23  H   UNL     1       1.834   7.151  20.894  0.00  0.00    +0.000 HD
ENDROOT
TORSDOF 0
ENDMDL
MODEL 3
REMARK VINA RESULT:      -7.7      1.615      2.963
REMARK  Name = 
REMARK  0 active torsions:
REMARK  status: ('A' for Active; 'I' for Inactive)
REMARK                            x       y       z     vdW  Elec       q    Type
REMARK                         _______ _______ _______ _____ _____    ______ ____
ROOT
ATOM      1  C   UNL     1       0.391  12.271  18.959  0.00  0.00    +0.000 A 
ATOM      2  C   UNL     1       1.120  11.053  18.944  0.00  0.00    +0.000 A 
ATOM      3  C   UNL     1       0.725  10.321  20.049  0.00  0.00    +0.000 A 
ATOM      4  C   UNL     1       1.071   8.994  20.555  0.00  0.00    +0.000 A 
ATOM      5  N   UNL     1       1.911   8.141  19.846  0.00  0.00    +0.000 N 
ATOM      6  C   UNL     1       2.155   6.807  20.002  0.00  0.00    +0.000 C 
ATOM      7  N   UNL     1       1.645   6.012  20.883  0.00  0.00    +0.000 NA
ATOM      8  C   UNL     1       2.280   4.731  20.626  0.00  0.00    +0.000 C 
ATOM      9  C   UNL     1       2.810   4.839  19.200  0.00  0.00    +0.000 C 
ATOM     10  C   UNL     1       1.784   4.376  18.120  0.00  0.00    +0.000 C 
ATOM     11  N   UNL     1       2.269   3.208  17.334  0.00  0.00    +0.000 NA
ATOM     12  C   UNL     1       3.518   3.581  16.633  0.00  0.00    +0.000 C 
ATOM     13  C   UNL     1       4.627   3.972  17.615  0.00  0.00    +0.000 C 
ATOM     14  C   UNL     1       4.077   3.953  19.052  0.00  0.00    +0.000 C 
ATOM     15  C   UNL     1       3.641   2.482  19.295  0.00  0.00    +0.000 C 
ATOM     16  C   UNL     1       2.560   2.098  18.268  0.00  0.00    +0.000 C 
ATOM     17  O   UNL     1       3.022   6.259  19.084  0.00  0.00    +0.000 OA
ATOM     18  N   UNL     1       0.558   8.617  21.705  0.00  0.00    +0.000 NA
ATOM     19  C   UNL     1      -0.317   9.435  22.387  0.00  0.00    +0.000 A 
ATOM     20  C   UNL     1      -0.717  10.629  21.938  0.00  0.00    +0.000 A 
ATOM     21  N   UNL     1      -0.188  11.084  20.747  0.00  0.00    +0.000 N 
ATOM     22  C   UNL     1      -0.421  12.252  20.069  0.00  0.00    +0.000 A 
ATOM     23  H   UNL     1       2.334   8.532  19.021  0.00  0.00    +0.000 HD
ENDROOT
TORSDOF 0
ENDMDL
MODEL 4
REMARK VINA RESULT:      -7.3      2.046      2.180
REMARK  Name = 
REMARK  0 active torsions:
REMARK  status: ('A' for Active; 'I' for Inactive)
REMARK                            x       y       z     vdW  Elec       q    Type
REMARK                         _______ _______ _______ _____ _____    ______ ____
ROOT
ATOM      1  C   UNL     1      -1.831  11.669  19.372  0.00  0.00    +0.000 A 
ATOM      2  C   UNL     1      -1.172  10.488  18.943  0.00  0.00    +0.000 A 
ATOM      3  C   UNL     1       0.133  10.830  18.637  0.00  0.00    +0.000 A 
ATOM      4  C   UNL     1       1.297  10.066  18.192  0.00  0.00    +0.000 A 
ATOM      5  N   UNL     1       1.257   8.681  18.071  0.00  0.00    +0.000 N 
ATOM      6  C   UNL     1       2.266   7.774  17.923  0.00  0.00    +0.000 C 
ATOM      7  N   UNL     1       3.533   8.014  17.853  0.00  0.00    +0.000 NA
ATOM      8  C   UNL     1       4.138   6.707  17.654  0.00  0.00    +0.000 C 
ATOM      9  C   UNL     1       3.079   5.713  18.119  0.00  0.00    +0.000 C 
ATOM     10  C   UNL     1       3.181   5.362  19.635  0.00  0.00    +0.000 C 
ATOM     11  N   UNL     1       3.458   3.918  19.870  0.00  0.00    +0.000 NA
ATOM     12  C   UNL     1       2.354   3.114  19.299  0.00  0.00    +0.000 C 
ATOM     13  C   UNL     1       2.223   3.322  17.786  0.00  0.00    +0.000 C 
ATOM     14  C   UNL     1       3.227   4.390  17.321  0.00  0.00    +0.000 C 
ATOM     15  C   UNL     1       4.625   3.801  17.661  0.00  0.00    +0.000 C 
ATOM     16  C   UNL     1       4.716   3.560  19.179  0.00  0.00    +0.000 C 
ATOM     17  O   UNL     1       1.869   6.457  17.879  0.00  0.00    +0.000 OA
ATOM     18  N   UNL     1       2.400  10.726  17.914  0.00  0.00    +0.000 NA
ATOM     19  C   UNL     1       2.465  12.091  18.083  0.00  0.00    +0.000 A 
ATOM     20  C   UNL     1       1.451  12.829  18.548  0.00  0.00    +0.000 A 
ATOM     21  N   UNL     1       0.261  12.189  18.832  0.00  0.00    +0.000 N 
ATOM     22  C   UNL     1      -0.918  12.696  19.313  0.00  0.00    +0.000 A 
ATOM     23  H   UNL     1       0.356   8.257  18.215  0.00  0.00    +0.000 HD
ENDROOT
TORSDOF 0
ENDMDL
MODEL 5
REMARK VINA RESULT:      -7.1      1.973      7.383
REMARK  Name = 
REMARK  0 active torsions:
REMARK  status: ('A' for Active; 'I' for Inactive)
REMARK                            x       y       z     vdW  Elec       q    Type
REMARK                         _______ _______ _______ _____ _____    ______ ____
ROOT
ATOM      1  C   UNL     1       1.878   2.506  19.075  0.00  0.00    +0.000 A 
ATOM      2  C   UNL     1       1.723   3.882  19.383  0.00  0.00    +0.000 A 
ATOM      3  C   UNL     1       2.578   4.590  18.557  0.00  0.00    +0.000 A 
ATOM      4  C   UNL     1       2.844   6.015  18.365  0.00  0.00    +0.000 A 
ATOM      5  N   UNL     1       2.112   6.989  19.036  0.00  0.00    +0.000 N 
ATOM      6  C   UNL     1       2.023   8.334  18.822  0.00  0.00    +0.000 C 
ATOM      7  N   UNL     1       2.631   9.028  17.918  0.00  0.00    +0.000 NA
ATOM      8  C   UNL     1       2.215  10.397  18.171  0.00  0.00    +0.000 C 
ATOM      9  C   UNL     1       0.941  10.269  19.001  0.00  0.00    +0.000 C 
ATOM     10  C   UNL     1      -0.356  10.194  18.139  0.00  0.00    +0.000 C 
ATOM     11  N   UNL     1      -1.283  11.329  18.401  0.00  0.00    +0.000 NA
ATOM     12  C   UNL     1      -1.690  11.304  19.824  0.00  0.00    +0.000 C 
ATOM     13  C   UNL     1      -0.488  11.460  20.762  0.00  0.00    +0.000 C 
ATOM     14  C   UNL     1       0.810  11.500  19.938  0.00  0.00    +0.000 C 
ATOM     15  C   UNL     1       0.672  12.755  19.033  0.00  0.00    +0.000 C 
ATOM     16  C   UNL     1      -0.566  12.595  18.132  0.00  0.00    +0.000 C 
ATOM     17  O   UNL     1       1.157   9.004  19.656  0.00  0.00    +0.000 OA
ATOM     18  N   UNL     1       3.798   6.358  17.527  0.00  0.00    +0.000 NA
ATOM     19  C   UNL     1       4.491   5.401  16.820  0.00  0.00    +0.000 A 
ATOM     20  C   UNL     1       4.243   4.090  16.909  0.00  0.00    +0.000 A 
ATOM     21  N   UNL     1       3.269   3.673  17.793  0.00  0.00    +0.000 N 
ATOM     22  C   UNL     1       2.821   2.410  18.078  0.00  0.00    +0.000 A 
ATOM     23  H   UNL     1       1.462   6.649  19.724  0.00  0.00    +0.000 HD
ENDROOT
TORSDOF 0
ENDMDL
MODEL 6
REMARK VINA RESULT:      -6.9      1.803      7.781
REMARK  Name = 
REMARK  0 active torsions:
REMARK  status: ('A' for Active; 'I' for Inactive)
REMARK                            x       y       z     vdW  Elec       q    Type
REMARK                         _______ _______ _______ _____ _____    ______ ____
ROOT
ATOM      1  C   UNL     1       5.619   6.069  16.261  0.00  0.00    +0.000 A 
ATOM      2  C   UNL     1       4.550   6.957  16.549  0.00  0.00    +0.000 A 
ATOM      3  C   UNL     1       3.973   6.537  17.735  0.00  0.00    +0.000 A 
ATOM      4  C   UNL     1       2.882   7.051  18.561  0.00  0.00    +0.000 A 
ATOM      5  N   UNL     1       2.236   8.244  18.255  0.00  0.00    +0.000 N 
ATOM      6  C   UNL     1       1.393   9.013  19.005  0.00  0.00    +0.000 C 
ATOM      7  N   UNL     1       0.988   8.788  20.210  0.00  0.00    +0.000 NA
ATOM      8  C   UNL     1       0.081   9.887  20.498  0.00  0.00    +0.000 C 
ATOM      9  C   UNL     1       0.446  10.967  19.484  0.00  0.00    +0.000 C 
ATOM     10  C   UNL     1       1.551  11.944  19.989  0.00  0.00    +0.000 C 
ATOM     11  N   UNL     1       1.072  13.352  20.079  0.00  0.00    +0.000 NA
ATOM     12  C   UNL     1       0.651  13.808  18.736  0.00  0.00    +0.000 C 
ATOM     13  C   UNL     1      -0.499  12.961  18.182  0.00  0.00    +0.000 C 
ATOM     14  C   UNL     1      -0.814  11.813  19.157  0.00  0.00    +0.000 C 
ATOM     15  C   UNL     1      -1.252  12.515  20.473  0.00  0.00    +0.000 C 
ATOM     16  C   UNL     1      -0.097  13.394  20.986  0.00  0.00    +0.000 C 
ATOM     17  O   UNL     1       0.965  10.173  18.400  0.00  0.00    +0.000 OA
ATOM     18  N   UNL     1       2.527   6.354  19.619  0.00  0.00    +0.000 NA
ATOM     19  C   UNL     1       3.196   5.199  19.958  0.00  0.00    +0.000 A 
ATOM     20  C   UNL     1       4.242   4.721  19.274  0.00  0.00    +0.000 A 
ATOM     21  N   UNL     1       4.640   5.401  18.141  0.00  0.00    +0.000 N 
ATOM     22  C   UNL     1       5.663   5.134  17.269  0.00  0.00    +0.000 A 
ATOM     23  H   UNL     1       2.503   8.673  17.385  0.00  0.00    +0.000 HD
ENDROOT
TORSDOF 0
ENDMDL
MODEL 7
REMARK VINA RESULT:      -6.9      5.536      7.091
REMARK  Name = 
REMARK  0 active torsions:
REMARK  status: ('A' for Active; 'I' for Inactive)
REMARK                            x       y       z     vdW  Elec       q    Type
REMARK                         _______ _______ _______ _____ _____    ______ ____
ROOT
ATOM      1  C   UNL     1       8.808  14.130  17.700  0.00  0.00    +0.000 A 
ATOM      2  C   UNL     1       8.661  12.766  17.337  0.00  0.00    +0.000 A 
ATOM      3  C   UNL     1       8.972  12.006  18.450  0.00  0.00    +0.000 A 
ATOM      4  C   UNL     1       8.968  10.570  18.723  0.00  0.00    +0.000 A 
ATOM      5  N   UNL     1       8.516   9.651  17.782  0.00  0.00    +0.000 N 
ATOM      6  C   UNL     1       8.196   8.330  17.915  0.00  0.00    +0.000 C 
ATOM      7  N   UNL     1       8.254   7.612  18.987  0.00  0.00    +0.000 NA
ATOM      8  C   UNL     1       7.852   6.284  18.555  0.00  0.00    +0.000 C 
ATOM      9  C   UNL     1       7.109   6.511  17.242  0.00  0.00    +0.000 C 
ATOM     10  C   UNL     1       5.579   6.750  17.427  0.00  0.00    +0.000 C 
ATOM     11  N   UNL     1       4.753   5.705  16.760  0.00  0.00    +0.000 NA
ATOM     12  C   UNL     1       5.034   5.719  15.308  0.00  0.00    +0.000 C 
ATOM     13  C   UNL     1       6.505   5.407  15.010  0.00  0.00    +0.000 C 
ATOM     14  C   UNL     1       7.282   5.266  16.330  0.00  0.00    +0.000 C 
ATOM     15  C   UNL     1       6.618   4.065  17.060  0.00  0.00    +0.000 C 
ATOM     16  C   UNL     1       5.131   4.384  17.307  0.00  0.00    +0.000 C 
ATOM     17  O   UNL     1       7.731   7.722  16.771  0.00  0.00    +0.000 OA
ATOM     18  N   UNL     1       9.400  10.162  19.897  0.00  0.00    +0.000 NA
ATOM     19  C   UNL     1       9.799  11.069  20.853  0.00  0.00    +0.000 A 
ATOM     20  C   UNL     1       9.761  12.395  20.679  0.00  0.00    +0.000 A 
ATOM     21  N   UNL     1       9.340  12.875  19.456  0.00  0.00    +0.000 N 
ATOM     22  C   UNL     1       9.206  14.166  19.016  0.00  0.00    +0.000 A 
ATOM     23  H   UNL     1       8.286  10.029  16.879  0.00  0.00    +0.000 HD
ENDROOT
TORSDOF 0
ENDMDL
MODEL 8
REMARK VINA RESULT:      -6.7      1.295      1.582
REMARK  Name = 
REMARK  0 active torsions:
REMARK  status: ('A' for Active; 'I' for Inactive)
REMARK                            x       y       z     vdW  Elec       q    Type
REMARK                         _______ _______ _______ _____ _____    ______ ____
ROOT
ATOM      1  C   UNL     1      -0.290  12.111  21.698  0.00  0.00    +0.000 A 
ATOM      2  C   UNL     1       0.007  10.880  21.058  0.00  0.00    +0.000 A 
ATOM      3  C   UNL     1       0.879  11.154  20.020  0.00  0.00    +0.000 A 
ATOM      4  C   UNL     1       1.571  10.321  19.038  0.00  0.00    +0.000 A 
ATOM      5  N   UNL     1       1.486   8.933  19.071  0.00  0.00    +0.000 N 
ATOM      6  C   UNL     1       2.228   7.984  18.431  0.00  0.00    +0.000 C 
ATOM      7  N   UNL     1       3.210   8.174  17.613  0.00  0.00    +0.000 NA
ATOM      8  C   UNL     1       3.600   6.837  17.198  0.00  0.00    +0.000 C 
ATOM      9  C   UNL     1       3.030   5.915  18.272  0.00  0.00    +0.000 C 
ATOM     10  C   UNL     1       4.008   5.669  19.462  0.00  0.00    +0.000 C 
ATOM     11  N   UNL     1       4.389   4.236  19.602  0.00  0.00    +0.000 NA
ATOM     12  C   UNL     1       3.172   3.433  19.851  0.00  0.00    +0.000 C 
ATOM     13  C   UNL     1       2.174   3.537  18.692  0.00  0.00    +0.000 C 
ATOM     14  C   UNL     1       2.700   4.535  17.645  0.00  0.00    +0.000 C 
ATOM     15  C   UNL     1       4.038   3.923  17.145  0.00  0.00    +0.000 C 
ATOM     16  C   UNL     1       5.006   3.787  18.334  0.00  0.00    +0.000 C 
ATOM     17  O   UNL     1       1.899   6.681  18.730  0.00  0.00    +0.000 OA
ATOM     18  N   UNL     1       2.291  10.921  18.115  0.00  0.00    +0.000 NA
ATOM     19  C   UNL     1       2.423  12.292  18.107  0.00  0.00    +0.000 A 
ATOM     20  C   UNL     1       1.866  13.095  19.020  0.00  0.00    +0.000 A 
ATOM     21  N   UNL     1       1.079  12.519  19.996  0.00  0.00    +0.000 N 
ATOM     22  C   UNL     1       0.400  13.099  21.035  0.00  0.00    +0.000 A 
ATOM     23  H   UNL     1       0.847   8.552  19.749  0.00  0.00    +0.000 HD
ENDROOT
TORSDOF 0
ENDMDL
MODEL 9
REMARK VINA RESULT:      -6.6      7.225      8.501
REMARK  Name = 
REMARK  0 active torsions:
REMARK  status: ('A' for Active; 'I' for Inactive)
REMARK                            x       y       z     vdW  Elec       q    Type
REMARK                         _______ _______ _______ _____ _____    ______ ____
ROOT
ATOM      1  C   UNL     1       1.214  12.877  18.545  0.00  0.00    +0.000 A 
ATOM      2  C   UNL     1       2.596  12.879  18.225  0.00  0.00    +0.000 A 
ATOM      3  C   UNL     1       3.021  14.196  18.235  0.00  0.00    +0.000 A 
ATOM      4  C   UNL     1       4.318  14.838  18.032  0.00  0.00    +0.000 A 
ATOM      5  N   UNL     1       5.478  14.093  17.846  0.00  0.00    +0.000 N 
ATOM      6  C   UNL     1       6.790  14.469  17.891  0.00  0.00    +0.000 C 
ATOM      7  N   UNL     1       7.261  15.651  18.118  0.00  0.00    +0.000 NA
ATOM      8  C   UNL     1       8.701  15.493  18.005  0.00  0.00    +0.000 C 
ATOM      9  C   UNL     1       8.944  13.997  18.178  0.00  0.00    +0.000 C 
ATOM     10  C   UNL     1       9.165  13.572  19.662  0.00  0.00    +0.000 C 
ATOM     11  N   UNL     1      10.513  12.980  19.892  0.00  0.00    +0.000 NA
ATOM     12  C   UNL     1      10.659  11.769  19.054  0.00  0.00    +0.000 C 
ATOM     13  C   UNL     1      10.543  12.093  17.561  0.00  0.00    +0.000 C 
ATOM     14  C   UNL     1      10.209  13.584  17.379  0.00  0.00    +0.000 C 
ATOM     15  C   UNL     1      11.414  14.343  17.998  0.00  0.00    +0.000 C 
ATOM     16  C   UNL     1      11.537  13.967  19.487  0.00  0.00    +0.000 C 
ATOM     17  O   UNL     1       7.697  13.452  17.704  0.00  0.00    +0.000 OA
ATOM     18  N   UNL     1       4.365  16.152  18.037  0.00  0.00    +0.000 NA
ATOM     19  C   UNL     1       3.230  16.896  18.273  0.00  0.00    +0.000 A 
ATOM     20  C   UNL     1       2.033  16.359  18.529  0.00  0.00    +0.000 A 
ATOM     21  N   UNL     1       1.923  14.983  18.511  0.00  0.00    +0.000 N 
ATOM     22  C   UNL     1       0.832  14.185  18.736  0.00  0.00    +0.000 A 
ATOM     23  H   UNL     1       5.349  13.099  17.766  0.00  0.00    +0.000 HD
ENDROOT
TORSDOF 0
ENDMDL
