MODEL 1
REMARK VINA RESULT:      -8.2      0.000      0.000
REMARK  Name = 
REMARK  7 active torsions:
REMARK  status: ('A' for Active; 'I' for Inactive)
REMARK    1  A    between atoms: C_1  and  O_2
REMARK    2  A    between atoms: O_2  and  C_3
REMARK    3  A    between atoms: C_5  and  N_6
REMARK    4  A    between atoms: N_6  and  C_7
REMARK    5  A    between atoms: C_7  and  C_8
REMARK    6  A    between atoms: N_17  and  C_18
REMARK    7  A    between atoms: C_23  and  N_24
REMARK                            x       y       z     vdW  Elec       q    Type
REMARK                         _______ _______ _______ _____ _____    ______ ____
ROOT
ATOM      1  N   UNL     1       1.855   7.141  20.330  0.00  0.00    +0.000 N 
ATOM      2  H   UNL     1       0.920   6.843  20.060  0.00  0.00    +0.000 HD
ENDROOT
BRANCH   1   5
ATOM      3  C   UNL     1       4.510   5.034  18.770  0.00  0.00    +0.000 A 
ATOM      4  C   UNL     1       3.557   5.540  19.672  0.00  0.00    +0.000 A 
ATOM      5  C   UNL     1       2.802   6.690  19.391  0.00  0.00    +0.000 A 
ATOM      6  C   UNL     1       3.111   7.404  18.237  0.00  0.00    +0.000 A 
ATOM      7  C   UNL     1       4.070   6.935  17.338  0.00  0.00    +0.000 A 
ATOM      8  C   UNL     1       4.765   5.740  17.583  0.00  0.00    +0.000 A 
BRANCH   8   9
ATOM      9  N   UNL     1       5.685   5.302  16.591  0.00  0.00    +0.000 N 
ATOM     10  C   UNL     1       5.670   4.228  15.737  0.00  0.00    +0.000 A 
ATOM     11  N   UNL     1       6.725   4.272  14.954  0.00  0.00    +0.000 NA
ATOM     12  N   UNL     1       7.423   5.381  15.332  0.00  0.00    +0.000 NA
ATOM     13  N   UNL     1       6.809   6.017  16.317  0.00  0.00    +0.000 NA
ENDBRANCH   8   9
BRANCH   3  15
ATOM     14  C   UNL     1       4.522   2.823  19.649  0.00  0.00    +0.000 C 
ATOM     15  O   UNL     1       5.231   3.902  19.043  0.00  0.00    +0.000 OA
ENDBRANCH   3  15
ENDBRANCH   1   5
BRANCH   1  16
ATOM     16  C   UNL     1       1.886   8.585  20.606  0.00  0.00    +0.000 C 
BRANCH  16  17
ATOM     17  C   UNL     1       0.623   9.213  20.110  0.00  0.00    +0.000 A 
ATOM     18  C   UNL     1       0.261   9.401  18.829  0.00  0.00    +0.000 A 
ATOM     19  C   UNL     1      -0.925  10.207  18.537  0.00  0.00    +0.000 A 
ATOM     20  C   UNL     1      -1.535  10.199  17.284  0.00  0.00    +0.000 A 
ATOM     21  C   UNL     1      -2.632  11.031  17.051  0.00  0.00    +0.000 A 
ATOM     22 CL   UNL     1      -3.435  10.970  15.530  0.00  0.00    +0.000 Cl
ATOM     23  C   UNL     1      -3.090  11.904  18.042  0.00  0.00    +0.000 A 
ATOM     24  C   UNL     1      -2.458  11.938  19.282  0.00  0.00    +0.000 A 
ATOM     25  C   UNL     1      -1.393  11.079  19.539  0.00  0.00    +0.000 A 
ATOM     26  N   UNL     1      -0.831  10.996  20.843  0.00  0.00    +0.000 N 
ATOM     27  C   UNL     1      -0.012  12.139  21.234  0.00  0.00    +0.000 C 
ATOM     28  C   UNL     1      -0.227   9.789  21.189  0.00  0.00    +0.000 A 
ATOM     29  O   UNL     1      -0.215   9.335  22.328  0.00  0.00    +0.000 OA
ENDBRANCH  16  17
ENDBRANCH   1  16
TORSDOF 5
ENDMDL
MODEL 2
REMARK VINA RESULT:      -8.2      2.500      2.842
REMARK  Name = 
REMARK  7 active torsions:
REMARK  status: ('A' for Active; 'I' for Inactive)
REMARK    1  A    between atoms: C_1  and  O_2
REMARK    2  A    between atoms: O_2  and  C_3
REMARK    3  A    between atoms: C_5  and  N_6
REMARK    4  A    between atoms: N_6  and  C_7
REMARK    5  A    between atoms: C_7  and  C_8
REMARK    6  A    between atoms: N_17  and  C_18
REMARK    7  A    between atoms: C_23  and  N_24
REMARK                            x       y       z     vdW  Elec       q    Type
REMARK                         _______ _______ _______ _____ _____    ______ ____
ROOT
ATOM      1  N   UNL     1       1.310   8.768  20.919  0.00  0.00    +0.000 N 
ATOM      2  H   UNL     1       0.405   8.693  21.381  0.00  0.00    +0.000 HD
ENDROOT
BRANCH   1   5
ATOM      3  C   UNL     1       1.599   5.089  20.362  0.00  0.00    +0.000 A 
ATOM      4  C   UNL     1       1.300   6.340  20.933  0.00  0.00    +0.000 A 
ATOM      5  C   UNL     1       1.646   7.547  20.304  0.00  0.00    +0.000 A 
ATOM      6  C   UNL     1       2.417   7.479  19.147  0.00  0.00    +0.000 A 
ATOM      7  C   UNL     1       2.747   6.249  18.575  0.00  0.00    +0.000 A 
ATOM      8  C   UNL     1       2.328   5.045  19.163  0.00  0.00    +0.000 A 
BRANCH   8   9
ATOM      9  N   UNL     1       2.658   3.838  18.489  0.00  0.00    +0.000 N 
ATOM     10  C   UNL     1       3.750   3.012  18.568  0.00  0.00    +0.000 A 
ATOM     11  N   UNL     1       3.577   1.972  17.783  0.00  0.00    +0.000 NA
ATOM     12  N   UNL     1       2.362   2.154  17.189  0.00  0.00    +0.000 NA
ATOM     13  N   UNL     1       1.791   3.274  17.604  0.00  0.00    +0.000 NA
ENDBRANCH   8   9
BRANCH   3  15
ATOM     14  C   UNL     1       2.200   3.345  21.865  0.00  0.00    +0.000 C 
ATOM     15  O   UNL     1       1.244   3.916  20.973  0.00  0.00    +0.000 OA
ENDBRANCH   3  15
ENDBRANCH   1   5
BRANCH   1  16
ATOM     16  C   UNL     1       1.354   9.945  20.041  0.00  0.00    +0.000 C 
BRANCH  16  17
ATOM     17  C   UNL     1       0.014  10.147  19.411  0.00  0.00    +0.000 A 
ATOM     18  C   UNL     1      -0.311   9.961  18.120  0.00  0.00    +0.000 A 
ATOM     19  C   UNL     1      -1.626  10.393  17.648  0.00  0.00    +0.000 A 
ATOM     20  C   UNL     1      -2.151   9.971  16.427  0.00  0.00    +0.000 A 
ATOM     21  C   UNL     1      -3.389  10.462  16.008  0.00  0.00    +0.000 A 
ATOM     22 CL   UNL     1      -4.076   9.886  14.538  0.00  0.00    +0.000 Cl
ATOM     23  C   UNL     1      -4.081  11.405  16.773  0.00  0.00    +0.000 A 
ATOM     24  C   UNL     1      -3.540  11.854  17.975  0.00  0.00    +0.000 A 
ATOM     25  C   UNL     1      -2.329  11.337  18.424  0.00  0.00    +0.000 A 
ATOM     26  N   UNL     1      -1.834  11.673  19.714  0.00  0.00    +0.000 N 
ATOM     27  C   UNL     1      -1.308  13.028  19.838  0.00  0.00    +0.000 C 
ATOM     28  C   UNL     1      -1.000  10.740  20.328  0.00  0.00    +0.000 A 
ATOM     29  O   UNL     1      -0.950  10.564  21.541  0.00  0.00    +0.000 OA
ENDBRANCH  16  17
ENDBRANCH   1  16
TORSDOF 5
ENDMDL
MODEL 3
REMARK VINA RESULT:      -8.0      3.511      9.421
REMARK  Name = 
REMARK  7 active torsions:
REMARK  status: ('A' for Active; 'I' for Inactive)
REMARK    1  A    between atoms: C_1  and  O_2
REMARK    2  A    between atoms: O_2  and  C_3
REMARK    3  A    between atoms: C_5  and  N_6
REMARK    4  A    between atoms: N_6  and  C_7
REMARK    5  A    between atoms: C_7  and  C_8
REMARK    6  A    between atoms: N_17  and  C_18
REMARK    7  A    between atoms: C_23  and  N_24
REMARK                            x       y       z     vdW  Elec       q    Type
REMARK                         _______ _______ _______ _____ _____    ______ ____
ROOT
ATOM      1  N   UNL     1       1.398   8.507  20.271  0.00  0.00    +0.000 N 
ATOM      2  H   UNL     1       1.143   8.500  19.285  0.00  0.00    +0.000 HD
ENDROOT
BRANCH   1   5
ATOM      3  C   UNL     1      -0.843  11.412  20.955  0.00  0.00    +0.000 A 
ATOM      4  C   UNL     1      -0.005  10.488  20.303  0.00  0.00    +0.000 A 
ATOM      5  C   UNL     1       0.578   9.405  20.980  0.00  0.00    +0.000 A 
ATOM      6  C   UNL     1       0.411   9.336  22.361  0.00  0.00    +0.000 A 
ATOM      7  C   UNL     1      -0.395  10.256  23.033  0.00  0.00    +0.000 A 
ATOM      8  C   UNL     1      -1.044  11.289  22.339  0.00  0.00    +0.000 A 
BRANCH   8   9
ATOM      9  N   UNL     1      -1.891  12.151  23.088  0.00  0.00    +0.000 N 
ATOM     10  C   UNL     1      -1.728  13.439  23.532  0.00  0.00    +0.000 A 
ATOM     11  N   UNL     1      -2.822  13.837  24.142  0.00  0.00    +0.000 NA
ATOM     12  N   UNL     1      -3.681  12.779  24.095  0.00  0.00    +0.000 NA
ATOM     13  N   UNL     1      -3.138  11.752  23.461  0.00  0.00    +0.000 NA
ENDBRANCH   8   9
BRANCH   3  15
ATOM     14  C   UNL     1      -2.487  12.132  19.393  0.00  0.00    +0.000 C 
ATOM     15  O   UNL     1      -1.421  12.457  20.285  0.00  0.00    +0.000 OA
ENDBRANCH   3  15
ENDBRANCH   1   5
BRANCH   1  16
ATOM     16  C   UNL     1       1.443   7.140  20.810  0.00  0.00    +0.000 C 
BRANCH  16  17
ATOM     17  C   UNL     1       2.333   6.297  19.955  0.00  0.00    +0.000 A 
ATOM     18  C   UNL     1       2.929   6.657  18.805  0.00  0.00    +0.000 A 
ATOM     19  C   UNL     1       3.609   5.636  18.007  0.00  0.00    +0.000 A 
ATOM     20  C   UNL     1       4.494   5.966  16.982  0.00  0.00    +0.000 A 
ATOM     21  C   UNL     1       5.071   4.947  16.222  0.00  0.00    +0.000 A 
ATOM     22 CL   UNL     1       6.222   5.344  15.005  0.00  0.00    +0.000 Cl
ATOM     23  C   UNL     1       4.732   3.610  16.445  0.00  0.00    +0.000 A 
ATOM     24  C   UNL     1       3.821   3.282  17.445  0.00  0.00    +0.000 A 
ATOM     25  C   UNL     1       3.276   4.287  18.239  0.00  0.00    +0.000 A 
ATOM     26  N   UNL     1       2.459   3.961  19.356  0.00  0.00    +0.000 N 
ATOM     27  C   UNL     1       1.119   3.490  19.022  0.00  0.00    +0.000 C 
ATOM     28  C   UNL     1       2.434   4.880  20.404  0.00  0.00    +0.000 A 
ATOM     29  O   UNL     1       2.297   4.567  21.582  0.00  0.00    +0.000 OA
ENDBRANCH  16  17
ENDBRANCH   1  16
TORSDOF 5
ENDMDL
MODEL 4
REMARK VINA RESULT:      -8.0      2.388      2.947
REMARK  Name = 
REMARK  7 active torsions:
REMARK  status: ('A' for Active; 'I' for Inactive)
REMARK    1  A    between atoms: C_1  and  O_2
REMARK    2  A    between atoms: O_2  and  C_3
REMARK    3  A    between atoms: C_5  and  N_6
REMARK    4  A    between atoms: N_6  and  C_7
REMARK    5  A    between atoms: C_7  and  C_8
REMARK    6  A    between atoms: N_17  and  C_18
REMARK    7  A    between atoms: C_23  and  N_24
REMARK                            x       y       z     vdW  Elec       q    Type
REMARK                         _______ _______ _______ _____ _____    ______ ____
ROOT
ATOM      1  N   UNL     1       1.407   8.722  21.047  0.00  0.00    +0.000 N 
ATOM      2  H   UNL     1       0.505   8.677  21.518  0.00  0.00    +0.000 HD
ENDROOT
BRANCH   1   5
ATOM      3  C   UNL     1       2.776   6.241  18.618  0.00  0.00    +0.000 A 
ATOM      4  C   UNL     1       2.432   7.450  19.251  0.00  0.00    +0.000 A 
ATOM      5  C   UNL     1       1.712   7.481  20.456  0.00  0.00    +0.000 A 
ATOM      6  C   UNL     1       1.226   6.275  20.954  0.00  0.00    +0.000 A 
ATOM      7  C   UNL     1       1.532   5.065  20.330  0.00  0.00    +0.000 A 
ATOM      8  C   UNL     1       2.323   5.032  19.170  0.00  0.00    +0.000 A 
BRANCH   8   9
ATOM      9  N   UNL     1       2.637   3.756  18.628  0.00  0.00    +0.000 N 
ATOM     10  C   UNL     1       3.629   2.854  18.921  0.00  0.00    +0.000 A 
ATOM     11  N   UNL     1       3.478   1.777  18.184  0.00  0.00    +0.000 NA
ATOM     12  N   UNL     1       2.383   2.010  17.404  0.00  0.00    +0.000 NA
ATOM     13  N   UNL     1       1.861   3.199  17.660  0.00  0.00    +0.000 NA
ENDBRANCH   8   9
BRANCH   3  15
ATOM     14  C   UNL     1       4.911   6.311  17.571  0.00  0.00    +0.000 C 
ATOM     15  O   UNL     1       3.492   6.218  17.452  0.00  0.00    +0.000 OA
ENDBRANCH   3  15
ENDBRANCH   1   5
BRANCH   1  16
ATOM     16  C   UNL     1       1.467   9.879  20.141  0.00  0.00    +0.000 C 
BRANCH  16  17
ATOM     17  C   UNL     1       0.123  10.099  19.526  0.00  0.00    +0.000 A 
ATOM     18  C   UNL     1      -0.213   9.942  18.234  0.00  0.00    +0.000 A 
ATOM     19  C   UNL     1      -1.530  10.390  17.782  0.00  0.00    +0.000 A 
ATOM     20  C   UNL     1      -2.067   9.996  16.557  0.00  0.00    +0.000 A 
ATOM     21  C   UNL     1      -3.305  10.501  16.158  0.00  0.00    +0.000 A 
ATOM     22 CL   UNL     1      -4.006   9.959  14.682  0.00  0.00    +0.000 Cl
ATOM     23  C   UNL     1      -3.986  11.431  16.947  0.00  0.00    +0.000 A 
ATOM     24  C   UNL     1      -3.435  11.852  18.154  0.00  0.00    +0.000 A 
ATOM     25  C   UNL     1      -2.222  11.320  18.583  0.00  0.00    +0.000 A 
ATOM     26  N   UNL     1      -1.716  11.627  19.876  0.00  0.00    +0.000 N 
ATOM     27  C   UNL     1      -1.182  12.977  20.024  0.00  0.00    +0.000 C 
ATOM     28  C   UNL     1      -0.881  10.677  20.464  0.00  0.00    +0.000 A 
ATOM     29  O   UNL     1      -0.823  10.476  21.672  0.00  0.00    +0.000 OA
ENDBRANCH  16  17
ENDBRANCH   1  16
TORSDOF 5
ENDMDL
MODEL 5
REMARK VINA RESULT:      -7.9      3.513      9.336
REMARK  Name = 
REMARK  7 active torsions:
REMARK  status: ('A' for Active; 'I' for Inactive)
REMARK    1  A    between atoms: C_1  and  O_2
REMARK    2  A    between atoms: O_2  and  C_3
REMARK    3  A    between atoms: C_5  and  N_6
REMARK    4  A    between atoms: N_6  and  C_7
REMARK    5  A    between atoms: C_7  and  C_8
REMARK    6  A    between atoms: N_17  and  C_18
REMARK    7  A    between atoms: C_23  and  N_24
REMARK                            x       y       z     vdW  Elec       q    Type
REMARK                         _______ _______ _______ _____ _____    ______ ____
ROOT
ATOM      1  N   UNL     1       1.795   8.250  20.645  0.00  0.00    +0.000 N 
ATOM      2  H   UNL     1       2.768   8.396  20.905  0.00  0.00    +0.000 HD
ENDROOT
BRANCH   1   5
ATOM      3  C   UNL     1      -0.076  11.448  21.092  0.00  0.00    +0.000 A 
ATOM      4  C   UNL     1       0.741  10.434  20.556  0.00  0.00    +0.000 A 
ATOM      5  C   UNL     1       0.977   9.230  21.238  0.00  0.00    +0.000 A 
ATOM      6  C   UNL     1       0.483   9.109  22.534  0.00  0.00    +0.000 A 
ATOM      7  C   UNL     1      -0.308  10.111  23.096  0.00  0.00    +0.000 A 
ATOM      8  C   UNL     1      -0.612  11.279  22.378  0.00  0.00    +0.000 A 
BRANCH   8   9
ATOM      9  N   UNL     1      -1.471  12.226  23.001  0.00  0.00    +0.000 N 
ATOM     10  C   UNL     1      -2.818  12.210  23.261  0.00  0.00    +0.000 A 
ATOM     11  N   UNL     1      -3.155  13.300  23.913  0.00  0.00    +0.000 NA
ATOM     12  N   UNL     1      -2.004  14.021  24.053  0.00  0.00    +0.000 NA
ATOM     13  N   UNL     1      -0.977  13.387  23.510  0.00  0.00    +0.000 NA
ENDBRANCH   8   9
BRANCH   3  15
ATOM     14  C   UNL     1      -1.292  12.558  19.375  0.00  0.00    +0.000 C 
ATOM     15  O   UNL     1      -0.316  12.613  20.414  0.00  0.00    +0.000 OA
ENDBRANCH   3  15
ENDBRANCH   1   5
BRANCH   1  16
ATOM     16  C   UNL     1       1.657   8.117  19.187  0.00  0.00    +0.000 C 
BRANCH  16  17
ATOM     17  C   UNL     1       2.629   7.099  18.686  0.00  0.00    +0.000 A 
ATOM     18  C   UNL     1       3.491   7.236  17.662  0.00  0.00    +0.000 A 
ATOM     19  C   UNL     1       4.230   6.064  17.194  0.00  0.00    +0.000 A 
ATOM     20  C   UNL     1       5.343   6.174  16.362  0.00  0.00    +0.000 A 
ATOM     21  C   UNL     1       5.973   5.015  15.905  0.00  0.00    +0.000 A 
ATOM     22 CL   UNL     1       7.392   5.146  14.940  0.00  0.00    +0.000 Cl
ATOM     23  C   UNL     1       5.472   3.752  16.231  0.00  0.00    +0.000 A 
ATOM     24  C   UNL     1       4.339   3.642  17.033  0.00  0.00    +0.000 A 
ATOM     25  C   UNL     1       3.730   4.790  17.531  0.00  0.00    +0.000 A 
ATOM     26  N   UNL     1       2.664   4.694  18.467  0.00  0.00    +0.000 N 
ATOM     27  C   UNL     1       1.390   4.255  17.906  0.00  0.00    +0.000 C 
ATOM     28  C   UNL     1       2.498   5.767  19.341  0.00  0.00    +0.000 A 
ATOM     29  O   UNL     1       2.080   5.654  20.488  0.00  0.00    +0.000 OA
ENDBRANCH  16  17
ENDBRANCH   1  16
TORSDOF 5
ENDMDL
MODEL 6
REMARK VINA RESULT:      -7.9      1.417      1.611
REMARK  Name = 
REMARK  7 active torsions:
REMARK  status: ('A' for Active; 'I' for Inactive)
REMARK    1  A    between atoms: C_1  and  O_2
REMARK    2  A    between atoms: O_2  and  C_3
REMARK    3  A    between atoms: C_5  and  N_6
REMARK    4  A    between atoms: N_6  and  C_7
REMARK    5  A    between atoms: C_7  and  C_8
REMARK    6  A    between atoms: N_17  and  C_18
REMARK    7  A    between atoms: C_23  and  N_24
REMARK                            x       y       z     vdW  Elec       q    Type
REMARK                         _______ _______ _______ _____ _____    ______ ____
ROOT
ATOM      1  N   UNL     1       1.535   7.909  18.833  0.00  0.00    +0.000 N 
ATOM      2  H   UNL     1       0.720   7.416  18.472  0.00  0.00    +0.000 HD
ENDROOT
BRANCH   1   5
ATOM      3  C   UNL     1       4.207   5.304  18.877  0.00  0.00    +0.000 A 
ATOM      4  C   UNL     1       3.049   6.043  19.180  0.00  0.00    +0.000 A 
ATOM      5  C   UNL     1       2.714   7.220  18.491  0.00  0.00    +0.000 A 
ATOM      6  C   UNL     1       3.634   7.719  17.573  0.00  0.00    +0.000 A 
ATOM      7  C   UNL     1       4.802   7.017  17.274  0.00  0.00    +0.000 A 
ATOM      8  C   UNL     1       5.093   5.797  17.905  0.00  0.00    +0.000 A 
BRANCH   8   9
ATOM      9  N   UNL     1       6.274   5.117  17.503  0.00  0.00    +0.000 N 
ATOM     10  C   UNL     1       6.720   4.702  16.274  0.00  0.00    +0.000 A 
ATOM     11  N   UNL     1       7.911   4.160  16.396  0.00  0.00    +0.000 NA
ATOM     12  N   UNL     1       8.214   4.221  17.725  0.00  0.00    +0.000 NA
ATOM     13  N   UNL     1       7.238   4.798  18.409  0.00  0.00    +0.000 NA
ENDBRANCH   8   9
BRANCH   3  15
ATOM     14  C   UNL     1       3.422   3.354  19.991  0.00  0.00    +0.000 C 
ATOM     15  O   UNL     1       4.519   4.148  19.541  0.00  0.00    +0.000 OA
ENDBRANCH   3  15
ENDBRANCH   1   5
BRANCH   1  16
ATOM     16  C   UNL     1       1.503   9.327  18.446  0.00  0.00    +0.000 C 
BRANCH  16  17
ATOM     17  C   UNL     1       0.182   9.916  18.820  0.00  0.00    +0.000 A 
ATOM     18  C   UNL     1      -0.889  10.074  18.023  0.00  0.00    +0.000 A 
ATOM     19  C   UNL     1      -2.032  10.845  18.513  0.00  0.00    +0.000 A 
ATOM     20  C   UNL     1      -3.277  10.802  17.888  0.00  0.00    +0.000 A 
ATOM     21  C   UNL     1      -4.314  11.603  18.371  0.00  0.00    +0.000 A 
ATOM     22 CL   UNL     1      -5.874  11.498  17.651  0.00  0.00    +0.000 Cl
ATOM     23  C   UNL     1      -4.101  12.480  19.438  0.00  0.00    +0.000 A 
ATOM     24  C   UNL     1      -2.848  12.550  20.039  0.00  0.00    +0.000 A 
ATOM     25  C   UNL     1      -1.821  11.723  19.595  0.00  0.00    +0.000 A 
ATOM     26  N   UNL     1      -0.581  11.675  20.289  0.00  0.00    +0.000 N 
ATOM     27  C   UNL     1       0.274  12.843  20.105  0.00  0.00    +0.000 C 
ATOM     28  C   UNL     1       0.145  10.488  20.195  0.00  0.00    +0.000 A 
ATOM     29  O   UNL     1       0.860  10.054  21.091  0.00  0.00    +0.000 OA
ENDBRANCH  16  17
ENDBRANCH   1  16
TORSDOF 5
ENDMDL
MODEL 7
REMARK VINA RESULT:      -7.8      2.280      2.897
REMARK  Name = 
REMARK  7 active torsions:
REMARK  status: ('A' for Active; 'I' for Inactive)
REMARK    1  A    between atoms: C_1  and  O_2
REMARK    2  A    between atoms: O_2  and  C_3
REMARK    3  A    between atoms: C_5  and  N_6
REMARK    4  A    between atoms: N_6  and  C_7
REMARK    5  A    between atoms: C_7  and  C_8
REMARK    6  A    between atoms: N_17  and  C_18
REMARK    7  A    between atoms: C_23  and  N_24
REMARK                            x       y       z     vdW  Elec       q    Type
REMARK                         _______ _______ _______ _____ _____    ______ ____
ROOT
ATOM      1  N   UNL     1       2.269   9.213  18.348  0.00  0.00    +0.000 N 
ATOM      2  H   UNL     1       3.101   9.782  18.199  0.00  0.00    +0.000 HD
ENDROOT
BRANCH   1   5
ATOM      3  C   UNL     1       3.821   5.877  17.723  0.00  0.00    +0.000 A 
ATOM      4  C   UNL     1       3.421   7.218  17.580  0.00  0.00    +0.000 A 
ATOM      5  C   UNL     1       2.628   7.865  18.542  0.00  0.00    +0.000 A 
ATOM      6  C   UNL     1       2.131   7.101  19.594  0.00  0.00    +0.000 A 
ATOM      7  C   UNL     1       2.493   5.762  19.743  0.00  0.00    +0.000 A 
ATOM      8  C   UNL     1       3.354   5.141  18.824  0.00  0.00    +0.000 A 
BRANCH   8   9
ATOM      9  N   UNL     1       3.719   3.791  19.077  0.00  0.00    +0.000 N 
ATOM     10  C   UNL     1       3.135   2.601  18.724  0.00  0.00    +0.000 A 
ATOM     11  N   UNL     1       3.878   1.602  19.143  0.00  0.00    +0.000 NA
ATOM     12  N   UNL     1       4.940   2.171  19.785  0.00  0.00    +0.000 NA
ATOM     13  N   UNL     1       4.862   3.492  19.753  0.00  0.00    +0.000 NA
ENDBRANCH   8   9
BRANCH   3  15
ATOM     14  C   UNL     1       5.248   6.099  15.831  0.00  0.00    +0.000 C 
ATOM     15  O   UNL     1       4.608   5.257  16.789  0.00  0.00    +0.000 OA
ENDBRANCH   3  15
ENDBRANCH   1   5
BRANCH   1  16
ATOM     16  C   UNL     1       1.420   9.792  19.399  0.00  0.00    +0.000 C 
BRANCH  16  17
ATOM     17  C   UNL     1       0.039   9.997  18.867  0.00  0.00    +0.000 A 
ATOM     18  C   UNL     1      -0.366   9.863  17.592  0.00  0.00    +0.000 A 
ATOM     19  C   UNL     1      -1.715  10.292  17.226  0.00  0.00    +0.000 A 
ATOM     20  C   UNL     1      -2.312   9.915  16.023  0.00  0.00    +0.000 A 
ATOM     21  C   UNL     1      -3.582  10.402  15.707  0.00  0.00    +0.000 A 
ATOM     22 CL   UNL     1      -4.353   9.880  14.260  0.00  0.00    +0.000 Cl
ATOM     23  C   UNL     1      -4.236  11.298  16.556  0.00  0.00    +0.000 A 
ATOM     24  C   UNL     1      -3.625  11.703  17.740  0.00  0.00    +0.000 A 
ATOM     25  C   UNL     1      -2.380  11.188  18.087  0.00  0.00    +0.000 A 
ATOM     26  N   UNL     1      -1.808  11.475  19.356  0.00  0.00    +0.000 N 
ATOM     27  C   UNL     1      -1.295  12.833  19.508  0.00  0.00    +0.000 C 
ATOM     28  C   UNL     1      -0.921  10.531  19.873  0.00  0.00    +0.000 A 
ATOM     29  O   UNL     1      -0.791  10.303  21.071  0.00  0.00    +0.000 OA
ENDBRANCH  16  17
ENDBRANCH   1  16
TORSDOF 5
ENDMDL
MODEL 8
REMARK VINA RESULT:      -7.8      6.009      8.842
REMARK  Name = 
REMARK  7 active torsions:
REMARK  status: ('A' for Active; 'I' for Inactive)
REMARK    1  A    between atoms: C_1  and  O_2
REMARK    2  A    between atoms: O_2  and  C_3
REMARK    3  A    between atoms: C_5  and  N_6
REMARK    4  A    between atoms: N_6  and  C_7
REMARK    5  A    between atoms: C_7  and  C_8
REMARK    6  A    between atoms: N_17  and  C_18
REMARK    7  A    between atoms: C_23  and  N_24
REMARK                            x       y       z     vdW  Elec       q    Type
REMARK                         _______ _______ _______ _____ _____    ______ ____
ROOT
ATOM      1  N   UNL     1       7.372   8.147  17.227  0.00  0.00    +0.000 N 
ATOM      2  H   UNL     1       6.400   8.390  17.044  0.00  0.00    +0.000 HD
ENDROOT
BRANCH   1   5
ATOM      3  C   UNL     1       8.613  11.604  17.889  0.00  0.00    +0.000 A 
ATOM      4  C   UNL     1       7.985  10.495  17.292  0.00  0.00    +0.000 A 
ATOM      5  C   UNL     1       8.031   9.214  17.866  0.00  0.00    +0.000 A 
ATOM      6  C   UNL     1       8.834   9.035  18.989  0.00  0.00    +0.000 A 
ATOM      7  C   UNL     1       9.487  10.114  19.584  0.00  0.00    +0.000 A 
ATOM      8  C   UNL     1       9.371  11.409  19.055  0.00  0.00    +0.000 A 
BRANCH   8   9
ATOM      9  N   UNL     1      10.022  12.463  19.753  0.00  0.00    +0.000 N 
ATOM     10  C   UNL     1      11.200  13.126  19.521  0.00  0.00    +0.000 A 
ATOM     11  N   UNL     1      11.358  14.074  20.417  0.00  0.00    +0.000 NA
ATOM     12  N   UNL     1      10.270  13.997  21.236  0.00  0.00    +0.000 NA
ATOM     13  N   UNL     1       9.450  13.032  20.849  0.00  0.00    +0.000 NA
ENDBRANCH   8   9
BRANCH   3  15
ATOM     14  C   UNL     1       7.397  13.634  17.644  0.00  0.00    +0.000 C 
ATOM     15  O   UNL     1       8.550  12.853  17.333  0.00  0.00    +0.000 OA
ENDBRANCH   3  15
ENDBRANCH   1   5
BRANCH   1  16
ATOM     16  C   UNL     1       7.468   6.851  17.913  0.00  0.00    +0.000 C 
BRANCH  16  17
ATOM     17  C   UNL     1       6.129   6.188  17.914  0.00  0.00    +0.000 A 
ATOM     18  C   UNL     1       5.475   5.683  18.974  0.00  0.00    +0.000 A 
ATOM     19  C   UNL     1       4.259   4.899  18.753  0.00  0.00    +0.000 A 
ATOM     20  C   UNL     1       3.370   4.604  19.785  0.00  0.00    +0.000 A 
ATOM     21  C   UNL     1       2.255   3.807  19.522  0.00  0.00    +0.000 A 
ATOM     22 CL   UNL     1       1.115   3.502  20.774  0.00  0.00    +0.000 Cl
ATOM     23  C   UNL     1       2.050   3.263  18.251  0.00  0.00    +0.000 A 
ATOM     24  C   UNL     1       2.957   3.528  17.228  0.00  0.00    +0.000 A 
ATOM     25  C   UNL     1       4.047   4.359  17.469  0.00  0.00    +0.000 A 
ATOM     26  N   UNL     1       4.900   4.758  16.404  0.00  0.00    +0.000 N 
ATOM     27  C   UNL     1       5.795   3.718  15.910  0.00  0.00    +0.000 C 
ATOM     28  C   UNL     1       5.561   5.977  16.553  0.00  0.00    +0.000 A 
ATOM     29  O   UNL     1       5.839   6.719  15.617  0.00  0.00    +0.000 OA
ENDBRANCH  16  17
ENDBRANCH   1  16
TORSDOF 5
ENDMDL
MODEL 9
REMARK VINA RESULT:      -7.8      2.347      2.737
REMARK  Name = 
REMARK  7 active torsions:
REMARK  status: ('A' for Active; 'I' for Inactive)
REMARK    1  A    between atoms: C_1  and  O_2
REMARK    2  A    between atoms: O_2  and  C_3
REMARK    3  A    between atoms: C_5  and  N_6
REMARK    4  A    between atoms: N_6  and  C_7
REMARK    5  A    between atoms: C_7  and  C_8
REMARK    6  A    between atoms: N_17  and  C_18
REMARK    7  A    between atoms: C_23  and  N_24
REMARK                            x       y       z     vdW  Elec       q    Type
REMARK                         _______ _______ _______ _____ _____    ______ ____
ROOT
ATOM      1  N   UNL     1       2.290   8.957  18.442  0.00  0.00    +0.000 N 
ATOM      2  H   UNL     1       3.123   9.532  18.331  0.00  0.00    +0.000 HD
ENDROOT
BRANCH   1   5
ATOM      3  C   UNL     1       2.542   5.514  19.858  0.00  0.00    +0.000 A 
ATOM      4  C   UNL     1       2.229   6.875  19.689  0.00  0.00    +0.000 A 
ATOM      5  C   UNL     1       2.644   7.600  18.560  0.00  0.00    +0.000 A 
ATOM      6  C   UNL     1       3.496   6.968  17.659  0.00  0.00    +0.000 A 
ATOM      7  C   UNL     1       3.841   5.625  17.819  0.00  0.00    +0.000 A 
ATOM      8  C   UNL     1       3.356   4.880  18.905  0.00  0.00    +0.000 A 
BRANCH   8   9
ATOM      9  N   UNL     1       3.708   3.504  18.966  0.00  0.00    +0.000 N 
ATOM     10  C   UNL     1       3.248   2.409  18.279  0.00  0.00    +0.000 A 
ATOM     11  N   UNL     1       3.925   1.343  18.643  0.00  0.00    +0.000 NA
ATOM     12  N   UNL     1       4.814   1.770  19.585  0.00  0.00    +0.000 NA
ATOM     13  N   UNL     1       4.700   3.073  19.791  0.00  0.00    +0.000 NA
ENDBRANCH   8   9
BRANCH   3  15
ATOM     14  C   UNL     1       1.032   3.908  20.752  0.00  0.00    +0.000 C 
ATOM     15  O   UNL     1       2.120   4.809  20.953  0.00  0.00    +0.000 OA
ENDBRANCH   3  15
ENDBRANCH   1   5
BRANCH   1  16
ATOM     16  C   UNL     1       1.435   9.478  19.520  0.00  0.00    +0.000 C 
BRANCH  16  17
ATOM     17  C   UNL     1       0.070   9.759  18.981  0.00  0.00    +0.000 A 
ATOM     18  C   UNL     1      -0.321   9.701  17.696  0.00  0.00    +0.000 A 
ATOM     19  C   UNL     1      -1.649  10.196  17.334  0.00  0.00    +0.000 A 
ATOM     20  C   UNL     1      -2.242   9.900  16.108  0.00  0.00    +0.000 A 
ATOM     21  C   UNL     1      -3.489  10.447  15.800  0.00  0.00    +0.000 A 
ATOM     22 CL   UNL     1      -4.258  10.024  14.320  0.00  0.00    +0.000 Cl
ATOM     23  C   UNL     1      -4.122  11.325  16.684  0.00  0.00    +0.000 A 
ATOM     24  C   UNL     1      -3.514  11.650  17.893  0.00  0.00    +0.000 A 
ATOM     25  C   UNL     1      -2.293  11.073  18.230  0.00  0.00    +0.000 A 
ATOM     26  N   UNL     1      -1.729  11.278  19.519  0.00  0.00    +0.000 N 
ATOM     27  C   UNL     1      -1.169  12.607  19.742  0.00  0.00    +0.000 C 
ATOM     28  C   UNL     1      -0.884  10.278  20.000  0.00  0.00    +0.000 A 
ATOM     29  O   UNL     1      -0.779   9.988  21.186  0.00  0.00    +0.000 OA
ENDBRANCH  16  17
ENDBRANCH   1  16
TORSDOF 5
ENDMDL
