MODEL 1
REMARK VINA RESULT:      -8.0      0.000      0.000
REMARK  Name = 
REMARK  3 active torsions:
REMARK  status: ('A' for Active; 'I' for Inactive)
REMARK    1  A    between atoms: C_2  and  C_19
REMARK    2  A    between atoms: N_3  and  C_4
REMARK    3  A    between atoms: C_8  and  C_9
REMARK                            x       y       z     vdW  Elec       q    Type
REMARK                         _______ _______ _______ _____ _____    ______ ____
ROOT
ATOM      1  C   UNL     1       6.839   6.487  16.715  0.00  0.00    +0.000 A 
ATOM      2  C   UNL     1       7.213   5.774  15.577  0.00  0.00    +0.000 A 
ATOM      3  C   UNL     1       6.643   4.525  15.301  0.00  0.00    +0.000 A 
ATOM      4  C   UNL     1       5.671   3.982  16.147  0.00  0.00    +0.000 A 
ATOM      5  C   UNL     1       5.284   4.681  17.293  0.00  0.00    +0.000 A 
ATOM      6  C   UNL     1       5.906   5.914  17.577  0.00  0.00    +0.000 A 
ENDROOT
BRANCH   5   7
ATOM      7  C   UNL     1       4.250   4.238  18.232  0.00  0.00    +0.000 A 
ATOM      8  N   UNL     1       4.530   3.621  19.366  0.00  0.00    +0.000 NA
ATOM      9  C   UNL     1       3.338   3.354  19.966  0.00  0.00    +0.000 A 
ATOM     10  C   UNL     1       3.097   2.698  21.178  0.00  0.00    +0.000 A 
ATOM     11  C   UNL     1       1.774   2.505  21.576  0.00  0.00    +0.000 A 
ATOM     12  C   UNL     1       0.718   2.973  20.787  0.00  0.00    +0.000 A 
ATOM     13  C   UNL     1       0.946   3.655  19.581  0.00  0.00    +0.000 A 
ATOM     14  C   UNL     1       2.280   3.822  19.200  0.00  0.00    +0.000 A 
ATOM     15  N   UNL     1       2.886   4.408  18.112  0.00  0.00    +0.000 N 
ATOM     16  H   UNL     1       2.413   4.879  17.357  0.00  0.00    +0.000 HD
ENDBRANCH   5   7
BRANCH   1  19
ATOM     17  O   UNL     1       8.528   7.234  18.958  0.00  0.00    +0.000 OA
ATOM     18  C   UNL     1       8.124   8.062  18.145  0.00  0.00    +0.000 C 
ATOM     19  N   UNL     1       7.328   7.766  17.054  0.00  0.00    +0.000 N 
ATOM     20  H   UNL     1       7.221   8.480  16.347  0.00  0.00    +0.000 HD
BRANCH  18  21
ATOM     21  C   UNL     1       8.531   9.467  18.279  0.00  0.00    +0.000 A 
ATOM     22  C   UNL     1       9.349   9.930  19.373  0.00  0.00    +0.000 A 
ATOM     23  C   UNL     1       9.585  11.284  19.344  0.00  0.00    +0.000 A 
ATOM     24  S   UNL     1       8.849  12.023  17.993  0.00  0.00    +0.000 S 
ATOM     25  C   UNL     1       8.201  10.528  17.454  0.00  0.00    +0.000 A 
ENDBRANCH  18  21
ENDBRANCH   1  19
TORSDOF 3
ENDMDL
MODEL 2
REMARK VINA RESULT:      -7.9      0.443      1.478
REMARK  Name = 
REMARK  3 active torsions:
REMARK  status: ('A' for Active; 'I' for Inactive)
REMARK    1  A    between atoms: C_2  and  C_19
REMARK    2  A    between atoms: N_3  and  C_4
REMARK    3  A    between atoms: C_8  and  C_9
REMARK                            x       y       z     vdW  Elec       q    Type
REMARK                         _______ _______ _______ _____ _____    ______ ____
ROOT
ATOM      1  C   UNL     1       6.895   6.533  16.785  0.00  0.00    +0.000 A 
ATOM      2  C   UNL     1       7.248   5.866  15.614  0.00  0.00    +0.000 A 
ATOM      3  C   UNL     1       6.688   4.619  15.308  0.00  0.00    +0.000 A 
ATOM      4  C   UNL     1       5.746   4.033  16.160  0.00  0.00    +0.000 A 
ATOM      5  C   UNL     1       5.381   4.686  17.339  0.00  0.00    +0.000 A 
ATOM      6  C   UNL     1       5.994   5.917  17.650  0.00  0.00    +0.000 A 
ENDROOT
BRANCH   5   7
ATOM      7  C   UNL     1       4.378   4.195  18.289  0.00  0.00    +0.000 A 
ATOM      8  N   UNL     1       3.083   4.404  18.135  0.00  0.00    +0.000 NA
ATOM      9  C   UNL     1       2.467   3.821  19.199  0.00  0.00    +0.000 A 
ATOM     10  C   UNL     1       1.103   3.782  19.506  0.00  0.00    +0.000 A 
ATOM     11  C   UNL     1       0.706   3.149  20.685  0.00  0.00    +0.000 A 
ATOM     12  C   UNL     1       1.652   2.557  21.527  0.00  0.00    +0.000 A 
ATOM     13  C   UNL     1       3.022   2.567  21.219  0.00  0.00    +0.000 A 
ATOM     14  C   UNL     1       3.393   3.219  20.040  0.00  0.00    +0.000 A 
ATOM     15  N   UNL     1       4.603   3.445  19.425  0.00  0.00    +0.000 N 
ATOM     16  H   UNL     1       5.500   3.119  19.750  0.00  0.00    +0.000 HD
ENDBRANCH   5   7
BRANCH   1  19
ATOM     17  O   UNL     1       8.593   7.232  19.038  0.00  0.00    +0.000 OA
ATOM     18  C   UNL     1       8.177   8.079  18.250  0.00  0.00    +0.000 C 
ATOM     19  N   UNL     1       7.377   7.806  17.157  0.00  0.00    +0.000 N 
ATOM     20  H   UNL     1       7.259   8.539  16.471  0.00  0.00    +0.000 HD
BRANCH  18  21
ATOM     21  C   UNL     1       8.574   9.483  18.421  0.00  0.00    +0.000 A 
ATOM     22  C   UNL     1       8.154  10.517  17.508  0.00  0.00    +0.000 A 
ATOM     23  C   UNL     1       8.664  11.757  17.815  0.00  0.00    +0.000 A 
ATOM     24  S   UNL     1       9.639  11.708  19.214  0.00  0.00    +0.000 S 
ATOM     25  C   UNL     1       9.389  10.020  19.402  0.00  0.00    +0.000 A 
ENDBRANCH  18  21
ENDBRANCH   1  19
TORSDOF 3
ENDMDL
MODEL 3
REMARK VINA RESULT:      -7.9      0.533      1.185
REMARK  Name = 
REMARK  3 active torsions:
REMARK  status: ('A' for Active; 'I' for Inactive)
REMARK    1  A    between atoms: C_2  and  C_19
REMARK    2  A    between atoms: N_3  and  C_4
REMARK    3  A    between atoms: C_8  and  C_9
REMARK                            x       y       z     vdW  Elec       q    Type
REMARK                         _______ _______ _______ _____ _____    ______ ____
ROOT
ATOM      1  C   UNL     1       6.920   6.431  16.590  0.00  0.00    +0.000 A 
ATOM      2  C   UNL     1       7.353   5.722  15.471  0.00  0.00    +0.000 A 
ATOM      3  C   UNL     1       6.803   4.472  15.165  0.00  0.00    +0.000 A 
ATOM      4  C   UNL     1       5.791   3.924  15.961  0.00  0.00    +0.000 A 
ATOM      5  C   UNL     1       5.345   4.619  17.086  0.00  0.00    +0.000 A 
ATOM      6  C   UNL     1       5.948   5.854  17.403  0.00  0.00    +0.000 A 
ENDROOT
BRANCH   5   7
ATOM      7  C   UNL     1       4.267   4.170  17.971  0.00  0.00    +0.000 A 
ATOM      8  N   UNL     1       3.145   3.638  17.521  0.00  0.00    +0.000 NA
ATOM      9  C   UNL     1       2.385   3.354  18.613  0.00  0.00    +0.000 A 
ATOM     10  C   UNL     1       1.102   2.798  18.665  0.00  0.00    +0.000 A 
ATOM     11  C   UNL     1       0.501   2.632  19.913  0.00  0.00    +0.000 A 
ATOM     12  C   UNL     1       1.175   3.000  21.082  0.00  0.00    +0.000 A 
ATOM     13  C   UNL     1       2.472   3.537  21.046  0.00  0.00    +0.000 A 
ATOM     14  C   UNL     1       3.045   3.705  19.783  0.00  0.00    +0.000 A 
ATOM     15  N   UNL     1       4.256   4.196  19.351  0.00  0.00    +0.000 N 
ATOM     16  H   UNL     1       5.005   4.521  19.943  0.00  0.00    +0.000 HD
ENDBRANCH   5   7
BRANCH   1  19
ATOM     17  O   UNL     1       8.472   7.185  18.928  0.00  0.00    +0.000 OA
ATOM     18  C   UNL     1       8.117   8.011  18.091  0.00  0.00    +0.000 C 
ATOM     19  N   UNL     1       7.387   7.711  16.955  0.00  0.00    +0.000 N 
ATOM     20  H   UNL     1       7.322   8.425  16.242  0.00  0.00    +0.000 HD
BRANCH  18  21
ATOM     21  C   UNL     1       8.513   9.417  18.246  0.00  0.00    +0.000 A 
ATOM     22  C   UNL     1       9.359   9.862  19.326  0.00  0.00    +0.000 A 
ATOM     23  C   UNL     1       9.581  11.219  19.322  0.00  0.00    +0.000 A 
ATOM     24  S   UNL     1       8.797  11.982  18.013  0.00  0.00    +0.000 S 
ATOM     25  C   UNL     1       8.147  10.493  17.458  0.00  0.00    +0.000 A 
ENDBRANCH  18  21
ENDBRANCH   1  19
TORSDOF 3
ENDMDL
MODEL 4
REMARK VINA RESULT:      -7.7      4.239      6.258
REMARK  Name = 
REMARK  3 active torsions:
REMARK  status: ('A' for Active; 'I' for Inactive)
REMARK    1  A    between atoms: C_2  and  C_19
REMARK    2  A    between atoms: N_3  and  C_4
REMARK    3  A    between atoms: C_8  and  C_9
REMARK                            x       y       z     vdW  Elec       q    Type
REMARK                         _______ _______ _______ _____ _____    ______ ____
ROOT
ATOM      1  C   UNL     1       4.155   4.220  17.612  0.00  0.00    +0.000 A 
ATOM      2  C   UNL     1       4.144   3.111  18.456  0.00  0.00    +0.000 A 
ATOM      3  C   UNL     1       3.564   3.190  19.728  0.00  0.00    +0.000 A 
ATOM      4  C   UNL     1       2.963   4.375  20.165  0.00  0.00    +0.000 A 
ATOM      5  C   UNL     1       2.965   5.498  19.333  0.00  0.00    +0.000 A 
ATOM      6  C   UNL     1       3.598   5.409  18.077  0.00  0.00    +0.000 A 
ENDROOT
BRANCH   5   7
ATOM      7  C   UNL     1       2.335   6.779  19.661  0.00  0.00    +0.000 A 
ATOM      8  N   UNL     1       2.162   7.740  18.771  0.00  0.00    +0.000 NA
ATOM      9  C   UNL     1       1.563   8.771  19.426  0.00  0.00    +0.000 A 
ATOM     10  C   UNL     1       1.189  10.024  18.927  0.00  0.00    +0.000 A 
ATOM     11  C   UNL     1       0.616  10.944  19.807  0.00  0.00    +0.000 A 
ATOM     12  C   UNL     1       0.409  10.611  21.149  0.00  0.00    +0.000 A 
ATOM     13  C   UNL     1       0.757   9.349  21.657  0.00  0.00    +0.000 A 
ATOM     14  C   UNL     1       1.341   8.452  20.758  0.00  0.00    +0.000 A 
ATOM     15  N   UNL     1       1.815   7.166  20.878  0.00  0.00    +0.000 N 
ATOM     16  H   UNL     1       1.787   6.604  21.715  0.00  0.00    +0.000 HD
ENDBRANCH   5   7
BRANCH   1  19
ATOM     17  O   UNL     1       6.929   4.471  16.783  0.00  0.00    +0.000 OA
ATOM     18  C   UNL     1       6.015   4.357  15.968  0.00  0.00    +0.000 C 
ATOM     19  N   UNL     1       4.680   4.223  16.303  0.00  0.00    +0.000 N 
ATOM     20  H   UNL     1       4.043   3.939  15.571  0.00  0.00    +0.000 HD
BRANCH  18  21
ATOM     21  C   UNL     1       6.325   4.307  14.534  0.00  0.00    +0.000 A 
ATOM     22  C   UNL     1       5.558   3.511  13.608  0.00  0.00    +0.000 A 
ATOM     23  C   UNL     1       6.033   3.564  12.318  0.00  0.00    +0.000 A 
ATOM     24  S   UNL     1       7.393   4.586  12.189  0.00  0.00    +0.000 S 
ATOM     25  C   UNL     1       7.356   4.946  13.867  0.00  0.00    +0.000 A 
ENDBRANCH  18  21
ENDBRANCH   1  19
TORSDOF 3
ENDMDL
MODEL 5
REMARK VINA RESULT:      -7.6      6.541      7.545
REMARK  Name = 
REMARK  3 active torsions:
REMARK  status: ('A' for Active; 'I' for Inactive)
REMARK    1  A    between atoms: C_2  and  C_19
REMARK    2  A    between atoms: N_3  and  C_4
REMARK    3  A    between atoms: C_8  and  C_9
REMARK                            x       y       z     vdW  Elec       q    Type
REMARK                         _______ _______ _______ _____ _____    ______ ____
ROOT
ATOM      1  C   UNL     1       0.764  10.132  19.820  0.00  0.00    +0.000 A 
ATOM      2  C   UNL     1       1.175  10.679  18.605  0.00  0.00    +0.000 A 
ATOM      3  C   UNL     1       1.990   9.945  17.735  0.00  0.00    +0.000 A 
ATOM      4  C   UNL     1       2.385   8.642  18.056  0.00  0.00    +0.000 A 
ATOM      5  C   UNL     1       1.985   8.079  19.269  0.00  0.00    +0.000 A 
ATOM      6  C   UNL     1       1.205   8.854  20.152  0.00  0.00    +0.000 A 
ENDROOT
BRANCH   5   7
ATOM      7  C   UNL     1       2.299   6.714  19.700  0.00  0.00    +0.000 A 
ATOM      8  N   UNL     1       3.213   5.968  19.104  0.00  0.00    +0.000 NA
ATOM      9  C   UNL     1       3.226   4.775  19.758  0.00  0.00    +0.000 A 
ATOM     10  C   UNL     1       4.006   3.643  19.497  0.00  0.00    +0.000 A 
ATOM     11  C   UNL     1       3.815   2.509  20.288  0.00  0.00    +0.000 A 
ATOM     12  C   UNL     1       2.877   2.515  21.325  0.00  0.00    +0.000 A 
ATOM     13  C   UNL     1       2.105   3.652  21.614  0.00  0.00    +0.000 A 
ATOM     14  C   UNL     1       2.307   4.768  20.798  0.00  0.00    +0.000 A 
ATOM     15  N   UNL     1       1.748   6.025  20.760  0.00  0.00    +0.000 N 
ATOM     16  H   UNL     1       1.053   6.381  21.399  0.00  0.00    +0.000 HD
ENDBRANCH   5   7
BRANCH   1  19
ATOM     17  O   UNL     1       1.305  12.500  21.417  0.00  0.00    +0.000 OA
ATOM     18  C   UNL     1       0.232  11.903  21.482  0.00  0.00    +0.000 C 
ATOM     19  N   UNL     1      -0.086  10.780  20.741  0.00  0.00    +0.000 N 
ATOM     20  H   UNL     1      -1.054  10.491  20.725  0.00  0.00    +0.000 HD
BRANCH  18  21
ATOM     21  C   UNL     1      -0.828  12.413  22.361  0.00  0.00    +0.000 A 
ATOM     22  C   UNL     1      -1.915  11.582  22.818  0.00  0.00    +0.000 A 
ATOM     23  C   UNL     1      -2.827  12.254  23.597  0.00  0.00    +0.000 A 
ATOM     24  S   UNL     1      -2.387  13.889  23.813  0.00  0.00    +0.000 S 
ATOM     25  C   UNL     1      -0.980  13.699  22.849  0.00  0.00    +0.000 A 
ENDBRANCH  18  21
ENDBRANCH   1  19
TORSDOF 3
ENDMDL
MODEL 6
REMARK VINA RESULT:      -7.4      4.267      6.246
REMARK  Name = 
REMARK  3 active torsions:
REMARK  status: ('A' for Active; 'I' for Inactive)
REMARK    1  A    between atoms: C_2  and  C_19
REMARK    2  A    between atoms: N_3  and  C_4
REMARK    3  A    between atoms: C_8  and  C_9
REMARK                            x       y       z     vdW  Elec       q    Type
REMARK                         _______ _______ _______ _____ _____    ______ ____
ROOT
ATOM      1  C   UNL     1       4.109   4.323  17.604  0.00  0.00    +0.000 A 
ATOM      2  C   UNL     1       4.102   3.245  18.487  0.00  0.00    +0.000 A 
ATOM      3  C   UNL     1       3.519   3.367  19.754  0.00  0.00    +0.000 A 
ATOM      4  C   UNL     1       2.912   4.565  20.147  0.00  0.00    +0.000 A 
ATOM      5  C   UNL     1       2.911   5.656  19.276  0.00  0.00    +0.000 A 
ATOM      6  C   UNL     1       3.546   5.525  18.025  0.00  0.00    +0.000 A 
ENDROOT
BRANCH   5   7
ATOM      7  C   UNL     1       2.274   6.946  19.556  0.00  0.00    +0.000 A 
ATOM      8  N   UNL     1       1.720   7.234  20.720  0.00  0.00    +0.000 NA
ATOM      9  C   UNL     1       1.227   8.497  20.614  0.00  0.00    +0.000 A 
ATOM     10  C   UNL     1       0.533   9.249  21.568  0.00  0.00    +0.000 A 
ATOM     11  C   UNL     1       0.088  10.523  21.214  0.00  0.00    +0.000 A 
ATOM     12  C   UNL     1       0.345  11.037  19.940  0.00  0.00    +0.000 A 
ATOM     13  C   UNL     1       1.061  10.304  18.980  0.00  0.00    +0.000 A 
ATOM     14  C   UNL     1       1.483   9.026  19.356  0.00  0.00    +0.000 A 
ATOM     15  N   UNL     1       2.178   8.030  18.709  0.00  0.00    +0.000 N 
ATOM     16  H   UNL     1       2.551   8.084  17.773  0.00  0.00    +0.000 HD
ENDBRANCH   5   7
BRANCH   1  19
ATOM     17  O   UNL     1       6.880   4.581  16.768  0.00  0.00    +0.000 OA
ATOM     18  C   UNL     1       5.970   4.421  15.958  0.00  0.00    +0.000 C 
ATOM     19  N   UNL     1       4.636   4.282  16.296  0.00  0.00    +0.000 N 
ATOM     20  H   UNL     1       4.004   3.959  15.576  0.00  0.00    +0.000 HD
BRANCH  18  21
ATOM     21  C   UNL     1       6.283   4.318  14.527  0.00  0.00    +0.000 A 
ATOM     22  C   UNL     1       5.504   3.507  13.625  0.00  0.00    +0.000 A 
ATOM     23  C   UNL     1       5.983   3.509  12.336  0.00  0.00    +0.000 A 
ATOM     24  S   UNL     1       7.363   4.500  12.178  0.00  0.00    +0.000 S 
ATOM     25  C   UNL     1       7.327   4.916  13.843  0.00  0.00    +0.000 A 
ENDBRANCH  18  21
ENDBRANCH   1  19
TORSDOF 3
ENDMDL
MODEL 7
REMARK VINA RESULT:      -7.3      3.925      6.884
REMARK  Name = 
REMARK  3 active torsions:
REMARK  status: ('A' for Active; 'I' for Inactive)
REMARK    1  A    between atoms: C_2  and  C_19
REMARK    2  A    between atoms: N_3  and  C_4
REMARK    3  A    between atoms: C_8  and  C_9
REMARK                            x       y       z     vdW  Elec       q    Type
REMARK                         _______ _______ _______ _____ _____    ______ ____
ROOT
ATOM      1  C   UNL     1       2.118   5.333  20.684  0.00  0.00    +0.000 A 
ATOM      2  C   UNL     1       1.945   4.133  21.371  0.00  0.00    +0.000 A 
ATOM      3  C   UNL     1       2.560   2.959  20.919  0.00  0.00    +0.000 A 
ATOM      4  C   UNL     1       3.380   2.975  19.786  0.00  0.00    +0.000 A 
ATOM      5  C   UNL     1       3.565   4.168  19.084  0.00  0.00    +0.000 A 
ATOM      6  C   UNL     1       2.896   5.326  19.528  0.00  0.00    +0.000 A 
ENDROOT
BRANCH   5   7
ATOM      7  C   UNL     1       4.428   4.320  17.910  0.00  0.00    +0.000 A 
ATOM      8  N   UNL     1       4.092   3.879  16.711  0.00  0.00    +0.000 NA
ATOM      9  C   UNL     1       5.127   4.183  15.882  0.00  0.00    +0.000 A 
ATOM     10  C   UNL     1       5.263   3.908  14.516  0.00  0.00    +0.000 A 
ATOM     11  C   UNL     1       6.444   4.288  13.878  0.00  0.00    +0.000 A 
ATOM     12  C   UNL     1       7.458   4.941  14.587  0.00  0.00    +0.000 A 
ATOM     13  C   UNL     1       7.324   5.245  15.951  0.00  0.00    +0.000 A 
ATOM     14  C   UNL     1       6.138   4.841  16.568  0.00  0.00    +0.000 A 
ATOM     15  N   UNL     1       5.658   4.943  17.854  0.00  0.00    +0.000 N 
ATOM     16  H   UNL     1       6.127   5.396  18.624  0.00  0.00    +0.000 HD
ENDBRANCH   5   7
BRANCH   1  19
ATOM     17  O   UNL     1       2.184   7.874  19.277  0.00  0.00    +0.000 OA
ATOM     18  C   UNL     1       1.643   7.753  20.374  0.00  0.00    +0.000 C 
ATOM     19  N   UNL     1       1.571   6.570  21.085  0.00  0.00    +0.000 N 
ATOM     20  H   UNL     1       0.937   6.537  21.872  0.00  0.00    +0.000 HD
BRANCH  18  21
ATOM     21  C   UNL     1       0.974   8.910  20.983  0.00  0.00    +0.000 A 
ATOM     22  C   UNL     1       0.411   8.862  22.310  0.00  0.00    +0.000 A 
ATOM     23  C   UNL     1      -0.208  10.032  22.683  0.00  0.00    +0.000 A 
ATOM     24  S   UNL     1      -0.108  11.216  21.459  0.00  0.00    +0.000 S 
ATOM     25  C   UNL     1       0.754  10.155  20.421  0.00  0.00    +0.000 A 
ENDBRANCH  18  21
ENDBRANCH   1  19
TORSDOF 3
ENDMDL
MODEL 8
REMARK VINA RESULT:      -7.3      3.897      6.805
REMARK  Name = 
REMARK  3 active torsions:
REMARK  status: ('A' for Active; 'I' for Inactive)
REMARK    1  A    between atoms: C_2  and  C_19
REMARK    2  A    between atoms: N_3  and  C_4
REMARK    3  A    between atoms: C_8  and  C_9
REMARK                            x       y       z     vdW  Elec       q    Type
REMARK                         _______ _______ _______ _____ _____    ______ ____
ROOT
ATOM      1  C   UNL     1       2.129   5.254  20.685  0.00  0.00    +0.000 A 
ATOM      2  C   UNL     1       2.011   4.080  21.426  0.00  0.00    +0.000 A 
ATOM      3  C   UNL     1       2.652   2.908  21.008  0.00  0.00    +0.000 A 
ATOM      4  C   UNL     1       3.442   2.900  19.853  0.00  0.00    +0.000 A 
ATOM      5  C   UNL     1       3.571   4.067  19.097  0.00  0.00    +0.000 A 
ATOM      6  C   UNL     1       2.877   5.222  19.510  0.00  0.00    +0.000 A 
ENDROOT
BRANCH   5   7
ATOM      7  C   UNL     1       4.399   4.195  17.895  0.00  0.00    +0.000 A 
ATOM      8  N   UNL     1       5.595   4.757  17.906  0.00  0.00    +0.000 NA
ATOM      9  C   UNL     1       6.058   4.708  16.628  0.00  0.00    +0.000 A 
ATOM     10  C   UNL     1       7.268   5.190  16.117  0.00  0.00    +0.000 A 
ATOM     11  C   UNL     1       7.510   5.058  14.749  0.00  0.00    +0.000 A 
ATOM     12  C   UNL     1       6.569   4.445  13.916  0.00  0.00    +0.000 A 
ATOM     13  C   UNL     1       5.361   3.934  14.419  0.00  0.00    +0.000 A 
ATOM     14  C   UNL     1       5.139   4.092  15.789  0.00  0.00    +0.000 A 
ATOM     15  N   UNL     1       4.101   3.747  16.625  0.00  0.00    +0.000 N 
ATOM     16  H   UNL     1       3.266   3.252  16.353  0.00  0.00    +0.000 HD
ENDBRANCH   5   7
BRANCH   1  19
ATOM     17  O   UNL     1       2.292   7.799  19.290  0.00  0.00    +0.000 OA
ATOM     18  C   UNL     1       1.673   7.675  20.345  0.00  0.00    +0.000 C 
ATOM     19  N   UNL     1       1.552   6.490  21.047  0.00  0.00    +0.000 N 
ATOM     20  H   UNL     1       0.863   6.455  21.787  0.00  0.00    +0.000 HD
BRANCH  18  21
ATOM     21  C   UNL     1       0.961   8.830  20.907  0.00  0.00    +0.000 A 
ATOM     22  C   UNL     1       0.606   8.909  22.302  0.00  0.00    +0.000 A 
ATOM     23  C   UNL     1      -0.094  10.049  22.623  0.00  0.00    +0.000 A 
ATOM     24  S   UNL     1      -0.320  11.054  21.263  0.00  0.00    +0.000 S 
ATOM     25  C   UNL     1       0.509   9.954  20.239  0.00  0.00    +0.000 A 
ENDBRANCH  18  21
ENDBRANCH   1  19
TORSDOF 3
ENDMDL
MODEL 9
REMARK VINA RESULT:      -7.2      6.421      7.583
REMARK  Name = 
REMARK  3 active torsions:
REMARK  status: ('A' for Active; 'I' for Inactive)
REMARK    1  A    between atoms: C_2  and  C_19
REMARK    2  A    between atoms: N_3  and  C_4
REMARK    3  A    between atoms: C_8  and  C_9
REMARK                            x       y       z     vdW  Elec       q    Type
REMARK                         _______ _______ _______ _____ _____    ______ ____
ROOT
ATOM      1  C   UNL     1       0.720   9.841  19.547  0.00  0.00    +0.000 A 
ATOM      2  C   UNL     1       1.275  10.450  18.423  0.00  0.00    +0.000 A 
ATOM      3  C   UNL     1       2.243   9.786  17.660  0.00  0.00    +0.000 A 
ATOM      4  C   UNL     1       2.651   8.491  17.996  0.00  0.00    +0.000 A 
ATOM      5  C   UNL     1       2.106   7.865  19.120  0.00  0.00    +0.000 A 
ATOM      6  C   UNL     1       1.170   8.572  19.901  0.00  0.00    +0.000 A 
ENDROOT
BRANCH   5   7
ATOM      7  C   UNL     1       2.422   6.501  19.549  0.00  0.00    +0.000 A 
ATOM      8  N   UNL     1       1.769   5.886  20.520  0.00  0.00    +0.000 NA
ATOM      9  C   UNL     1       2.334   4.655  20.648  0.00  0.00    +0.000 A 
ATOM     10  C   UNL     1       2.011   3.635  21.550  0.00  0.00    +0.000 A 
ATOM     11  C   UNL     1       2.763   2.460  21.518  0.00  0.00    +0.000 A 
ATOM     12  C   UNL     1       3.803   2.305  20.596  0.00  0.00    +0.000 A 
ATOM     13  C   UNL     1       4.121   3.311  19.669  0.00  0.00    +0.000 A 
ATOM     14  C   UNL     1       3.362   4.482  19.731  0.00  0.00    +0.000 A 
ATOM     15  N   UNL     1       3.380   5.661  19.022  0.00  0.00    +0.000 N 
ATOM     16  H   UNL     1       3.992   5.873  18.249  0.00  0.00    +0.000 HD
ENDBRANCH   5   7
BRANCH   1  19
ATOM     17  O   UNL     1       0.970  11.992  21.485  0.00  0.00    +0.000 OA
ATOM     18  C   UNL     1      -0.104  11.435  21.268  0.00  0.00    +0.000 C 
ATOM     19  N   UNL     1      -0.286  10.416  20.352  0.00  0.00    +0.000 N 
ATOM     20  H   UNL     1      -1.237  10.169  20.112  0.00  0.00    +0.000 HD
BRANCH  18  21
ATOM     21  C   UNL     1      -1.310  11.886  21.975  0.00  0.00    +0.000 A 
ATOM     22  C   UNL     1      -2.199  12.878  21.423  0.00  0.00    +0.000 A 
ATOM     23  C   UNL     1      -3.247  13.196  22.255  0.00  0.00    +0.000 A 
ATOM     24  S   UNL     1      -3.195  12.297  23.704  0.00  0.00    +0.000 S 
ATOM     25  C   UNL     1      -1.759  11.490  23.222  0.00  0.00    +0.000 A 
ENDBRANCH  18  21
ENDBRANCH   1  19
TORSDOF 3
ENDMDL
