MODEL 1
REMARK VINA RESULT:      -8.7      0.000      0.000
REMARK  Name = 
REMARK  10 active torsions:
REMARK  status: ('A' for Active; 'I' for Inactive)
REMARK    1  A    between atoms: C_1  and  N_2
REMARK    2  A    between atoms: N_5  and  O_6
REMARK    3  A    between atoms: N_5  and  C_7
REMARK    4  A    between atoms: C_7  and  C_8
REMARK    5  A    between atoms: C_7  and  C_9
REMARK    6  A    between atoms: C_10  and  C_11
REMARK    7  A    between atoms: C_13  and  C_14
REMARK    8  A    between atoms: N_21  and  C_22
REMARK    9  A    between atoms: C_25  and  O_26
REMARK   10  A    between atoms: O_26  and  C_27
REMARK                            x       y       z     vdW  Elec       q    Type
REMARK                         _______ _______ _______ _____ _____    ______ ____
ROOT
ATOM      1  C   UNL     1       7.251   7.563  17.536  0.00  0.00    +0.000 A 
ATOM      2  C   UNL     1       6.103   7.136  18.223  0.00  0.00    +0.000 A 
ATOM      3  C   UNL     1       5.628   6.027  17.535  0.00  0.00    +0.000 A 
ATOM      4  N   UNL     1       6.475   5.918  16.418  0.00  0.00    +0.000 N 
ATOM      5  N   UNL     1       7.542   6.769  16.505  0.00  0.00    +0.000 NA
ENDROOT
BRANCH   3   6
ATOM      6  C   UNL     1       4.515   5.121  17.897  0.00  0.00    +0.000 A 
ATOM      7  C   UNL     1       3.185   5.494  17.656  0.00  0.00    +0.000 A 
ATOM      8  C   UNL     1       2.128   4.611  17.924  0.00  0.00    +0.000 A 
ATOM      9  C   UNL     1       2.392   3.335  18.419  0.00  0.00    +0.000 A 
ATOM     10 CL   UNL     1       1.101   2.240  18.719  0.00  0.00    +0.000 Cl
ATOM     11  C   UNL     1       3.698   2.949  18.683  0.00  0.00    +0.000 A 
ATOM     12  C   UNL     1       4.737   3.860  18.478  0.00  0.00    +0.000 A 
ENDBRANCH   3   6
BRANCH   4  13
ATOM     13  C   UNL     1       6.359   5.036  15.299  0.00  0.00    +0.000 A 
ATOM     14  C   UNL     1       7.372   4.964  14.331  0.00  0.00    +0.000 A 
ATOM     15  C   UNL     1       7.147   4.302  13.124  0.00  0.00    +0.000 A 
ATOM     16  C   UNL     1       5.946   3.632  12.903  0.00  0.00    +0.000 A 
ATOM     17  C   UNL     1       4.962   3.637  13.894  0.00  0.00    +0.000 A 
ATOM     18  C   UNL     1       5.170   4.325  15.100  0.00  0.00    +0.000 A 
BRANCH  16  19
ATOM     19  O   UNL     1       5.825   3.059  11.668  0.00  0.00    +0.000 OA
ATOM     20  C   UNL     1       4.490   2.904  11.203  0.00  0.00    +0.000 C 
ENDBRANCH  16  19
ENDBRANCH   4  13
BRANCH   1  22
ATOM     21  C   UNL     1       8.763   9.628  18.187  0.00  0.00    +0.000 C 
ATOM     22  C   UNL     1       8.088   8.682  17.844  0.00  0.00    +0.000 C 
BRANCH  21  23
ATOM     23  C   UNL     1       9.613  10.731  18.700  0.00  0.00    +0.000 C 
ATOM     24  C   UNL     1       9.255  11.017  20.162  0.00  0.00    +0.000 C 
BRANCH  23  29
ATOM     25  C   UNL     1      10.989  15.224  17.246  0.00  0.00    +0.000 C 
ATOM     26  N   UNL     1      10.090  14.100  17.297  0.00  0.00    +0.000 N 
ATOM     27  C   UNL     1      10.511  12.902  17.847  0.00  0.00    +0.000 C 
ATOM     28  O   UNL     1      11.648  12.731  18.278  0.00  0.00    +0.000 OA
ATOM     29  N   UNL     1       9.534  11.924  17.832  0.00  0.00    +0.000 N 
ATOM     30  H   UNL     1       9.104  14.273  17.443  0.00  0.00    +0.000 HD
BRANCH  29  31
ATOM     31  O   UNL     1       8.228  12.348  17.476  0.00  0.00    +0.000 OA
ATOM     32  H   UNL     1       8.438  13.197  17.039  0.00  0.00    +0.000 HD
ENDBRANCH  29  31
ENDBRANCH  23  29
ENDBRANCH  21  23
ENDBRANCH   1  22
TORSDOF 7
ENDMDL
MODEL 2
REMARK VINA RESULT:      -8.7      0.343      1.283
REMARK  Name = 
REMARK  10 active torsions:
REMARK  status: ('A' for Active; 'I' for Inactive)
REMARK    1  A    between atoms: C_1  and  N_2
REMARK    2  A    between atoms: N_5  and  O_6
REMARK    3  A    between atoms: N_5  and  C_7
REMARK    4  A    between atoms: C_7  and  C_8
REMARK    5  A    between atoms: C_7  and  C_9
REMARK    6  A    between atoms: C_10  and  C_11
REMARK    7  A    between atoms: C_13  and  C_14
REMARK    8  A    between atoms: N_21  and  C_22
REMARK    9  A    between atoms: C_25  and  O_26
REMARK   10  A    between atoms: O_26  and  C_27
REMARK                            x       y       z     vdW  Elec       q    Type
REMARK                         _______ _______ _______ _____ _____    ______ ____
ROOT
ATOM      1  C   UNL     1       7.313   7.365  17.619  0.00  0.00    +0.000 A 
ATOM      2  C   UNL     1       6.156   6.886  18.255  0.00  0.00    +0.000 A 
ATOM      3  C   UNL     1       5.619   5.923  17.410  0.00  0.00    +0.000 A 
ATOM      4  N   UNL     1       6.445   5.955  16.272  0.00  0.00    +0.000 N 
ATOM      5  N   UNL     1       7.551   6.734  16.470  0.00  0.00    +0.000 NA
ENDROOT
BRANCH   3   6
ATOM      6  C   UNL     1       4.470   5.021  17.647  0.00  0.00    +0.000 A 
ATOM      7  C   UNL     1       4.676   3.667  17.943  0.00  0.00    +0.000 A 
ATOM      8  C   UNL     1       3.597   2.822  18.244  0.00  0.00    +0.000 A 
ATOM      9  C   UNL     1       2.299   3.328  18.272  0.00  0.00    +0.000 A 
ATOM     10 CL   UNL     1       0.978   2.303  18.670  0.00  0.00    +0.000 Cl
ATOM     11  C   UNL     1       2.067   4.661  17.963  0.00  0.00    +0.000 A 
ATOM     12  C   UNL     1       3.140   5.477  17.597  0.00  0.00    +0.000 A 
ENDBRANCH   3   6
BRANCH   4  13
ATOM     13  C   UNL     1       6.272   5.268  15.030  0.00  0.00    +0.000 A 
ATOM     14  C   UNL     1       5.071   4.607  14.735  0.00  0.00    +0.000 A 
ATOM     15  C   UNL     1       4.995   3.734  13.649  0.00  0.00    +0.000 A 
ATOM     16  C   UNL     1       6.086   3.577  12.797  0.00  0.00    +0.000 A 
ATOM     17  C   UNL     1       7.262   4.290  13.044  0.00  0.00    +0.000 A 
ATOM     18  C   UNL     1       7.354   5.148  14.151  0.00  0.00    +0.000 A 
BRANCH  16  19
ATOM     19  O   UNL     1       5.908   2.663  11.796  0.00  0.00    +0.000 OA
ATOM     20  C   UNL     1       4.614   2.657  11.207  0.00  0.00    +0.000 C 
ENDBRANCH  16  19
ENDBRANCH   4  13
BRANCH   1  22
ATOM     21  C   UNL     1       8.909   9.304  18.437  0.00  0.00    +0.000 C 
ATOM     22  C   UNL     1       8.206   8.383  18.083  0.00  0.00    +0.000 C 
BRANCH  21  23
ATOM     23  C   UNL     1       9.679  10.485  18.901  0.00  0.00    +0.000 C 
ATOM     24  C   UNL     1       9.210  10.882  20.305  0.00  0.00    +0.000 C 
BRANCH  23  29
ATOM     25  C   UNL     1      11.239  14.702  16.906  0.00  0.00    +0.000 C 
ATOM     26  N   UNL     1      10.272  13.659  17.135  0.00  0.00    +0.000 N 
ATOM     27  C   UNL     1      10.652  12.490  17.771  0.00  0.00    +0.000 C 
ATOM     28  O   UNL     1      11.806  12.276  18.134  0.00  0.00    +0.000 OA
ATOM     29  N   UNL     1       9.612  11.592  17.925  0.00  0.00    +0.000 N 
ATOM     30  H   UNL     1       9.315  13.919  17.333  0.00  0.00    +0.000 HD
BRANCH  29  31
ATOM     31  O   UNL     1       8.315  12.079  17.623  0.00  0.00    +0.000 OA
ATOM     32  H   UNL     1       7.938  12.130  18.524  0.00  0.00    +0.000 HD
ENDBRANCH  29  31
ENDBRANCH  23  29
ENDBRANCH  21  23
ENDBRANCH   1  22
TORSDOF 7
ENDMDL
MODEL 3
REMARK VINA RESULT:      -8.1      0.566      1.071
REMARK  Name = 
REMARK  10 active torsions:
REMARK  status: ('A' for Active; 'I' for Inactive)
REMARK    1  A    between atoms: C_1  and  N_2
REMARK    2  A    between atoms: N_5  and  O_6
REMARK    3  A    between atoms: N_5  and  C_7
REMARK    4  A    between atoms: C_7  and  C_8
REMARK    5  A    between atoms: C_7  and  C_9
REMARK    6  A    between atoms: C_10  and  C_11
REMARK    7  A    between atoms: C_13  and  C_14
REMARK    8  A    between atoms: N_21  and  C_22
REMARK    9  A    between atoms: C_25  and  O_26
REMARK   10  A    between atoms: O_26  and  C_27
REMARK                            x       y       z     vdW  Elec       q    Type
REMARK                         _______ _______ _______ _____ _____    ______ ____
ROOT
ATOM      1  C   UNL     1       7.266   7.506  17.664  0.00  0.00    +0.000 A 
ATOM      2  C   UNL     1       6.147   6.970  18.322  0.00  0.00    +0.000 A 
ATOM      3  C   UNL     1       5.650   5.972  17.494  0.00  0.00    +0.000 A 
ATOM      4  N   UNL     1       6.454   6.040  16.342  0.00  0.00    +0.000 N 
ATOM      5  N   UNL     1       7.519   6.879  16.515  0.00  0.00    +0.000 NA
ENDROOT
BRANCH   3   6
ATOM      6  C   UNL     1       4.555   5.011  17.757  0.00  0.00    +0.000 A 
ATOM      7  C   UNL     1       3.216   5.413  17.661  0.00  0.00    +0.000 A 
ATOM      8  C   UNL     1       2.172   4.491  17.833  0.00  0.00    +0.000 A 
ATOM      9  C   UNL     1       2.457   3.150  18.084  0.00  0.00    +0.000 A 
ATOM     10 CL   UNL     1       1.182   2.013  18.264  0.00  0.00    +0.000 Cl
ATOM     11  C   UNL     1       3.775   2.732  18.202  0.00  0.00    +0.000 A 
ATOM     12  C   UNL     1       4.805   3.670  18.099  0.00  0.00    +0.000 A 
ENDBRANCH   3   6
BRANCH   4  13
ATOM     13  C   UNL     1       6.299   5.334  15.108  0.00  0.00    +0.000 A 
ATOM     14  C   UNL     1       5.100   4.671  14.804  0.00  0.00    +0.000 A 
ATOM     15  C   UNL     1       5.040   3.782  13.731  0.00  0.00    +0.000 A 
ATOM     16  C   UNL     1       6.143   3.609  12.899  0.00  0.00    +0.000 A 
ATOM     17  C   UNL     1       7.317   4.323  13.153  0.00  0.00    +0.000 A 
ATOM     18  C   UNL     1       7.394   5.198  14.248  0.00  0.00    +0.000 A 
BRANCH  16  19
ATOM     19  O   UNL     1       5.979   2.680  11.909  0.00  0.00    +0.000 OA
ATOM     20  C   UNL     1       7.179   2.245  11.284  0.00  0.00    +0.000 C 
ENDBRANCH  16  19
ENDBRANCH   4  13
BRANCH   1  22
ATOM     21  C   UNL     1       8.886   9.449  18.422  0.00  0.00    +0.000 C 
ATOM     22  C   UNL     1       8.110   8.574  18.105  0.00  0.00    +0.000 C 
BRANCH  21  23
ATOM     23  C   UNL     1       9.856  10.536  18.703  0.00  0.00    +0.000 C 
ATOM     24  C   UNL     1       9.765  10.935  20.179  0.00  0.00    +0.000 C 
BRANCH  23  29
ATOM     25  C   UNL     1      11.105  14.884  16.771  0.00  0.00    +0.000 C 
ATOM     26  N   UNL     1      10.199  13.793  17.024  0.00  0.00    +0.000 N 
ATOM     27  C   UNL     1      10.669  12.620  17.588  0.00  0.00    +0.000 C 
ATOM     28  O   UNL     1      11.851  12.443  17.866  0.00  0.00    +0.000 OA
ATOM     29  N   UNL     1       9.679  11.673  17.777  0.00  0.00    +0.000 N 
ATOM     30  H   UNL     1       9.247  14.005  17.294  0.00  0.00    +0.000 HD
BRANCH  29  31
ATOM     31  O   UNL     1       8.345  12.114  17.580  0.00  0.00    +0.000 OA
ATOM     32  H   UNL     1       7.859  11.310  17.849  0.00  0.00    +0.000 HD
ENDBRANCH  29  31
ENDBRANCH  23  29
ENDBRANCH  21  23
ENDBRANCH   1  22
TORSDOF 7
ENDMDL
MODEL 4
REMARK VINA RESULT:      -8.1      1.501      1.863
REMARK  Name = 
REMARK  10 active torsions:
REMARK  status: ('A' for Active; 'I' for Inactive)
REMARK    1  A    between atoms: C_1  and  N_2
REMARK    2  A    between atoms: N_5  and  O_6
REMARK    3  A    between atoms: N_5  and  C_7
REMARK    4  A    between atoms: C_7  and  C_8
REMARK    5  A    between atoms: C_7  and  C_9
REMARK    6  A    between atoms: C_10  and  C_11
REMARK    7  A    between atoms: C_13  and  C_14
REMARK    8  A    between atoms: N_21  and  C_22
REMARK    9  A    between atoms: C_25  and  O_26
REMARK   10  A    between atoms: O_26  and  C_27
REMARK                            x       y       z     vdW  Elec       q    Type
REMARK                         _______ _______ _______ _____ _____    ______ ____
ROOT
ATOM      1  C   UNL     1       7.278   7.628  17.558  0.00  0.00    +0.000 A 
ATOM      2  C   UNL     1       6.144   7.146  18.233  0.00  0.00    +0.000 A 
ATOM      3  C   UNL     1       5.713   6.033  17.522  0.00  0.00    +0.000 A 
ATOM      4  N   UNL     1       6.568   5.977  16.406  0.00  0.00    +0.000 N 
ATOM      5  N   UNL     1       7.601   6.866  16.513  0.00  0.00    +0.000 NA
ENDROOT
BRANCH   3   6
ATOM      6  C   UNL     1       4.634   5.078  17.862  0.00  0.00    +0.000 A 
ATOM      7  C   UNL     1       3.291   5.419  17.654  0.00  0.00    +0.000 A 
ATOM      8  C   UNL     1       2.265   4.493  17.901  0.00  0.00    +0.000 A 
ATOM      9  C   UNL     1       2.575   3.208  18.341  0.00  0.00    +0.000 A 
ATOM     10 CL   UNL     1       1.324   2.062  18.615  0.00  0.00    +0.000 Cl
ATOM     11  C   UNL     1       3.896   2.853  18.573  0.00  0.00    +0.000 A 
ATOM     12  C   UNL     1       4.904   3.804  18.391  0.00  0.00    +0.000 A 
ENDBRANCH   3   6
BRANCH   4  13
ATOM     13  C   UNL     1       6.489   5.113  15.270  0.00  0.00    +0.000 A 
ATOM     14  C   UNL     1       7.532   5.056  14.335  0.00  0.00    +0.000 A 
ATOM     15  C   UNL     1       7.348   4.413  13.110  0.00  0.00    +0.000 A 
ATOM     16  C   UNL     1       6.154   3.748  12.840  0.00  0.00    +0.000 A 
ATOM     17  C   UNL     1       5.138   3.737  13.798  0.00  0.00    +0.000 A 
ATOM     18  C   UNL     1       5.307   4.406  15.020  0.00  0.00    +0.000 A 
BRANCH  16  19
ATOM     19  O   UNL     1       6.074   3.194  11.593  0.00  0.00    +0.000 OA
ATOM     20  C   UNL     1       5.861   1.788  11.569  0.00  0.00    +0.000 C 
ENDBRANCH  16  19
ENDBRANCH   4  13
BRANCH   1  22
ATOM     21  C   UNL     1       8.675   9.791  18.144  0.00  0.00    +0.000 C 
ATOM     22  C   UNL     1       8.071   8.772  17.890  0.00  0.00    +0.000 C 
BRANCH  21  23
ATOM     23  C   UNL     1       9.323  11.078  18.501  0.00  0.00    +0.000 C 
ATOM     24  C   UNL     1      10.794  11.047  18.072  0.00  0.00    +0.000 C 
BRANCH  23  29
ATOM     25  C   UNL     1       9.323  14.112  22.373  0.00  0.00    +0.000 C 
ATOM     26  N   UNL     1       9.321  12.815  21.745  0.00  0.00    +0.000 N 
ATOM     27  C   UNL     1       9.098  12.705  20.384  0.00  0.00    +0.000 C 
ATOM     28  O   UNL     1       8.868  13.676  19.668  0.00  0.00    +0.000 OA
ATOM     29  N   UNL     1       9.136  11.400  19.931  0.00  0.00    +0.000 N 
ATOM     30  H   UNL     1       9.947  12.103  22.099  0.00  0.00    +0.000 HD
BRANCH  29  31
ATOM     31  O   UNL     1       9.603  10.429  20.854  0.00  0.00    +0.000 OA
ATOM     32  H   UNL     1       8.982  10.585  21.593  0.00  0.00    +0.000 HD
ENDBRANCH  29  31
ENDBRANCH  23  29
ENDBRANCH  21  23
ENDBRANCH   1  22
TORSDOF 7
ENDMDL
MODEL 5
REMARK VINA RESULT:      -7.9      2.246      4.269
REMARK  Name = 
REMARK  10 active torsions:
REMARK  status: ('A' for Active; 'I' for Inactive)
REMARK    1  A    between atoms: C_1  and  N_2
REMARK    2  A    between atoms: N_5  and  O_6
REMARK    3  A    between atoms: N_5  and  C_7
REMARK    4  A    between atoms: C_7  and  C_8
REMARK    5  A    between atoms: C_7  and  C_9
REMARK    6  A    between atoms: C_10  and  C_11
REMARK    7  A    between atoms: C_13  and  C_14
REMARK    8  A    between atoms: N_21  and  C_22
REMARK    9  A    between atoms: C_25  and  O_26
REMARK   10  A    between atoms: O_26  and  C_27
REMARK                            x       y       z     vdW  Elec       q    Type
REMARK                         _______ _______ _______ _____ _____    ______ ____
ROOT
ATOM      1  C   UNL     1       7.424   7.653  17.549  0.00  0.00    +0.000 A 
ATOM      2  C   UNL     1       7.693   6.952  16.362  0.00  0.00    +0.000 A 
ATOM      3  C   UNL     1       6.679   6.013  16.228  0.00  0.00    +0.000 A 
ATOM      4  N   UNL     1       5.916   6.150  17.401  0.00  0.00    +0.000 N 
ATOM      5  N   UNL     1       6.295   7.244  18.128  0.00  0.00    +0.000 NA
ENDROOT
BRANCH   3   6
ATOM      6  C   UNL     1       6.411   5.095  15.098  0.00  0.00    +0.000 A 
ATOM      7  C   UNL     1       5.189   4.416  15.005  0.00  0.00    +0.000 A 
ATOM      8  C   UNL     1       4.896   3.603  13.900  0.00  0.00    +0.000 A 
ATOM      9  C   UNL     1       5.818   3.477  12.862  0.00  0.00    +0.000 A 
ATOM     10 CL   UNL     1       5.450   2.508  11.491  0.00  0.00    +0.000 Cl
ATOM     11  C   UNL     1       7.043   4.124  12.939  0.00  0.00    +0.000 A 
ATOM     12  C   UNL     1       7.352   4.874  14.076  0.00  0.00    +0.000 A 
ENDBRANCH   3   6
BRANCH   4  13
ATOM     13  C   UNL     1       4.830   5.338  17.854  0.00  0.00    +0.000 A 
ATOM     14  C   UNL     1       5.061   4.065  18.396  0.00  0.00    +0.000 A 
ATOM     15  C   UNL     1       4.000   3.182  18.599  0.00  0.00    +0.000 A 
ATOM     16  C   UNL     1       2.692   3.587  18.346  0.00  0.00    +0.000 A 
ATOM     17  C   UNL     1       2.448   4.880  17.876  0.00  0.00    +0.000 A 
ATOM     18  C   UNL     1       3.514   5.763  17.643  0.00  0.00    +0.000 A 
BRANCH  16  19
ATOM     19  O   UNL     1       1.742   2.622  18.539  0.00  0.00    +0.000 OA
ATOM     20  C   UNL     1       1.631   2.143  19.874  0.00  0.00    +0.000 C 
ENDBRANCH  16  19
ENDBRANCH   4  13
BRANCH   1  22
ATOM     21  C   UNL     1       8.894   9.605  18.552  0.00  0.00    +0.000 C 
ATOM     22  C   UNL     1       8.193   8.710  18.132  0.00  0.00    +0.000 C 
BRANCH  21  23
ATOM     23  C   UNL     1       9.744  10.748  18.968  0.00  0.00    +0.000 C 
ATOM     24  C   UNL     1       9.350  11.192  20.381  0.00  0.00    +0.000 C 
BRANCH  23  29
ATOM     25  C   UNL     1      11.311  14.975  16.999  0.00  0.00    +0.000 C 
ATOM     26  N   UNL     1      10.357  13.914  17.194  0.00  0.00    +0.000 N 
ATOM     27  C   UNL     1      10.729  12.761  17.862  0.00  0.00    +0.000 C 
ATOM     28  O   UNL     1      11.868  12.575  18.283  0.00  0.00    +0.000 OA
ATOM     29  N   UNL     1       9.702  11.843  17.977  0.00  0.00    +0.000 N 
ATOM     30  H   UNL     1       9.385  14.156  17.342  0.00  0.00    +0.000 HD
BRANCH  29  31
ATOM     31  O   UNL     1       8.411  12.298  17.606  0.00  0.00    +0.000 OA
ATOM     32  H   UNL     1       8.035  11.470  17.248  0.00  0.00    +0.000 HD
ENDBRANCH  29  31
ENDBRANCH  23  29
ENDBRANCH  21  23
ENDBRANCH   1  22
TORSDOF 7
ENDMDL
MODEL 6
REMARK VINA RESULT:      -7.8      1.548      2.289
REMARK  Name = 
REMARK  10 active torsions:
REMARK  status: ('A' for Active; 'I' for Inactive)
REMARK    1  A    between atoms: C_1  and  N_2
REMARK    2  A    between atoms: N_5  and  O_6
REMARK    3  A    between atoms: N_5  and  C_7
REMARK    4  A    between atoms: C_7  and  C_8
REMARK    5  A    between atoms: C_7  and  C_9
REMARK    6  A    between atoms: C_10  and  C_11
REMARK    7  A    between atoms: C_13  and  C_14
REMARK    8  A    between atoms: N_21  and  C_22
REMARK    9  A    between atoms: C_25  and  O_26
REMARK   10  A    between atoms: O_26  and  C_27
REMARK                            x       y       z     vdW  Elec       q    Type
REMARK                         _______ _______ _______ _____ _____    ______ ____
ROOT
ATOM      1  C   UNL     1       7.309   7.673  17.568  0.00  0.00    +0.000 A 
ATOM      2  C   UNL     1       6.222   7.102  18.251  0.00  0.00    +0.000 A 
ATOM      3  C   UNL     1       5.759   6.068  17.447  0.00  0.00    +0.000 A 
ATOM      4  N   UNL     1       6.544   6.149  16.283  0.00  0.00    +0.000 N 
ATOM      5  N   UNL     1       7.575   7.036  16.427  0.00  0.00    +0.000 NA
ENDROOT
BRANCH   3   6
ATOM      6  C   UNL     1       4.710   5.066  17.742  0.00  0.00    +0.000 A 
ATOM      7  C   UNL     1       5.052   3.800  18.237  0.00  0.00    +0.000 A 
ATOM      8  C   UNL     1       4.062   2.872  18.591  0.00  0.00    +0.000 A 
ATOM      9  C   UNL     1       2.714   3.207  18.472  0.00  0.00    +0.000 A 
ATOM     10 CL   UNL     1       1.499   2.084  18.934  0.00  0.00    +0.000 Cl
ATOM     11  C   UNL     1       2.350   4.447  17.966  0.00  0.00    +0.000 A 
ATOM     12  C   UNL     1       3.343   5.337  17.551  0.00  0.00    +0.000 A 
ENDBRANCH   3   6
BRANCH   4  13
ATOM     13  C   UNL     1       6.404   5.414  15.065  0.00  0.00    +0.000 A 
ATOM     14  C   UNL     1       5.284   4.600  14.840  0.00  0.00    +0.000 A 
ATOM     15  C   UNL     1       5.271   3.697  13.777  0.00  0.00    +0.000 A 
ATOM     16  C   UNL     1       6.334   3.656  12.877  0.00  0.00    +0.000 A 
ATOM     17  C   UNL     1       7.420   4.517  13.053  0.00  0.00    +0.000 A 
ATOM     18  C   UNL     1       7.452   5.408  14.137  0.00  0.00    +0.000 A 
BRANCH  16  19
ATOM     19  O   UNL     1       6.228   2.702  11.904  0.00  0.00    +0.000 OA
ATOM     20  C   UNL     1       4.916   2.506  11.391  0.00  0.00    +0.000 C 
ENDBRANCH  16  19
ENDBRANCH   4  13
BRANCH   1  22
ATOM     21  C   UNL     1       8.729   9.779  18.290  0.00  0.00    +0.000 C 
ATOM     22  C   UNL     1       8.111   8.784  17.978  0.00  0.00    +0.000 C 
BRANCH  21  23
ATOM     23  C   UNL     1       9.391  11.040  18.708  0.00  0.00    +0.000 C 
ATOM     24  C   UNL     1      10.890  10.956  18.404  0.00  0.00    +0.000 C 
BRANCH  23  29
ATOM     25  C   UNL     1       9.092  14.082  22.561  0.00  0.00    +0.000 C 
ATOM     26  N   UNL     1       9.140  12.784  21.938  0.00  0.00    +0.000 N 
ATOM     27  C   UNL     1       9.021  12.671  20.565  0.00  0.00    +0.000 C 
ATOM     28  O   UNL     1       8.842  13.639  19.831  0.00  0.00    +0.000 OA
ATOM     29  N   UNL     1       9.096  11.365  20.119  0.00  0.00    +0.000 N 
ATOM     30  H   UNL     1       9.739  12.075  22.340  0.00  0.00    +0.000 HD
BRANCH  29  31
ATOM     31  O   UNL     1       9.494  10.397  21.076  0.00  0.00    +0.000 OA
ATOM     32  H   UNL     1      10.089   9.849  20.528  0.00  0.00    +0.000 HD
ENDBRANCH  29  31
ENDBRANCH  23  29
ENDBRANCH  21  23
ENDBRANCH   1  22
TORSDOF 7
ENDMDL
MODEL 7
REMARK VINA RESULT:      -7.6      2.458      4.569
REMARK  Name = 
REMARK  10 active torsions:
REMARK  status: ('A' for Active; 'I' for Inactive)
REMARK    1  A    between atoms: C_1  and  N_2
REMARK    2  A    between atoms: N_5  and  O_6
REMARK    3  A    between atoms: N_5  and  C_7
REMARK    4  A    between atoms: C_7  and  C_8
REMARK    5  A    between atoms: C_7  and  C_9
REMARK    6  A    between atoms: C_10  and  C_11
REMARK    7  A    between atoms: C_13  and  C_14
REMARK    8  A    between atoms: N_21  and  C_22
REMARK    9  A    between atoms: C_25  and  O_26
REMARK   10  A    between atoms: O_26  and  C_27
REMARK                            x       y       z     vdW  Elec       q    Type
REMARK                         _______ _______ _______ _____ _____    ______ ____
ROOT
ATOM      1  C   UNL     1       7.370   7.624  17.458  0.00  0.00    +0.000 A 
ATOM      2  C   UNL     1       7.626   6.983  16.235  0.00  0.00    +0.000 A 
ATOM      3  C   UNL     1       6.639   6.018  16.087  0.00  0.00    +0.000 A 
ATOM      4  N   UNL     1       5.906   6.080  17.286  0.00  0.00    +0.000 N 
ATOM      5  N   UNL     1       6.271   7.154  18.050  0.00  0.00    +0.000 NA
ENDROOT
BRANCH   3   6
ATOM      6  C   UNL     1       6.368   5.140  14.926  0.00  0.00    +0.000 A 
ATOM      7  C   UNL     1       7.308   5.015  13.894  0.00  0.00    +0.000 A 
ATOM      8  C   UNL     1       7.094   4.128  12.828  0.00  0.00    +0.000 A 
ATOM      9  C   UNL     1       5.944   3.341  12.793  0.00  0.00    +0.000 A 
ATOM     10 CL   UNL     1       5.694   2.232  11.505  0.00  0.00    +0.000 Cl
ATOM     11  C   UNL     1       4.991   3.461  13.793  0.00  0.00    +0.000 A 
ATOM     12  C   UNL     1       5.180   4.397  14.813  0.00  0.00    +0.000 A 
ENDBRANCH   3   6
BRANCH   4  13
ATOM     13  C   UNL     1       4.860   5.213  17.733  0.00  0.00    +0.000 A 
ATOM     14  C   UNL     1       3.515   5.597  17.632  0.00  0.00    +0.000 A 
ATOM     15  C   UNL     1       2.523   4.871  18.292  0.00  0.00    +0.000 A 
ATOM     16  C   UNL     1       2.849   3.709  18.987  0.00  0.00    +0.000 A 
ATOM     17  C   UNL     1       4.178   3.280  19.029  0.00  0.00    +0.000 A 
ATOM     18  C   UNL     1       5.184   4.021  18.391  0.00  0.00    +0.000 A 
BRANCH  16  19
ATOM     19  O   UNL     1       1.801   3.109  19.629  0.00  0.00    +0.000 OA
ATOM     20  C   UNL     1       1.393   3.739  20.837  0.00  0.00    +0.000 C 
ENDBRANCH  16  19
ENDBRANCH   4  13
BRANCH   1  22
ATOM     21  C   UNL     1       8.808   9.512  18.617  0.00  0.00    +0.000 C 
ATOM     22  C   UNL     1       8.121   8.680  18.065  0.00  0.00    +0.000 C 
BRANCH  21  23
ATOM     23  C   UNL     1       9.737  10.473  19.261  0.00  0.00    +0.000 C 
ATOM     24  C   UNL     1       9.170  10.901  20.619  0.00  0.00    +0.000 C 
BRANCH  23  29
ATOM     25  C   UNL     1      12.333  14.416  17.881  0.00  0.00    +0.000 C 
ATOM     26  N   UNL     1      11.179  13.554  17.858  0.00  0.00    +0.000 N 
ATOM     27  C   UNL     1      11.230  12.313  18.469  0.00  0.00    +0.000 C 
ATOM     28  O   UNL     1      12.241  11.884  19.018  0.00  0.00    +0.000 OA
ATOM     29  N   UNL     1      10.044  11.610  18.370  0.00  0.00    +0.000 N 
ATOM     30  H   UNL     1      10.259  13.973  17.897  0.00  0.00    +0.000 HD
BRANCH  29  31
ATOM     31  O   UNL     1       8.928  12.330  17.873  0.00  0.00    +0.000 OA
ATOM     32  H   UNL     1       8.439  12.483  18.706  0.00  0.00    +0.000 HD
ENDBRANCH  29  31
ENDBRANCH  23  29
ENDBRANCH  21  23
ENDBRANCH   1  22
TORSDOF 7
ENDMDL
MODEL 8
REMARK VINA RESULT:      -7.6      9.489     12.221
REMARK  Name = 
REMARK  10 active torsions:
REMARK  status: ('A' for Active; 'I' for Inactive)
REMARK    1  A    between atoms: C_1  and  N_2
REMARK    2  A    between atoms: N_5  and  O_6
REMARK    3  A    between atoms: N_5  and  C_7
REMARK    4  A    between atoms: C_7  and  C_8
REMARK    5  A    between atoms: C_7  and  C_9
REMARK    6  A    between atoms: C_10  and  C_11
REMARK    7  A    between atoms: C_13  and  C_14
REMARK    8  A    between atoms: N_21  and  C_22
REMARK    9  A    between atoms: C_25  and  O_26
REMARK   10  A    between atoms: O_26  and  C_27
REMARK                            x       y       z     vdW  Elec       q    Type
REMARK                         _______ _______ _______ _____ _____    ______ ____
ROOT
ATOM      1  C   UNL     1      -2.129  11.383  18.494  0.00  0.00    +0.000 A 
ATOM      2  C   UNL     1      -1.333  12.485  18.846  0.00  0.00    +0.000 A 
ATOM      3  C   UNL     1      -0.043  11.997  19.010  0.00  0.00    +0.000 A 
ATOM      4  N   UNL     1      -0.170  10.606  18.838  0.00  0.00    +0.000 N 
ATOM      5  N   UNL     1      -1.414  10.262  18.386  0.00  0.00    +0.000 NA
ENDROOT
BRANCH   3   6
ATOM      6  C   UNL     1       1.206  12.748  19.264  0.00  0.00    +0.000 A 
ATOM      7  C   UNL     1       1.933  13.303  18.201  0.00  0.00    +0.000 A 
ATOM      8  C   UNL     1       3.076  14.081  18.437  0.00  0.00    +0.000 A 
ATOM      9  C   UNL     1       3.494  14.331  19.743  0.00  0.00    +0.000 A 
ATOM     10 CL   UNL     1       4.876  15.310  20.037  0.00  0.00    +0.000 Cl
ATOM     11  C   UNL     1       2.803  13.778  20.811  0.00  0.00    +0.000 A 
ATOM     12  C   UNL     1       1.707  12.947  20.563  0.00  0.00    +0.000 A 
ENDBRANCH   3   6
BRANCH   4  13
ATOM     13  C   UNL     1       0.819   9.593  19.037  0.00  0.00    +0.000 A 
ATOM     14  C   UNL     1       1.577   9.107  17.961  0.00  0.00    +0.000 A 
ATOM     15  C   UNL     1       2.350   7.955  18.108  0.00  0.00    +0.000 A 
ATOM     16  C   UNL     1       2.446   7.327  19.347  0.00  0.00    +0.000 A 
ATOM     17  C   UNL     1       1.751   7.849  20.441  0.00  0.00    +0.000 A 
ATOM     18  C   UNL     1       0.949   8.991  20.293  0.00  0.00    +0.000 A 
BRANCH  16  19
ATOM     19  O   UNL     1       3.196   6.184  19.357  0.00  0.00    +0.000 OA
ATOM     20  C   UNL     1       2.669   5.122  20.143  0.00  0.00    +0.000 C 
ENDBRANCH  16  19
ENDBRANCH   4  13
BRANCH   1  22
ATOM     21  C   UNL     1      -4.729  11.445  18.032  0.00  0.00    +0.000 C 
ATOM     22  C   UNL     1      -3.537  11.369  18.237  0.00  0.00    +0.000 C 
BRANCH  21  23
ATOM     23  C   UNL     1      -6.168  11.625  17.718  0.00  0.00    +0.000 C 
ATOM     24  C   UNL     1      -6.419  13.072  17.280  0.00  0.00    +0.000 C 
BRANCH  23  29
ATOM     25  C   UNL     1      -7.699  11.741  22.390  0.00  0.00    +0.000 C 
ATOM     26  N   UNL     1      -7.591  11.156  21.078  0.00  0.00    +0.000 N 
ATOM     27  C   UNL     1      -7.073  11.897  20.031  0.00  0.00    +0.000 C 
ATOM     28  O   UNL     1      -6.718  13.066  20.155  0.00  0.00    +0.000 OA
ATOM     29  N   UNL     1      -7.026  11.195  18.840  0.00  0.00    +0.000 N 
ATOM     30  H   UNL     1      -7.380  10.169  21.003  0.00  0.00    +0.000 HD
BRANCH  29  31
ATOM     31  O   UNL     1      -7.294   9.805  18.922  0.00  0.00    +0.000 OA
ATOM     32  H   UNL     1      -7.328   9.694  19.893  0.00  0.00    +0.000 HD
ENDBRANCH  29  31
ENDBRANCH  23  29
ENDBRANCH  21  23
ENDBRANCH   1  22
TORSDOF 7
ENDMDL
MODEL 9
REMARK VINA RESULT:      -7.6      7.213     10.701
REMARK  Name = 
REMARK  10 active torsions:
REMARK  status: ('A' for Active; 'I' for Inactive)
REMARK    1  A    between atoms: C_1  and  N_2
REMARK    2  A    between atoms: N_5  and  O_6
REMARK    3  A    between atoms: N_5  and  C_7
REMARK    4  A    between atoms: C_7  and  C_8
REMARK    5  A    between atoms: C_7  and  C_9
REMARK    6  A    between atoms: C_10  and  C_11
REMARK    7  A    between atoms: C_13  and  C_14
REMARK    8  A    between atoms: N_21  and  C_22
REMARK    9  A    between atoms: C_25  and  O_26
REMARK   10  A    between atoms: O_26  and  C_27
REMARK                            x       y       z     vdW  Elec       q    Type
REMARK                         _______ _______ _______ _____ _____    ______ ____
ROOT
ATOM      1  C   UNL     1       1.680   8.917  18.163  0.00  0.00    +0.000 A 
ATOM      2  C   UNL     1       0.443   9.057  17.512  0.00  0.00    +0.000 A 
ATOM      3  C   UNL     1      -0.285   9.977  18.255  0.00  0.00    +0.000 A 
ATOM      4  N   UNL     1       0.533  10.258  19.364  0.00  0.00    +0.000 N 
ATOM      5  N   UNL     1       1.781   9.718  19.224  0.00  0.00    +0.000 NA
ENDROOT
BRANCH   3   6
ATOM      6  C   UNL     1      -1.604  10.576  17.951  0.00  0.00    +0.000 A 
ATOM      7  C   UNL     1      -2.253  10.293  16.742  0.00  0.00    +0.000 A 
ATOM      8  C   UNL     1      -3.537  10.794  16.477  0.00  0.00    +0.000 A 
ATOM      9  C   UNL     1      -4.194  11.571  17.430  0.00  0.00    +0.000 A 
ATOM     10 CL   UNL     1      -5.778  12.161  17.122  0.00  0.00    +0.000 Cl
ATOM     11  C   UNL     1      -3.564  11.881  18.626  0.00  0.00    +0.000 A 
ATOM     12  C   UNL     1      -2.260  11.435  18.851  0.00  0.00    +0.000 A 
ENDBRANCH   3   6
BRANCH   4  13
ATOM     13  C   UNL     1       0.221  11.036  20.523  0.00  0.00    +0.000 A 
ATOM     14  C   UNL     1      -0.448  10.463  21.615  0.00  0.00    +0.000 A 
ATOM     15  C   UNL     1      -0.972  11.273  22.623  0.00  0.00    +0.000 A 
ATOM     16  C   UNL     1      -0.760  12.649  22.600  0.00  0.00    +0.000 A 
ATOM     17  C   UNL     1      -0.029  13.217  21.553  0.00  0.00    +0.000 A 
ATOM     18  C   UNL     1       0.476  12.412  20.521  0.00  0.00    +0.000 A 
BRANCH  16  19
ATOM     19  O   UNL     1      -1.357  13.341  23.617  0.00  0.00    +0.000 OA
ATOM     20  C   UNL     1      -1.076  14.735  23.645  0.00  0.00    +0.000 C 
ENDBRANCH  16  19
ENDBRANCH   4  13
BRANCH   1  22
ATOM     21  C   UNL     1       3.686   7.309  17.559  0.00  0.00    +0.000 C 
ATOM     22  C   UNL     1       2.770   8.068  17.793  0.00  0.00    +0.000 C 
BRANCH  21  23
ATOM     23  C   UNL     1       4.745   6.299  17.314  0.00  0.00    +0.000 C 
ATOM     24  C   UNL     1       5.271   6.447  15.882  0.00  0.00    +0.000 C 
BRANCH  23  29
ATOM     25  C   UNL     1       4.522   2.243  20.088  0.00  0.00    +0.000 C 
ATOM     26  N   UNL     1       4.340   2.988  18.868  0.00  0.00    +0.000 N 
ATOM     27  C   UNL     1       4.469   4.366  18.873  0.00  0.00    +0.000 C 
ATOM     28  O   UNL     1       4.709   5.007  19.892  0.00  0.00    +0.000 OA
ATOM     29  N   UNL     1       4.275   4.934  17.628  0.00  0.00    +0.000 N 
ATOM     30  H   UNL     1       4.633   2.569  17.995  0.00  0.00    +0.000 HD
BRANCH  29  31
ATOM     31  O   UNL     1       4.199   4.035  16.534  0.00  0.00    +0.000 OA
ATOM     32  H   UNL     1       4.725   3.291  16.888  0.00  0.00    +0.000 HD
ENDBRANCH  29  31
ENDBRANCH  23  29
ENDBRANCH  21  23
ENDBRANCH   1  22
TORSDOF 7
ENDMDL
