MODEL 1
REMARK VINA RESULT:      -7.1      0.000      0.000
REMARK  Name = 
REMARK  18 active torsions:
REMARK  status: ('A' for Active; 'I' for Inactive)
REMARK    1  A    between atoms: C_1  and  C_2
REMARK    2  A    between atoms: C_2  and  C_3
REMARK    3  A    between atoms: C_3  and  C_4
REMARK    4  A    between atoms: C_4  and  C_5
REMARK    5  A    between atoms: C_5  and  C_6
REMARK    6  A    between atoms: C_6  and  C_7
REMARK    7  A    between atoms: C_7  and  C_8
REMARK    8  A    between atoms: C_8  and  C_9
REMARK    9  A    between atoms: C_9  and  C_10
REMARK   10  A    between atoms: C_9  and  C_26
REMARK   11  A    between atoms: N_12  and  C_13
REMARK   12  A    between atoms: N_18  and  C_19
REMARK   13  A    between atoms: C_19  and  C_20
REMARK   14  A    between atoms: C_20  and  O_22
REMARK   15  A    between atoms: O_22  and  C_23
REMARK   16  A    between atoms: C_26  and  C_27
REMARK   17  A    between atoms: C_26  and  C_28
REMARK   18  A    between atoms: N_30  and  O_31
REMARK                            x       y       z     vdW  Elec       q    Type
REMARK                         _______ _______ _______ _____ _____    ______ ____
ROOT
ATOM      1  C   UNL     1       2.985   4.880  19.649  0.00  0.00    +0.000 C 
ENDROOT
BRANCH   1   2
ATOM      2  C   UNL     1       1.914   5.827  20.189  0.00  0.00    +0.000 C 
ATOM      3  O   UNL     1       0.863   5.398  20.663  0.00  0.00    +0.000 OA
ATOM      4  N   UNL     1       2.242   7.169  20.178  0.00  0.00    +0.000 N 
ATOM      5  H   UNL     1       2.936   7.489  19.512  0.00  0.00    +0.000 HD
BRANCH   4   6
ATOM      6  C   UNL     1       1.285   8.175  20.656  0.00  0.00    +0.000 C 
ATOM      7  C   UNL     1       1.739   8.852  21.950  0.00  0.00    +0.000 C 
ATOM      8  C   UNL     1       0.546   9.336  22.780  0.00  0.00    +0.000 C 
ATOM      9  C   UNL     1      -0.383  10.346  22.092  0.00  0.00    +0.000 C 
ATOM     10  C   UNL     1      -1.037   9.874  20.786  0.00  0.00    +0.000 C 
ATOM     11  N   UNL     1      -0.128   9.957  19.641  0.00  0.00    +0.000 N 
ATOM     12  C   UNL     1       1.095   9.297  19.616  0.00  0.00    +0.000 C 
ATOM     13  O   UNL     1       2.015   9.635  18.866  0.00  0.00    +0.000 OA
BRANCH  11  14
ATOM     14  C   UNL     1      -0.425  10.924  18.572  0.00  0.00    +0.000 C 
BRANCH  14  15
ATOM     15  C   UNL     1      -1.847  10.891  18.010  0.00  0.00    +0.000 C 
ATOM     16  O   UNL     1      -2.720  11.726  18.210  0.00  0.00    +0.000 OA
BRANCH  15  17
ATOM     17  O   UNL     1      -2.020   9.750  17.279  0.00  0.00    +0.000 OA
ATOM     18  C   UNL     1      -2.654   9.945  16.011  0.00  0.00    +0.000 C 
ENDBRANCH  15  17
ENDBRANCH  14  15
ENDBRANCH  11  14
ENDBRANCH   4   6
ENDBRANCH   1   2
BRANCH   1  19
ATOM     19  C   UNL     1       2.491   3.413  19.779  0.00  0.00    +0.000 C 
ATOM     20  C   UNL     1       2.492   2.645  18.455  0.00  0.00    +0.000 C 
BRANCH  19  21
ATOM     21  C   UNL     1       3.346   2.644  20.775  0.00  0.00    +0.000 C 
ATOM     22  O   UNL     1       2.969   2.348  21.914  0.00  0.00    +0.000 OA
ATOM     23  N   UNL     1       4.581   2.264  20.310  0.00  0.00    +0.000 N 
ATOM     24  H   UNL     1       4.940   2.461  19.381  0.00  0.00    +0.000 HD
BRANCH  23  25
ATOM     25  O   UNL     1       5.404   1.550  21.205  0.00  0.00    +0.000 OA
ATOM     26  H   UNL     1       5.365   2.109  22.013  0.00  0.00    +0.000 HD
ENDBRANCH  23  25
ENDBRANCH  19  21
ENDBRANCH   1  19
BRANCH   1  27
ATOM     27  C   UNL     1       3.278   5.217  18.167  0.00  0.00    +0.000 C 
BRANCH  27  28
ATOM     28  C   UNL     1       4.630   5.894  17.966  0.00  0.00    +0.000 C 
BRANCH  28  29
ATOM     29  C   UNL     1       5.284   5.463  16.655  0.00  0.00    +0.000 C 
BRANCH  29  30
ATOM     30  C   UNL     1       6.714   5.991  16.607  0.00  0.00    +0.000 C 
BRANCH  30  31
ATOM     31  C   UNL     1       7.482   5.652  17.877  0.00  0.00    +0.000 C 
BRANCH  31  32
ATOM     32  C   UNL     1       8.061   6.920  18.500  0.00  0.00    +0.000 C 
BRANCH  32  34
ATOM     33  C   UNL     1       8.442   9.380  18.185  0.00  0.00    +0.000 C 
ATOM     34  C   UNL     1       7.801   8.129  17.610  0.00  0.00    +0.000 C 
ENDBRANCH  32  34
ENDBRANCH  31  32
ENDBRANCH  30  31
ENDBRANCH  29  30
ENDBRANCH  28  29
ENDBRANCH  27  28
ENDBRANCH   1  27
TORSDOF 15
ENDMDL
MODEL 2
REMARK VINA RESULT:      -7.0      2.673      8.911
REMARK  Name = 
REMARK  18 active torsions:
REMARK  status: ('A' for Active; 'I' for Inactive)
REMARK    1  A    between atoms: C_1  and  C_2
REMARK    2  A    between atoms: C_2  and  C_3
REMARK    3  A    between atoms: C_3  and  C_4
REMARK    4  A    between atoms: C_4  and  C_5
REMARK    5  A    between atoms: C_5  and  C_6
REMARK    6  A    between atoms: C_6  and  C_7
REMARK    7  A    between atoms: C_7  and  C_8
REMARK    8  A    between atoms: C_8  and  C_9
REMARK    9  A    between atoms: C_9  and  C_10
REMARK   10  A    between atoms: C_9  and  C_26
REMARK   11  A    between atoms: N_12  and  C_13
REMARK   12  A    between atoms: N_18  and  C_19
REMARK   13  A    between atoms: C_19  and  C_20
REMARK   14  A    between atoms: C_20  and  O_22
REMARK   15  A    between atoms: O_22  and  C_23
REMARK   16  A    between atoms: C_26  and  C_27
REMARK   17  A    between atoms: C_26  and  C_28
REMARK   18  A    between atoms: N_30  and  O_31
REMARK                            x       y       z     vdW  Elec       q    Type
REMARK                         _______ _______ _______ _____ _____    ______ ____
ROOT
ATOM      1  C   UNL     1       1.000   9.210  20.514  0.00  0.00    +0.000 C 
ENDROOT
BRANCH   1   2
ATOM      2  C   UNL     1       1.607   7.828  20.273  0.00  0.00    +0.000 C 
ATOM      3  O   UNL     1       1.481   6.923  21.096  0.00  0.00    +0.000 OA
ATOM      4  N   UNL     1       2.227   7.653  19.050  0.00  0.00    +0.000 N 
ATOM      5  H   UNL     1       2.581   8.471  18.569  0.00  0.00    +0.000 HD
BRANCH   4   6
ATOM      6  C   UNL     1       2.862   6.372  18.713  0.00  0.00    +0.000 C 
ATOM      7  C   UNL     1       1.932   5.440  17.936  0.00  0.00    +0.000 C 
ATOM      8  C   UNL     1       2.282   3.969  18.176  0.00  0.00    +0.000 C 
ATOM      9  C   UNL     1       3.706   3.546  17.787  0.00  0.00    +0.000 C 
ATOM     10  C   UNL     1       4.844   4.294  18.496  0.00  0.00    +0.000 C 
ATOM     11  N   UNL     1       5.095   5.614  17.913  0.00  0.00    +0.000 N 
ATOM     12  C   UNL     1       4.108   6.588  17.830  0.00  0.00    +0.000 C 
ATOM     13  O   UNL     1       4.173   7.531  17.038  0.00  0.00    +0.000 OA
BRANCH  11  14
ATOM     14  C   UNL     1       6.372   5.847  17.218  0.00  0.00    +0.000 C 
BRANCH  14  15
ATOM     15  C   UNL     1       7.462   4.797  17.439  0.00  0.00    +0.000 C 
ATOM     16  O   UNL     1       8.006   4.539  18.504  0.00  0.00    +0.000 OA
BRANCH  15  17
ATOM     17  O   UNL     1       7.778   4.214  16.245  0.00  0.00    +0.000 OA
ATOM     18  C   UNL     1       7.000   4.670  15.134  0.00  0.00    +0.000 C 
ENDBRANCH  15  17
ENDBRANCH  14  15
ENDBRANCH  11  14
ENDBRANCH   4   6
ENDBRANCH   1   2
BRANCH   1  19
ATOM     19  C   UNL     1       0.578   9.833  19.155  0.00  0.00    +0.000 C 
ATOM     20  C   UNL     1      -0.925  10.097  19.041  0.00  0.00    +0.000 C 
BRANCH  19  21
ATOM     21  C   UNL     1       1.310  11.144  18.913  0.00  0.00    +0.000 C 
ATOM     22  O   UNL     1       1.286  12.096  19.700  0.00  0.00    +0.000 OA
ATOM     23  N   UNL     1       2.041  11.195  17.751  0.00  0.00    +0.000 N 
ATOM     24  H   UNL     1       2.115  10.443  17.076  0.00  0.00    +0.000 HD
BRANCH  23  25
ATOM     25  O   UNL     1       2.733  12.396  17.490  0.00  0.00    +0.000 OA
ATOM     26  H   UNL     1       3.359  12.124  16.781  0.00  0.00    +0.000 HD
ENDBRANCH  23  25
ENDBRANCH  19  21
ENDBRANCH   1  19
BRANCH   1  27
ATOM     27  C   UNL     1      -0.226   9.085  21.449  0.00  0.00    +0.000 C 
BRANCH  27  28
ATOM     28  C   UNL     1       0.023   9.662  22.839  0.00  0.00    +0.000 C 
BRANCH  28  29
ATOM     29  C   UNL     1      -1.042  10.688  23.220  0.00  0.00    +0.000 C 
BRANCH  29  30
ATOM     30  C   UNL     1      -0.875  11.932  22.354  0.00  0.00    +0.000 C 
BRANCH  30  31
ATOM     31  C   UNL     1      -2.187  12.344  21.700  0.00  0.00    +0.000 C 
BRANCH  31  32
ATOM     32  C   UNL     1      -1.923  13.302  20.541  0.00  0.00    +0.000 C 
BRANCH  32  34
ATOM     33  C   UNL     1      -3.223  14.886  21.987  0.00  0.00    +0.000 C 
ATOM     34  C   UNL     1      -2.091  14.750  20.984  0.00  0.00    +0.000 C 
ENDBRANCH  32  34
ENDBRANCH  31  32
ENDBRANCH  30  31
ENDBRANCH  29  30
ENDBRANCH  28  29
ENDBRANCH  27  28
ENDBRANCH   1  27
TORSDOF 15
ENDMDL
MODEL 3
REMARK VINA RESULT:      -6.9      2.571      8.981
REMARK  Name = 
REMARK  18 active torsions:
REMARK  status: ('A' for Active; 'I' for Inactive)
REMARK    1  A    between atoms: C_1  and  C_2
REMARK    2  A    between atoms: C_2  and  C_3
REMARK    3  A    between atoms: C_3  and  C_4
REMARK    4  A    between atoms: C_4  and  C_5
REMARK    5  A    between atoms: C_5  and  C_6
REMARK    6  A    between atoms: C_6  and  C_7
REMARK    7  A    between atoms: C_7  and  C_8
REMARK    8  A    between atoms: C_8  and  C_9
REMARK    9  A    between atoms: C_9  and  C_10
REMARK   10  A    between atoms: C_9  and  C_26
REMARK   11  A    between atoms: N_12  and  C_13
REMARK   12  A    between atoms: N_18  and  C_19
REMARK   13  A    between atoms: C_19  and  C_20
REMARK   14  A    between atoms: C_20  and  O_22
REMARK   15  A    between atoms: O_22  and  C_23
REMARK   16  A    between atoms: C_26  and  C_27
REMARK   17  A    between atoms: C_26  and  C_28
REMARK   18  A    between atoms: N_30  and  O_31
REMARK                            x       y       z     vdW  Elec       q    Type
REMARK                         _______ _______ _______ _____ _____    ______ ____
ROOT
ATOM      1  C   UNL     1       0.976   9.325  20.353  0.00  0.00    +0.000 C 
ENDROOT
BRANCH   1   2
ATOM      2  C   UNL     1       1.560   7.922  20.186  0.00  0.00    +0.000 C 
ATOM      3  O   UNL     1       1.433   7.070  21.064  0.00  0.00    +0.000 OA
ATOM      4  N   UNL     1       2.158   7.665  18.967  0.00  0.00    +0.000 N 
ATOM      5  H   UNL     1       2.516   8.448  18.433  0.00  0.00    +0.000 HD
BRANCH   4   6
ATOM      6  C   UNL     1       2.770   6.358  18.698  0.00  0.00    +0.000 C 
ATOM      7  C   UNL     1       1.826   5.406  17.962  0.00  0.00    +0.000 C 
ATOM      8  C   UNL     1       2.146   3.942  18.277  0.00  0.00    +0.000 C 
ATOM      9  C   UNL     1       3.563   3.473  17.919  0.00  0.00    +0.000 C 
ATOM     10  C   UNL     1       4.712   4.233  18.598  0.00  0.00    +0.000 C 
ATOM     11  N   UNL     1       4.992   5.517  17.952  0.00  0.00    +0.000 N 
ATOM     12  C   UNL     1       4.025   6.505  17.814  0.00  0.00    +0.000 C 
ATOM     13  O   UNL     1       4.113   7.406  16.976  0.00  0.00    +0.000 OA
BRANCH  11  14
ATOM     14  C   UNL     1       6.277   5.691  17.255  0.00  0.00    +0.000 C 
BRANCH  14  15
ATOM     15  C   UNL     1       7.534   5.574  18.118  0.00  0.00    +0.000 C 
ATOM     16  O   UNL     1       8.098   4.534  18.431  0.00  0.00    +0.000 OA
BRANCH  15  17
ATOM     17  O   UNL     1       7.914   6.817  18.537  0.00  0.00    +0.000 OA
ATOM     18  C   UNL     1       7.710   7.857  17.576  0.00  0.00    +0.000 C 
ENDBRANCH  15  17
ENDBRANCH  14  15
ENDBRANCH  11  14
ENDBRANCH   4   6
ENDBRANCH   1   2
BRANCH   1  19
ATOM     19  C   UNL     1       0.553   9.877  18.964  0.00  0.00    +0.000 C 
ATOM     20  C   UNL     1      -0.960  10.037  18.801  0.00  0.00    +0.000 C 
BRANCH  19  21
ATOM     21  C   UNL     1       1.205  11.226  18.699  0.00  0.00    +0.000 C 
ATOM     22  O   UNL     1       0.894  12.264  19.295  0.00  0.00    +0.000 OA
ATOM     23  N   UNL     1       2.201  11.215  17.755  0.00  0.00    +0.000 N 
ATOM     24  H   UNL     1       2.513  10.395  17.246  0.00  0.00    +0.000 HD
BRANCH  23  25
ATOM     25  O   UNL     1       2.828  12.448  17.480  0.00  0.00    +0.000 OA
ATOM     26  H   UNL     1       3.261  12.656  18.339  0.00  0.00    +0.000 HD
ENDBRANCH  23  25
ENDBRANCH  19  21
ENDBRANCH   1  19
BRANCH   1  27
ATOM     27  C   UNL     1      -0.244   9.273  21.302  0.00  0.00    +0.000 C 
BRANCH  27  28
ATOM     28  C   UNL     1      -0.062  10.123  22.555  0.00  0.00    +0.000 C 
BRANCH  28  29
ATOM     29  C   UNL     1      -0.515  11.563  22.328  0.00  0.00    +0.000 C 
BRANCH  29  30
ATOM     30  C   UNL     1      -1.729  11.854  23.203  0.00  0.00    +0.000 C 
BRANCH  30  31
ATOM     31  C   UNL     1      -2.934  12.278  22.374  0.00  0.00    +0.000 C 
BRANCH  31  32
ATOM     32  C   UNL     1      -2.484  12.774  21.002  0.00  0.00    +0.000 C 
BRANCH  32  34
ATOM     33  C   UNL     1      -4.960  12.601  20.636  0.00  0.00    +0.000 C 
ATOM     34  C   UNL     1      -3.594  12.601  19.972  0.00  0.00    +0.000 C 
ENDBRANCH  32  34
ENDBRANCH  31  32
ENDBRANCH  30  31
ENDBRANCH  29  30
ENDBRANCH  28  29
ENDBRANCH  27  28
ENDBRANCH   1  27
TORSDOF 15
ENDMDL
MODEL 4
REMARK VINA RESULT:      -6.9      2.858      9.026
REMARK  Name = 
REMARK  18 active torsions:
REMARK  status: ('A' for Active; 'I' for Inactive)
REMARK    1  A    between atoms: C_1  and  C_2
REMARK    2  A    between atoms: C_2  and  C_3
REMARK    3  A    between atoms: C_3  and  C_4
REMARK    4  A    between atoms: C_4  and  C_5
REMARK    5  A    between atoms: C_5  and  C_6
REMARK    6  A    between atoms: C_6  and  C_7
REMARK    7  A    between atoms: C_7  and  C_8
REMARK    8  A    between atoms: C_8  and  C_9
REMARK    9  A    between atoms: C_9  and  C_10
REMARK   10  A    between atoms: C_9  and  C_26
REMARK   11  A    between atoms: N_12  and  C_13
REMARK   12  A    between atoms: N_18  and  C_19
REMARK   13  A    between atoms: C_19  and  C_20
REMARK   14  A    between atoms: C_20  and  O_22
REMARK   15  A    between atoms: O_22  and  C_23
REMARK   16  A    between atoms: C_26  and  C_27
REMARK   17  A    between atoms: C_26  and  C_28
REMARK   18  A    between atoms: N_30  and  O_31
REMARK                            x       y       z     vdW  Elec       q    Type
REMARK                         _______ _______ _______ _____ _____    ______ ____
ROOT
ATOM      1  C   UNL     1       1.096   9.018  20.214  0.00  0.00    +0.000 C 
ENDROOT
BRANCH   1   2
ATOM      2  C   UNL     1       1.662   7.601  20.117  0.00  0.00    +0.000 C 
ATOM      3  O   UNL     1       1.444   6.765  20.991  0.00  0.00    +0.000 OA
ATOM      4  N   UNL     1       2.356   7.314  18.956  0.00  0.00    +0.000 N 
ATOM      5  H   UNL     1       2.775   8.082  18.445  0.00  0.00    +0.000 HD
BRANCH   4   6
ATOM      6  C   UNL     1       2.961   5.991  18.758  0.00  0.00    +0.000 C 
ATOM      7  C   UNL     1       2.022   5.015  18.049  0.00  0.00    +0.000 C 
ATOM      8  C   UNL     1       2.323   3.564  18.435  0.00  0.00    +0.000 C 
ATOM      9  C   UNL     1       3.741   3.068  18.124  0.00  0.00    +0.000 C 
ATOM     10  C   UNL     1       4.885   3.848  18.788  0.00  0.00    +0.000 C 
ATOM     11  N   UNL     1       5.188   5.099  18.090  0.00  0.00    +0.000 N 
ATOM     12  C   UNL     1       4.232   6.088  17.890  0.00  0.00    +0.000 C 
ATOM     13  O   UNL     1       4.343   6.949  17.014  0.00  0.00    +0.000 OA
BRANCH  11  14
ATOM     14  C   UNL     1       6.486   5.231  17.408  0.00  0.00    +0.000 C 
BRANCH  14  15
ATOM     15  C   UNL     1       6.581   4.611  16.013  0.00  0.00    +0.000 C 
ATOM     16  O   UNL     1       6.058   3.566  15.653  0.00  0.00    +0.000 OA
BRANCH  15  17
ATOM     17  O   UNL     1       7.389   5.384  15.227  0.00  0.00    +0.000 OA
ATOM     18  C   UNL     1       7.364   5.048  13.837  0.00  0.00    +0.000 C 
ENDBRANCH  15  17
ENDBRANCH  14  15
ENDBRANCH  11  14
ENDBRANCH   4   6
ENDBRANCH   1   2
BRANCH   1  19
ATOM     19  C   UNL     1       0.616   9.480  18.812  0.00  0.00    +0.000 C 
ATOM     20  C   UNL     1      -0.651  10.338  18.848  0.00  0.00    +0.000 C 
BRANCH  19  21
ATOM     21  C   UNL     1       1.705  10.271  18.103  0.00  0.00    +0.000 C 
ATOM     22  O   UNL     1       2.602   9.749  17.432  0.00  0.00    +0.000 OA
ATOM     23  N   UNL     1       1.612  11.634  18.234  0.00  0.00    +0.000 N 
ATOM     24  H   UNL     1       0.891  12.122  18.755  0.00  0.00    +0.000 HD
BRANCH  23  25
ATOM     25  O   UNL     1       2.605  12.403  17.593  0.00  0.00    +0.000 OA
ATOM     26  H   UNL     1       3.281  12.500  18.300  0.00  0.00    +0.000 HD
ENDBRANCH  23  25
ENDBRANCH  19  21
ENDBRANCH   1  19
BRANCH   1  27
ATOM     27  C   UNL     1      -0.081   9.040  21.218  0.00  0.00    +0.000 C 
BRANCH  27  28
ATOM     28  C   UNL     1       0.284   9.686  22.552  0.00  0.00    +0.000 C 
BRANCH  28  29
ATOM     29  C   UNL     1      -0.901  10.433  23.157  0.00  0.00    +0.000 C 
BRANCH  29  30
ATOM     30  C   UNL     1      -1.261  11.615  22.262  0.00  0.00    +0.000 C 
BRANCH  30  31
ATOM     31  C   UNL     1      -1.181  12.936  23.015  0.00  0.00    +0.000 C 
BRANCH  31  32
ATOM     32  C   UNL     1      -2.509  13.684  22.915  0.00  0.00    +0.000 C 
BRANCH  32  34
ATOM     33  C   UNL     1      -4.809  12.960  23.610  0.00  0.00    +0.000 C 
ATOM     34  C   UNL     1      -3.417  13.335  24.088  0.00  0.00    +0.000 C 
ENDBRANCH  32  34
ENDBRANCH  31  32
ENDBRANCH  30  31
ENDBRANCH  29  30
ENDBRANCH  28  29
ENDBRANCH  27  28
ENDBRANCH   1  27
TORSDOF 15
ENDMDL
MODEL 5
REMARK VINA RESULT:      -6.8      1.056      1.288
REMARK  Name = 
REMARK  18 active torsions:
REMARK  status: ('A' for Active; 'I' for Inactive)
REMARK    1  A    between atoms: C_1  and  C_2
REMARK    2  A    between atoms: C_2  and  C_3
REMARK    3  A    between atoms: C_3  and  C_4
REMARK    4  A    between atoms: C_4  and  C_5
REMARK    5  A    between atoms: C_5  and  C_6
REMARK    6  A    between atoms: C_6  and  C_7
REMARK    7  A    between atoms: C_7  and  C_8
REMARK    8  A    between atoms: C_8  and  C_9
REMARK    9  A    between atoms: C_9  and  C_10
REMARK   10  A    between atoms: C_9  and  C_26
REMARK   11  A    between atoms: N_12  and  C_13
REMARK   12  A    between atoms: N_18  and  C_19
REMARK   13  A    between atoms: C_19  and  C_20
REMARK   14  A    between atoms: C_20  and  O_22
REMARK   15  A    between atoms: O_22  and  C_23
REMARK   16  A    between atoms: C_26  and  C_27
REMARK   17  A    between atoms: C_26  and  C_28
REMARK   18  A    between atoms: N_30  and  O_31
REMARK                            x       y       z     vdW  Elec       q    Type
REMARK                         _______ _______ _______ _____ _____    ______ ____
ROOT
ATOM      1  C   UNL     1       2.977   5.391  19.307  0.00  0.00    +0.000 C 
ENDROOT
BRANCH   1   2
ATOM      2  C   UNL     1       1.975   6.232  20.098  0.00  0.00    +0.000 C 
ATOM      3  O   UNL     1       1.162   5.709  20.858  0.00  0.00    +0.000 OA
ATOM      4  N   UNL     1       2.103   7.601  19.959  0.00  0.00    +0.000 N 
ATOM      5  H   UNL     1       2.538   7.960  19.117  0.00  0.00    +0.000 HD
BRANCH   4   6
ATOM      6  C   UNL     1       1.185   8.510  20.657  0.00  0.00    +0.000 C 
ATOM      7  C   UNL     1       1.754   9.019  21.981  0.00  0.00    +0.000 C 
ATOM      8  C   UNL     1       0.642   9.359  22.978  0.00  0.00    +0.000 C 
ATOM      9  C   UNL     1      -0.361  10.428  22.524  0.00  0.00    +0.000 C 
ATOM     10  C   UNL     1      -1.134  10.119  21.234  0.00  0.00    +0.000 C 
ATOM     11  N   UNL     1      -0.340  10.377  20.030  0.00  0.00    +0.000 N 
ATOM     12  C   UNL     1       0.882   9.756  19.800  0.00  0.00    +0.000 C 
ATOM     13  O   UNL     1       1.721  10.213  19.020  0.00  0.00    +0.000 OA
BRANCH  11  14
ATOM     14  C   UNL     1      -0.751  11.471  19.135  0.00  0.00    +0.000 C 
BRANCH  14  15
ATOM     15  C   UNL     1      -2.239  11.825  19.142  0.00  0.00    +0.000 C 
ATOM     16  O   UNL     1      -2.771  12.682  19.833  0.00  0.00    +0.000 OA
BRANCH  15  17
ATOM     17  O   UNL     1      -2.906  10.997  18.284  0.00  0.00    +0.000 OA
ATOM     18  C   UNL     1      -4.173  11.495  17.842  0.00  0.00    +0.000 C 
ENDBRANCH  15  17
ENDBRANCH  14  15
ENDBRANCH  11  14
ENDBRANCH   4   6
ENDBRANCH   1   2
BRANCH   1  19
ATOM     19  C   UNL     1       2.464   3.928  19.214  0.00  0.00    +0.000 C 
ATOM     20  C   UNL     1       2.447   3.372  17.789  0.00  0.00    +0.000 C 
BRANCH  19  21
ATOM     21  C   UNL     1       3.313   3.004  20.074  0.00  0.00    +0.000 C 
ATOM     22  O   UNL     1       3.027   2.700  21.238  0.00  0.00    +0.000 OA
ATOM     23  N   UNL     1       4.427   2.495  19.455  0.00  0.00    +0.000 N 
ATOM     24  H   UNL     1       4.704   2.692  18.499  0.00  0.00    +0.000 HD
BRANCH  23  25
ATOM     25  O   UNL     1       5.241   1.635  20.221  0.00  0.00    +0.000 OA
ATOM     26  H   UNL     1       5.277   2.101  21.087  0.00  0.00    +0.000 HD
ENDBRANCH  23  25
ENDBRANCH  19  21
ENDBRANCH   1  19
BRANCH   1  27
ATOM     27  C   UNL     1       3.152   5.988  17.890  0.00  0.00    +0.000 C 
BRANCH  27  28
ATOM     28  C   UNL     1       4.571   6.480  17.621  0.00  0.00    +0.000 C 
BRANCH  28  29
ATOM     29  C   UNL     1       4.928   6.383  16.140  0.00  0.00    +0.000 C 
BRANCH  29  30
ATOM     30  C   UNL     1       6.073   5.392  15.962  0.00  0.00    +0.000 C 
BRANCH  30  31
ATOM     31  C   UNL     1       6.277   4.536  17.205  0.00  0.00    +0.000 C 
BRANCH  31  32
ATOM     32  C   UNL     1       7.700   4.699  17.733  0.00  0.00    +0.000 C 
BRANCH  32  34
ATOM     33  C   UNL     1       8.093   7.048  18.520  0.00  0.00    +0.000 C 
ATOM     34  C   UNL     1       7.728   5.634  18.936  0.00  0.00    +0.000 C 
ENDBRANCH  32  34
ENDBRANCH  31  32
ENDBRANCH  30  31
ENDBRANCH  29  30
ENDBRANCH  28  29
ENDBRANCH  27  28
ENDBRANCH   1  27
TORSDOF 15
ENDMDL
MODEL 6
REMARK VINA RESULT:      -6.7      3.535      6.138
REMARK  Name = 
REMARK  18 active torsions:
REMARK  status: ('A' for Active; 'I' for Inactive)
REMARK    1  A    between atoms: C_1  and  C_2
REMARK    2  A    between atoms: C_2  and  C_3
REMARK    3  A    between atoms: C_3  and  C_4
REMARK    4  A    between atoms: C_4  and  C_5
REMARK    5  A    between atoms: C_5  and  C_6
REMARK    6  A    between atoms: C_6  and  C_7
REMARK    7  A    between atoms: C_7  and  C_8
REMARK    8  A    between atoms: C_8  and  C_9
REMARK    9  A    between atoms: C_9  and  C_10
REMARK   10  A    between atoms: C_9  and  C_26
REMARK   11  A    between atoms: N_12  and  C_13
REMARK   12  A    between atoms: N_18  and  C_19
REMARK   13  A    between atoms: C_19  and  C_20
REMARK   14  A    between atoms: C_20  and  O_22
REMARK   15  A    between atoms: O_22  and  C_23
REMARK   16  A    between atoms: C_26  and  C_27
REMARK   17  A    between atoms: C_26  and  C_28
REMARK   18  A    between atoms: N_30  and  O_31
REMARK                            x       y       z     vdW  Elec       q    Type
REMARK                         _______ _______ _______ _____ _____    ______ ____
ROOT
ATOM      1  C   UNL     1       6.325   3.910  15.445  0.00  0.00    +0.000 C 
ENDROOT
BRANCH   1   2
ATOM      2  C   UNL     1       5.006   4.063  16.202  0.00  0.00    +0.000 C 
ATOM      3  O   UNL     1       4.217   4.968  15.935  0.00  0.00    +0.000 OA
ATOM      4  N   UNL     1       4.737   3.081  17.137  0.00  0.00    +0.000 N 
ATOM      5  H   UNL     1       5.516   2.574  17.539  0.00  0.00    +0.000 HD
BRANCH   4   6
ATOM      6  C   UNL     1       3.508   3.132  17.939  0.00  0.00    +0.000 C 
ATOM      7  C   UNL     1       3.200   1.803  18.630  0.00  0.00    +0.000 C 
ATOM      8  C   UNL     1       1.697   1.626  18.864  0.00  0.00    +0.000 C 
ATOM      9  C   UNL     1       1.021   2.702  19.724  0.00  0.00    +0.000 C 
ATOM     10  C   UNL     1       1.123   4.142  19.200  0.00  0.00    +0.000 C 
ATOM     11  N   UNL     1       2.423   4.752  19.489  0.00  0.00    +0.000 N 
ATOM     12  C   UNL     1       3.618   4.192  19.053  0.00  0.00    +0.000 C 
ATOM     13  O   UNL     1       4.703   4.457  19.577  0.00  0.00    +0.000 OA
BRANCH  11  14
ATOM     14  C   UNL     1       2.479   5.880  20.432  0.00  0.00    +0.000 C 
BRANCH  14  15
ATOM     15  C   UNL     1       2.113   7.253  19.866  0.00  0.00    +0.000 C 
ATOM     16  O   UNL     1       1.655   8.194  20.500  0.00  0.00    +0.000 OA
BRANCH  15  17
ATOM     17  O   UNL     1       2.329   7.259  18.517  0.00  0.00    +0.000 OA
ATOM     18  C   UNL     1       2.421   8.563  17.935  0.00  0.00    +0.000 C 
ENDBRANCH  15  17
ENDBRANCH  14  15
ENDBRANCH  11  14
ENDBRANCH   4   6
ENDBRANCH   1   2
BRANCH   1  19
ATOM     19  C   UNL     1       6.217   4.625  14.070  0.00  0.00    +0.000 C 
ATOM     20  C   UNL     1       7.554   5.150  13.544  0.00  0.00    +0.000 C 
BRANCH  19  21
ATOM     21  C   UNL     1       5.628   3.692  13.023  0.00  0.00    +0.000 C 
ATOM     22  O   UNL     1       4.459   3.758  12.628  0.00  0.00    +0.000 OA
ATOM     23  N   UNL     1       6.504   2.767  12.510  0.00  0.00    +0.000 N 
ATOM     24  H   UNL     1       7.477   2.675  12.780  0.00  0.00    +0.000 HD
BRANCH  23  25
ATOM     25  O   UNL     1       5.995   1.883  11.538  0.00  0.00    +0.000 OA
ATOM     26  H   UNL     1       6.312   2.290  10.700  0.00  0.00    +0.000 HD
ENDBRANCH  23  25
ENDBRANCH  19  21
ENDBRANCH   1  19
BRANCH   1  27
ATOM     27  C   UNL     1       7.477   4.522  16.277  0.00  0.00    +0.000 C 
BRANCH  27  28
ATOM     28  C   UNL     1       7.203   5.960  16.708  0.00  0.00    +0.000 C 
BRANCH  28  29
ATOM     29  C   UNL     1       7.180   6.096  18.228  0.00  0.00    +0.000 C 
BRANCH  29  30
ATOM     30  C   UNL     1       8.205   7.140  18.657  0.00  0.00    +0.000 C 
BRANCH  30  31
ATOM     31  C   UNL     1       8.032   8.446  17.894  0.00  0.00    +0.000 C 
BRANCH  31  32
ATOM     32  C   UNL     1       8.791   9.572  18.592  0.00  0.00    +0.000 C 
BRANCH  32  34
ATOM     33  C   UNL     1       9.558  11.952  18.383  0.00  0.00    +0.000 C 
ATOM     34  C   UNL     1       8.616  10.888  17.845  0.00  0.00    +0.000 C 
ENDBRANCH  32  34
ENDBRANCH  31  32
ENDBRANCH  30  31
ENDBRANCH  29  30
ENDBRANCH  28  29
ENDBRANCH  27  28
ENDBRANCH   1  27
TORSDOF 15
ENDMDL
MODEL 7
REMARK VINA RESULT:      -6.7      2.106      3.132
REMARK  Name = 
REMARK  18 active torsions:
REMARK  status: ('A' for Active; 'I' for Inactive)
REMARK    1  A    between atoms: C_1  and  C_2
REMARK    2  A    between atoms: C_2  and  C_3
REMARK    3  A    between atoms: C_3  and  C_4
REMARK    4  A    between atoms: C_4  and  C_5
REMARK    5  A    between atoms: C_5  and  C_6
REMARK    6  A    between atoms: C_6  and  C_7
REMARK    7  A    between atoms: C_7  and  C_8
REMARK    8  A    between atoms: C_8  and  C_9
REMARK    9  A    between atoms: C_9  and  C_10
REMARK   10  A    between atoms: C_9  and  C_26
REMARK   11  A    between atoms: N_12  and  C_13
REMARK   12  A    between atoms: N_18  and  C_19
REMARK   13  A    between atoms: C_19  and  C_20
REMARK   14  A    between atoms: C_20  and  O_22
REMARK   15  A    between atoms: O_22  and  C_23
REMARK   16  A    between atoms: C_26  and  C_27
REMARK   17  A    between atoms: C_26  and  C_28
REMARK   18  A    between atoms: N_30  and  O_31
REMARK                            x       y       z     vdW  Elec       q    Type
REMARK                         _______ _______ _______ _____ _____    ______ ____
ROOT
ATOM      1  C   UNL     1       3.055   5.207  19.209  0.00  0.00    +0.000 C 
ENDROOT
BRANCH   1   2
ATOM      2  C   UNL     1       2.107   6.139  19.963  0.00  0.00    +0.000 C 
ATOM      3  O   UNL     1       1.431   5.734  20.907  0.00  0.00    +0.000 OA
ATOM      4  N   UNL     1       2.125   7.462  19.563  0.00  0.00    +0.000 N 
ATOM      5  H   UNL     1       2.428   7.674  18.619  0.00  0.00    +0.000 HD
BRANCH   4   6
ATOM      6  C   UNL     1       1.243   8.446  20.202  0.00  0.00    +0.000 C 
ATOM      7  C   UNL     1       1.819   8.991  21.509  0.00  0.00    +0.000 C 
ATOM      8  C   UNL     1       0.712   9.432  22.471  0.00  0.00    +0.000 C 
ATOM      9  C   UNL     1      -0.232  10.525  21.951  0.00  0.00    +0.000 C 
ATOM     10  C   UNL     1      -1.002  10.189  20.666  0.00  0.00    +0.000 C 
ATOM     11  N   UNL     1      -0.182  10.350  19.463  0.00  0.00    +0.000 N 
ATOM     12  C   UNL     1       1.011   9.662  19.282  0.00  0.00    +0.000 C 
ATOM     13  O   UNL     1       1.881  10.040  18.493  0.00  0.00    +0.000 OA
BRANCH  11  14
ATOM     14  C   UNL     1      -0.529  11.417  18.510  0.00  0.00    +0.000 C 
BRANCH  14  15
ATOM     15  C   UNL     1      -0.139  12.838  18.917  0.00  0.00    +0.000 C 
ATOM     16  O   UNL     1       0.965  13.349  18.781  0.00  0.00    +0.000 OA
BRANCH  15  17
ATOM     17  O   UNL     1      -1.208  13.450  19.509  0.00  0.00    +0.000 OA
ATOM     18  C   UNL     1      -0.893  14.173  20.703  0.00  0.00    +0.000 C 
ENDBRANCH  15  17
ENDBRANCH  14  15
ENDBRANCH  11  14
ENDBRANCH   4   6
ENDBRANCH   1   2
BRANCH   1  19
ATOM     19  C   UNL     1       2.355   3.842  18.967  0.00  0.00    +0.000 C 
ATOM     20  C   UNL     1       1.701   3.722  17.589  0.00  0.00    +0.000 C 
BRANCH  19  21
ATOM     21  C   UNL     1       3.342   2.695  19.126  0.00  0.00    +0.000 C 
ATOM     22  O   UNL     1       4.290   2.714  19.918  0.00  0.00    +0.000 OA
ATOM     23  N   UNL     1       3.092   1.600  18.337  0.00  0.00    +0.000 N 
ATOM     24  H   UNL     1       2.321   1.516  17.682  0.00  0.00    +0.000 HD
BRANCH  23  25
ATOM     25  O   UNL     1       3.986   0.516  18.454  0.00  0.00    +0.000 OA
ATOM     26  H   UNL     1       3.548  -0.041  19.137  0.00  0.00    +0.000 HD
ENDBRANCH  23  25
ENDBRANCH  19  21
ENDBRANCH   1  19
BRANCH   1  27
ATOM     27  C   UNL     1       3.453   5.850  17.859  0.00  0.00    +0.000 C 
BRANCH  27  28
ATOM     28  C   UNL     1       4.934   5.685  17.533  0.00  0.00    +0.000 C 
BRANCH  28  29
ATOM     29  C   UNL     1       5.187   4.438  16.689  0.00  0.00    +0.000 C 
BRANCH  29  30
ATOM     30  C   UNL     1       6.657   4.392  16.285  0.00  0.00    +0.000 C 
BRANCH  30  31
ATOM     31  C   UNL     1       6.859   4.839  14.843  0.00  0.00    +0.000 C 
BRANCH  31  32
ATOM     32  C   UNL     1       5.750   4.280  13.955  0.00  0.00    +0.000 C 
BRANCH  32  34
ATOM     33  C   UNL     1       5.239   3.018  11.848  0.00  0.00    +0.000 C 
ATOM     34  C   UNL     1       6.333   3.627  12.708  0.00  0.00    +0.000 C 
ENDBRANCH  32  34
ENDBRANCH  31  32
ENDBRANCH  30  31
ENDBRANCH  29  30
ENDBRANCH  28  29
ENDBRANCH  27  28
ENDBRANCH   1  27
TORSDOF 15
ENDMDL
MODEL 8
REMARK VINA RESULT:      -6.6      3.630      6.281
REMARK  Name = 
REMARK  18 active torsions:
REMARK  status: ('A' for Active; 'I' for Inactive)
REMARK    1  A    between atoms: C_1  and  C_2
REMARK    2  A    between atoms: C_2  and  C_3
REMARK    3  A    between atoms: C_3  and  C_4
REMARK    4  A    between atoms: C_4  and  C_5
REMARK    5  A    between atoms: C_5  and  C_6
REMARK    6  A    between atoms: C_6  and  C_7
REMARK    7  A    between atoms: C_7  and  C_8
REMARK    8  A    between atoms: C_8  and  C_9
REMARK    9  A    between atoms: C_9  and  C_10
REMARK   10  A    between atoms: C_9  and  C_26
REMARK   11  A    between atoms: N_12  and  C_13
REMARK   12  A    between atoms: N_18  and  C_19
REMARK   13  A    between atoms: C_19  and  C_20
REMARK   14  A    between atoms: C_20  and  O_22
REMARK   15  A    between atoms: O_22  and  C_23
REMARK   16  A    between atoms: C_26  and  C_27
REMARK   17  A    between atoms: C_26  and  C_28
REMARK   18  A    between atoms: N_30  and  O_31
REMARK                            x       y       z     vdW  Elec       q    Type
REMARK                         _______ _______ _______ _____ _____    ______ ____
ROOT
ATOM      1  C   UNL     1       6.529   3.972  15.181  0.00  0.00    +0.000 C 
ENDROOT
BRANCH   1   2
ATOM      2  C   UNL     1       5.220   4.126  15.956  0.00  0.00    +0.000 C 
ATOM      3  O   UNL     1       4.417   5.016  15.683  0.00  0.00    +0.000 OA
ATOM      4  N   UNL     1       4.977   3.161  16.915  0.00  0.00    +0.000 N 
ATOM      5  H   UNL     1       5.768   2.671  17.316  0.00  0.00    +0.000 HD
BRANCH   4   6
ATOM      6  C   UNL     1       3.760   3.215  17.736  0.00  0.00    +0.000 C 
ATOM      7  C   UNL     1       3.566   1.958  18.584  0.00  0.00    +0.000 C 
ATOM      8  C   UNL     1       2.085   1.699  18.874  0.00  0.00    +0.000 C 
ATOM      9  C   UNL     1       1.341   2.816  19.619  0.00  0.00    +0.000 C 
ATOM     10  C   UNL     1       1.324   4.187  18.927  0.00  0.00    +0.000 C 
ATOM     11  N   UNL     1       2.577   4.922  19.111  0.00  0.00    +0.000 N 
ATOM     12  C   UNL     1       3.805   4.405  18.715  0.00  0.00    +0.000 C 
ATOM     13  O   UNL     1       4.875   4.810  19.178  0.00  0.00    +0.000 OA
BRANCH  11  14
ATOM     14  C   UNL     1       2.561   6.155  19.915  0.00  0.00    +0.000 C 
BRANCH  14  15
ATOM     15  C   UNL     1       2.446   7.466  19.136  0.00  0.00    +0.000 C 
ATOM     16  O   UNL     1       3.051   7.749  18.110  0.00  0.00    +0.000 OA
BRANCH  15  17
ATOM     17  O   UNL     1       1.593   8.309  19.790  0.00  0.00    +0.000 OA
ATOM     18  C   UNL     1       1.245   7.894  21.114  0.00  0.00    +0.000 C 
ENDBRANCH  15  17
ENDBRANCH  14  15
ENDBRANCH  11  14
ENDBRANCH   4   6
ENDBRANCH   1   2
BRANCH   1  19
ATOM     19  C   UNL     1       6.357   4.563  13.755  0.00  0.00    +0.000 C 
ATOM     20  C   UNL     1       7.656   5.101  13.153  0.00  0.00    +0.000 C 
BRANCH  19  21
ATOM     21  C   UNL     1       5.789   3.519  12.805  0.00  0.00    +0.000 C 
ATOM     22  O   UNL     1       4.604   3.484  12.458  0.00  0.00    +0.000 OA
ATOM     23  N   UNL     1       6.702   2.614  12.324  0.00  0.00    +0.000 N 
ATOM     24  H   UNL     1       7.689   2.602  12.557  0.00  0.00    +0.000 HD
BRANCH  23  25
ATOM     25  O   UNL     1       6.214   1.629  11.441  0.00  0.00    +0.000 OA
ATOM     26  H   UNL     1       7.011   1.418  10.904  0.00  0.00    +0.000 HD
ENDBRANCH  23  25
ENDBRANCH  19  21
ENDBRANCH   1  19
BRANCH   1  27
ATOM     27  C   UNL     1       7.667   4.706  15.931  0.00  0.00    +0.000 C 
BRANCH  27  28
ATOM     28  C   UNL     1       7.182   5.446  17.174  0.00  0.00    +0.000 C 
BRANCH  28  29
ATOM     29  C   UNL     1       7.130   6.954  16.944  0.00  0.00    +0.000 C 
BRANCH  29  30
ATOM     30  C   UNL     1       7.702   7.670  18.163  0.00  0.00    +0.000 C 
BRANCH  30  31
ATOM     31  C   UNL     1       8.367   8.986  17.783  0.00  0.00    +0.000 C 
BRANCH  31  32
ATOM     32  C   UNL     1       9.068   9.594  18.996  0.00  0.00    +0.000 C 
BRANCH  32  34
ATOM     33  C   UNL     1       8.679  11.841  17.949  0.00  0.00    +0.000 C 
ATOM     34  C   UNL     1       9.686  10.942  18.645  0.00  0.00    +0.000 C 
ENDBRANCH  32  34
ENDBRANCH  31  32
ENDBRANCH  30  31
ENDBRANCH  29  30
ENDBRANCH  28  29
ENDBRANCH  27  28
ENDBRANCH   1  27
TORSDOF 15
ENDMDL
MODEL 9
REMARK VINA RESULT:      -6.5      2.878      8.952
REMARK  Name = 
REMARK  18 active torsions:
REMARK  status: ('A' for Active; 'I' for Inactive)
REMARK    1  A    between atoms: C_1  and  C_2
REMARK    2  A    between atoms: C_2  and  C_3
REMARK    3  A    between atoms: C_3  and  C_4
REMARK    4  A    between atoms: C_4  and  C_5
REMARK    5  A    between atoms: C_5  and  C_6
REMARK    6  A    between atoms: C_6  and  C_7
REMARK    7  A    between atoms: C_7  and  C_8
REMARK    8  A    between atoms: C_8  and  C_9
REMARK    9  A    between atoms: C_9  and  C_10
REMARK   10  A    between atoms: C_9  and  C_26
REMARK   11  A    between atoms: N_12  and  C_13
REMARK   12  A    between atoms: N_18  and  C_19
REMARK   13  A    between atoms: C_19  and  C_20
REMARK   14  A    between atoms: C_20  and  O_22
REMARK   15  A    between atoms: O_22  and  C_23
REMARK   16  A    between atoms: C_26  and  C_27
REMARK   17  A    between atoms: C_26  and  C_28
REMARK   18  A    between atoms: N_30  and  O_31
REMARK                            x       y       z     vdW  Elec       q    Type
REMARK                         _______ _______ _______ _____ _____    ______ ____
ROOT
ATOM      1  C   UNL     1       0.634   9.449  19.702  0.00  0.00    +0.000 C 
ENDROOT
BRANCH   1   2
ATOM      2  C   UNL     1       1.483   8.201  19.943  0.00  0.00    +0.000 C 
ATOM      3  O   UNL     1       1.501   7.642  21.038  0.00  0.00    +0.000 OA
ATOM      4  N   UNL     1       2.155   7.714  18.837  0.00  0.00    +0.000 N 
ATOM      5  H   UNL     1       2.369   8.356  18.083  0.00  0.00    +0.000 HD
BRANCH   4   6
ATOM      6  C   UNL     1       3.017   6.530  18.950  0.00  0.00    +0.000 C 
ATOM      7  C   UNL     1       2.258   5.225  18.709  0.00  0.00    +0.000 C 
ATOM      8  C   UNL     1       2.902   4.054  19.457  0.00  0.00    +0.000 C 
ATOM      9  C   UNL     1       4.364   3.752  19.099  0.00  0.00    +0.000 C 
ATOM     10  C   UNL     1       5.360   4.898  19.326  0.00  0.00    +0.000 C 
ATOM     11  N   UNL     1       5.321   5.894  18.253  0.00  0.00    +0.000 N 
ATOM     12  C   UNL     1       4.158   6.575  17.915  0.00  0.00    +0.000 C 
ATOM     13  O   UNL     1       4.003   7.117  16.817  0.00  0.00    +0.000 OA
BRANCH  11  14
ATOM     14  C   UNL     1       6.497   6.036  17.379  0.00  0.00    +0.000 C 
BRANCH  14  15
ATOM     15  C   UNL     1       7.088   4.737  16.829  0.00  0.00    +0.000 C 
ATOM     16  O   UNL     1       8.146   4.227  17.172  0.00  0.00    +0.000 OA
BRANCH  15  17
ATOM     17  O   UNL     1       6.274   4.246  15.848  0.00  0.00    +0.000 OA
ATOM     18  C   UNL     1       6.599   4.689  14.527  0.00  0.00    +0.000 C 
ENDBRANCH  15  17
ENDBRANCH  14  15
ENDBRANCH  11  14
ENDBRANCH   4   6
ENDBRANCH   1   2
BRANCH   1  19
ATOM     19  C   UNL     1       1.164  10.612  20.585  0.00  0.00    +0.000 C 
ATOM     20  C   UNL     1       1.300  11.939  19.836  0.00  0.00    +0.000 C 
BRANCH  19  21
ATOM     21  C   UNL     1       0.254  10.836  21.784  0.00  0.00    +0.000 C 
ATOM     22  O   UNL     1      -0.049  11.954  22.213  0.00  0.00    +0.000 OA
ATOM     23  N   UNL     1      -0.244   9.692  22.357  0.00  0.00    +0.000 N 
ATOM     24  H   UNL     1      -0.047   8.748  22.041  0.00  0.00    +0.000 HD
BRANCH  23  25
ATOM     25  O   UNL     1      -1.090   9.857  23.473  0.00  0.00    +0.000 OA
ATOM     26  H   UNL     1      -0.865   9.072  24.022  0.00  0.00    +0.000 HD
ENDBRANCH  23  25
ENDBRANCH  19  21
ENDBRANCH   1  19
BRANCH   1  27
ATOM     27  C   UNL     1       0.697   9.841  18.207  0.00  0.00    +0.000 C 
BRANCH  27  28
ATOM     28  C   UNL     1      -0.566   9.462  17.438  0.00  0.00    +0.000 C 
BRANCH  28  29
ATOM     29  C   UNL     1      -1.785  10.227  17.948  0.00  0.00    +0.000 C 
BRANCH  29  30
ATOM     30  C   UNL     1      -2.978   9.933  17.046  0.00  0.00    +0.000 C 
BRANCH  30  31
ATOM     31  C   UNL     1      -4.012  11.049  17.096  0.00  0.00    +0.000 C 
BRANCH  31  32
ATOM     32  C   UNL     1      -4.988  10.815  18.247  0.00  0.00    +0.000 C 
BRANCH  32  34
ATOM     33  C   UNL     1      -6.157  12.747  17.153  0.00  0.00    +0.000 C 
ATOM     34  C   UNL     1      -6.333  11.471  17.959  0.00  0.00    +0.000 C 
ENDBRANCH  32  34
ENDBRANCH  31  32
ENDBRANCH  30  31
ENDBRANCH  29  30
ENDBRANCH  28  29
ENDBRANCH  27  28
ENDBRANCH   1  27
TORSDOF 15
ENDMDL
