MODEL 1
REMARK VINA RESULT:      -7.5      0.000      0.000
REMARK  Name = 
REMARK  3 active torsions:
REMARK  status: ('A' for Active; 'I' for Inactive)
REMARK    1  A    between atoms: N_4  and  C_5
REMARK    2  A    between atoms: C_8  and  C_9
REMARK    3  A    between atoms: C_9  and  N_10
REMARK                            x       y       z     vdW  Elec       q    Type
REMARK                         _______ _______ _______ _____ _____    ______ ____
ROOT
ATOM      1  C   UNL     1       0.637   9.927  19.160  0.00  0.00    +0.000 A 
ATOM      2  C   UNL     1       0.742   9.285  20.403  0.00  0.00    +0.000 A 
ATOM      3  C   UNL     1       1.536   8.140  20.540  0.00  0.00    +0.000 A 
ATOM      4  C   UNL     1       2.233   7.619  19.442  0.00  0.00    +0.000 A 
ATOM      5  C   UNL     1       2.140   8.283  18.213  0.00  0.00    +0.000 A 
ATOM      6  C   UNL     1       1.337   9.412  18.062  0.00  0.00    +0.000 A 
ENDROOT
BRANCH   1  10
ATOM      7  C   UNL     1      -0.746  13.241  18.862  0.00  0.00    +0.000 A 
ATOM      8  C   UNL     1      -1.809  12.414  19.241  0.00  0.00    +0.000 A 
ATOM      9  N   UNL     1      -1.465  11.127  19.309  0.00  0.00    +0.000 NA
ATOM     10  N   UNL     1      -0.135  11.114  19.031  0.00  0.00    +0.000 N 
ATOM     11  C   UNL     1       0.308  12.375  18.684  0.00  0.00    +0.000 A 
ENDBRANCH   1  10
BRANCH   4  12
ATOM     12  C   UNL     1       3.033   6.324  19.543  0.00  0.00    +0.000 C 
BRANCH  12  13
ATOM     13  N   UNL     1       3.136   5.515  18.300  0.00  0.00    +0.000 NA
ATOM     14  C   UNL     1       2.324   4.290  18.415  0.00  0.00    +0.000 C 
ATOM     15  C   UNL     1       2.445   3.301  17.262  0.00  0.00    +0.000 C 
ATOM     16  C   UNL     1       3.903   3.001  16.964  0.00  0.00    +0.000 C 
ATOM     17  C   UNL     1       4.617   4.315  16.650  0.00  0.00    +0.000 C 
ATOM     18  C   UNL     1       6.079   4.052  16.266  0.00  0.00    +0.000 C 
ATOM     19  C   UNL     1       6.806   5.349  15.928  0.00  0.00    +0.000 C 
ATOM     20  C   UNL     1       6.690   6.362  17.060  0.00  0.00    +0.000 C 
ATOM     21  C   UNL     1       5.234   6.602  17.459  0.00  0.00    +0.000 C 
ATOM     22  C   UNL     1       4.529   5.283  17.858  0.00  0.00    +0.000 C 
ENDBRANCH  12  13
ENDBRANCH   4  12
TORSDOF 3
ENDMDL
MODEL 2
REMARK VINA RESULT:      -7.4      0.594      1.375
REMARK  Name = 
REMARK  3 active torsions:
REMARK  status: ('A' for Active; 'I' for Inactive)
REMARK    1  A    between atoms: N_4  and  C_5
REMARK    2  A    between atoms: C_8  and  C_9
REMARK    3  A    between atoms: C_9  and  N_10
REMARK                            x       y       z     vdW  Elec       q    Type
REMARK                         _______ _______ _______ _____ _____    ______ ____
ROOT
ATOM      1  C   UNL     1       0.714  10.006  19.304  0.00  0.00    +0.000 A 
ATOM      2  C   UNL     1       1.333   9.481  18.159  0.00  0.00    +0.000 A 
ATOM      3  C   UNL     1       2.048   8.279  18.232  0.00  0.00    +0.000 A 
ATOM      4  C   UNL     1       2.158   7.587  19.445  0.00  0.00    +0.000 A 
ATOM      5  C   UNL     1       1.515   8.108  20.575  0.00  0.00    +0.000 A 
ATOM      6  C   UNL     1       0.817   9.313  20.516  0.00  0.00    +0.000 A 
ENDROOT
BRANCH   1  10
ATOM      7  C   UNL     1      -1.729  12.651  19.173  0.00  0.00    +0.000 A 
ATOM      8  C   UNL     1      -0.562  13.179  18.610  0.00  0.00    +0.000 A 
ATOM      9  N   UNL     1       0.469  12.333  18.667  0.00  0.00    +0.000 NA
ATOM     10  N   UNL     1      -0.046  11.204  19.220  0.00  0.00    +0.000 N 
ATOM     11  C   UNL     1      -1.359  11.398  19.603  0.00  0.00    +0.000 A 
ENDBRANCH   1  10
BRANCH   4  12
ATOM     12  C   UNL     1       3.003   6.324  19.572  0.00  0.00    +0.000 C 
BRANCH  12  13
ATOM     13  N   UNL     1       2.922   5.361  18.442  0.00  0.00    +0.000 NA
ATOM     14  C   UNL     1       2.219   4.134  18.862  0.00  0.00    +0.000 C 
ATOM     15  C   UNL     1       2.183   3.006  17.839  0.00  0.00    +0.000 C 
ATOM     16  C   UNL     1       3.575   2.720  17.306  0.00  0.00    +0.000 C 
ATOM     17  C   UNL     1       4.138   4.004  16.700  0.00  0.00    +0.000 C 
ATOM     18  C   UNL     1       5.517   3.745  16.078  0.00  0.00    +0.000 C 
ATOM     19  C   UNL     1       6.090   5.009  15.449  0.00  0.00    +0.000 C 
ATOM     20  C   UNL     1       6.126   6.159  16.447  0.00  0.00    +0.000 C 
ATOM     21  C   UNL     1       4.758   6.399  17.086  0.00  0.00    +0.000 C 
ATOM     22  C   UNL     1       4.219   5.121  17.773  0.00  0.00    +0.000 C 
ENDBRANCH  12  13
ENDBRANCH   4  12
TORSDOF 3
ENDMDL
MODEL 3
REMARK VINA RESULT:      -7.4      1.705      3.215
REMARK  Name = 
REMARK  3 active torsions:
REMARK  status: ('A' for Active; 'I' for Inactive)
REMARK    1  A    between atoms: N_4  and  C_5
REMARK    2  A    between atoms: C_8  and  C_9
REMARK    3  A    between atoms: C_9  and  N_10
REMARK                            x       y       z     vdW  Elec       q    Type
REMARK                         _______ _______ _______ _____ _____    ______ ____
ROOT
ATOM      1  C   UNL     1       0.661   9.737  20.553  0.00  0.00    +0.000 A 
ATOM      2  C   UNL     1       1.279   8.527  20.904  0.00  0.00    +0.000 A 
ATOM      3  C   UNL     1       1.977   7.787  19.941  0.00  0.00    +0.000 A 
ATOM      4  C   UNL     1       2.065   8.241  18.618  0.00  0.00    +0.000 A 
ATOM      5  C   UNL     1       1.465   9.462  18.287  0.00  0.00    +0.000 A 
ATOM      6  C   UNL     1       0.753  10.196  19.234  0.00  0.00    +0.000 A 
ENDROOT
BRANCH   1  10
ATOM      7  C   UNL     1      -1.328  11.130  23.215  0.00  0.00    +0.000 A 
ATOM      8  C   UNL     1      -0.922  12.215  22.432  0.00  0.00    +0.000 A 
ATOM      9  N   UNL     1      -0.098  11.861  21.443  0.00  0.00    +0.000 NA
ATOM     10  N   UNL     1      -0.010  10.508  21.540  0.00  0.00    +0.000 N 
ATOM     11  C   UNL     1      -0.689  10.050  22.652  0.00  0.00    +0.000 A 
ENDBRANCH   1  10
BRANCH   4  12
ATOM     12  C   UNL     1       2.742   7.412  17.531  0.00  0.00    +0.000 C 
BRANCH  12  13
ATOM     13  N   UNL     1       3.678   6.355  17.996  0.00  0.00    +0.000 NA
ATOM     14  C   UNL     1       5.042   6.626  17.507  0.00  0.00    +0.000 C 
ATOM     15  C   UNL     1       6.079   5.548  17.798  0.00  0.00    +0.000 C 
ATOM     16  C   UNL     1       5.572   4.185  17.365  0.00  0.00    +0.000 C 
ATOM     17  C   UNL     1       4.256   3.903  18.088  0.00  0.00    +0.000 C 
ATOM     18  C   UNL     1       3.742   2.499  17.740  0.00  0.00    +0.000 C 
ATOM     19  C   UNL     1       2.439   2.188  18.467  0.00  0.00    +0.000 C 
ATOM     20  C   UNL     1       1.387   3.258  18.205  0.00  0.00    +0.000 C 
ATOM     21  C   UNL     1       1.909   4.658  18.526  0.00  0.00    +0.000 C 
ATOM     22  C   UNL     1       3.198   4.980  17.733  0.00  0.00    +0.000 C 
ENDBRANCH  12  13
ENDBRANCH   4  12
TORSDOF 3
ENDMDL
MODEL 4
REMARK VINA RESULT:      -7.3      1.885      3.312
REMARK  Name = 
REMARK  3 active torsions:
REMARK  status: ('A' for Active; 'I' for Inactive)
REMARK    1  A    between atoms: N_4  and  C_5
REMARK    2  A    between atoms: C_8  and  C_9
REMARK    3  A    between atoms: C_9  and  N_10
REMARK                            x       y       z     vdW  Elec       q    Type
REMARK                         _______ _______ _______ _____ _____    ______ ____
ROOT
ATOM      1  C   UNL     1       1.605   7.698  20.231  0.00  0.00    +0.000 A 
ATOM      2  C   UNL     1       2.201   7.845  18.970  0.00  0.00    +0.000 A 
ATOM      3  C   UNL     1       2.796   6.746  18.338  0.00  0.00    +0.000 A 
ATOM      4  C   UNL     1       2.808   5.489  18.956  0.00  0.00    +0.000 A 
ATOM      5  C   UNL     1       2.187   5.349  20.203  0.00  0.00    +0.000 A 
ATOM      6  C   UNL     1       1.609   6.441  20.848  0.00  0.00    +0.000 A 
ENDROOT
BRANCH   1  10
ATOM      7  C   UNL     1       0.085  10.174  22.362  0.00  0.00    +0.000 A 
ATOM      8  C   UNL     1      -0.379  10.444  21.070  0.00  0.00    +0.000 A 
ATOM      9  N   UNL     1       0.170   9.651  20.147  0.00  0.00    +0.000 NA
ATOM     10  N   UNL     1       0.963   8.804  20.853  0.00  0.00    +0.000 N 
ATOM     11  C   UNL     1       0.985   9.149  22.191  0.00  0.00    +0.000 A 
ENDBRANCH   1  10
BRANCH   4  12
ATOM     12  C   UNL     1       3.526   4.297  18.331  0.00  0.00    +0.000 C 
BRANCH  12  13
ATOM     13  N   UNL     1       5.002   4.412  18.200  0.00  0.00    +0.000 NA
ATOM     14  C   UNL     1       5.555   5.209  19.311  0.00  0.00    +0.000 C 
ATOM     15  C   UNL     1       7.045   5.520  19.228  0.00  0.00    +0.000 C 
ATOM     16  C   UNL     1       7.397   6.100  17.871  0.00  0.00    +0.000 C 
ATOM     17  C   UNL     1       6.974   5.106  16.790  0.00  0.00    +0.000 C 
ATOM     18  C   UNL     1       7.381   5.616  15.402  0.00  0.00    +0.000 C 
ATOM     19  C   UNL     1       6.986   4.629  14.309  0.00  0.00    +0.000 C 
ATOM     20  C   UNL     1       5.503   4.290  14.377  0.00  0.00    +0.000 C 
ATOM     21  C   UNL     1       5.093   3.807  15.768  0.00  0.00    +0.000 C 
ATOM     22  C   UNL     1       5.446   4.848  16.857  0.00  0.00    +0.000 C 
ENDBRANCH  12  13
ENDBRANCH   4  12
TORSDOF 3
ENDMDL
MODEL 5
REMARK VINA RESULT:      -7.3      1.709      3.233
REMARK  Name = 
REMARK  3 active torsions:
REMARK  status: ('A' for Active; 'I' for Inactive)
REMARK    1  A    between atoms: N_4  and  C_5
REMARK    2  A    between atoms: C_8  and  C_9
REMARK    3  A    between atoms: C_9  and  N_10
REMARK                            x       y       z     vdW  Elec       q    Type
REMARK                         _______ _______ _______ _____ _____    ______ ____
ROOT
ATOM      1  C   UNL     1       0.628   9.623  20.343  0.00  0.00    +0.000 A 
ATOM      2  C   UNL     1       0.657  10.071  19.014  0.00  0.00    +0.000 A 
ATOM      3  C   UNL     1       1.406   9.380  18.054  0.00  0.00    +0.000 A 
ATOM      4  C   UNL     1       2.138   8.238  18.406  0.00  0.00    +0.000 A 
ATOM      5  C   UNL     1       2.080   7.787  19.730  0.00  0.00    +0.000 A 
ATOM      6  C   UNL     1       1.352   8.479  20.697  0.00  0.00    +0.000 A 
ENDROOT
BRANCH   1  10
ATOM      7  C   UNL     1      -1.191  11.880  22.484  0.00  0.00    +0.000 A 
ATOM      8  C   UNL     1      -1.111  10.671  23.182  0.00  0.00    +0.000 A 
ATOM      9  N   UNL     1      -0.531   9.701  22.472  0.00  0.00    +0.000 NA
ATOM     10  N   UNL     1      -0.167  10.300  21.309  0.00  0.00    +0.000 N 
ATOM     11  C   UNL     1      -0.621  11.604  21.263  0.00  0.00    +0.000 A 
ENDBRANCH   1  10
BRANCH   4  12
ATOM     12  C   UNL     1       3.032   7.519  17.401  0.00  0.00    +0.000 C 
BRANCH  12  13
ATOM     13  N   UNL     1       3.880   6.423  17.939  0.00  0.00    +0.000 NA
ATOM     14  C   UNL     1       5.293   6.643  17.581  0.00  0.00    +0.000 C 
ATOM     15  C   UNL     1       6.256   5.522  17.955  0.00  0.00    +0.000 C 
ATOM     16  C   UNL     1       5.738   4.183  17.463  0.00  0.00    +0.000 C 
ATOM     17  C   UNL     1       4.350   3.949  18.059  0.00  0.00    +0.000 C 
ATOM     18  C   UNL     1       3.817   2.569  17.651  0.00  0.00    +0.000 C 
ATOM     19  C   UNL     1       2.441   2.305  18.252  0.00  0.00    +0.000 C 
ATOM     20  C   UNL     1       1.461   3.418  17.904  0.00  0.00    +0.000 C 
ATOM     21  C   UNL     1       2.004   4.795  18.287  0.00  0.00    +0.000 C 
ATOM     22  C   UNL     1       3.373   5.070  17.619  0.00  0.00    +0.000 C 
ENDBRANCH  12  13
ENDBRANCH   4  12
TORSDOF 3
ENDMDL
MODEL 6
REMARK VINA RESULT:      -7.3      0.867      1.122
REMARK  Name = 
REMARK  3 active torsions:
REMARK  status: ('A' for Active; 'I' for Inactive)
REMARK    1  A    between atoms: N_4  and  C_5
REMARK    2  A    between atoms: C_8  and  C_9
REMARK    3  A    between atoms: C_9  and  N_10
REMARK                            x       y       z     vdW  Elec       q    Type
REMARK                         _______ _______ _______ _____ _____    ______ ____
ROOT
ATOM      1  C   UNL     1       0.438  10.111  19.735  0.00  0.00    +0.000 A 
ATOM      2  C   UNL     1       0.506   9.394  20.938  0.00  0.00    +0.000 A 
ATOM      3  C   UNL     1       1.253   8.211  21.014  0.00  0.00    +0.000 A 
ATOM      4  C   UNL     1       1.938   7.727  19.892  0.00  0.00    +0.000 A 
ATOM      5  C   UNL     1       1.883   8.466  18.703  0.00  0.00    +0.000 A 
ATOM      6  C   UNL     1       1.127   9.633  18.614  0.00  0.00    +0.000 A 
ENDROOT
BRANCH   1  10
ATOM      7  C   UNL     1      -1.858  12.883  19.896  0.00  0.00    +0.000 A 
ATOM      8  C   UNL     1      -0.947  13.198  18.882  0.00  0.00    +0.000 A 
ATOM      9  N   UNL     1       0.026  12.293  18.760  0.00  0.00    +0.000 NA
ATOM     10  N   UNL     1      -0.286  11.333  19.670  0.00  0.00    +0.000 N 
ATOM     11  C   UNL     1      -1.384  11.704  20.421  0.00  0.00    +0.000 A 
ENDBRANCH   1  10
BRANCH   4  12
ATOM     12  C   UNL     1       2.685   6.398  19.922  0.00  0.00    +0.000 C 
BRANCH  12  13
ATOM     13  N   UNL     1       2.504   5.513  18.741  0.00  0.00    +0.000 NA
ATOM     14  C   UNL     1       1.725   4.317  19.111  0.00  0.00    +0.000 C 
ATOM     15  C   UNL     1       1.579   3.258  18.025  0.00  0.00    +0.000 C 
ATOM     16  C   UNL     1       2.931   2.906  17.434  0.00  0.00    +0.000 C 
ATOM     17  C   UNL     1       3.571   4.181  16.886  0.00  0.00    +0.000 C 
ATOM     18  C   UNL     1       4.910   3.861  16.208  0.00  0.00    +0.000 C 
ATOM     19  C   UNL     1       5.557   5.118  15.636  0.00  0.00    +0.000 C 
ATOM     20  C   UNL     1       5.703   6.199  16.698  0.00  0.00    +0.000 C 
ATOM     21  C   UNL     1       4.374   6.498  17.392  0.00  0.00    +0.000 C 
ATOM     22  C   UNL     1       3.762   5.222  18.020  0.00  0.00    +0.000 C 
ENDBRANCH  12  13
ENDBRANCH   4  12
TORSDOF 3
ENDMDL
MODEL 7
REMARK VINA RESULT:      -7.3      1.553      2.679
REMARK  Name = 
REMARK  3 active torsions:
REMARK  status: ('A' for Active; 'I' for Inactive)
REMARK    1  A    between atoms: N_4  and  C_5
REMARK    2  A    between atoms: C_8  and  C_9
REMARK    3  A    between atoms: C_9  and  N_10
REMARK                            x       y       z     vdW  Elec       q    Type
REMARK                         _______ _______ _______ _____ _____    ______ ____
ROOT
ATOM      1  C   UNL     1       1.677   8.507  19.392  0.00  0.00    +0.000 A 
ATOM      2  C   UNL     1       1.706   7.503  20.371  0.00  0.00    +0.000 A 
ATOM      3  C   UNL     1       2.314   6.271  20.100  0.00  0.00    +0.000 A 
ATOM      4  C   UNL     1       2.898   6.023  18.851  0.00  0.00    +0.000 A 
ATOM      5  C   UNL     1       2.885   7.042  17.891  0.00  0.00    +0.000 A 
ATOM      6  C   UNL     1       2.266   8.265  18.145  0.00  0.00    +0.000 A 
ENDROOT
BRANCH   1  10
ATOM      7  C   UNL     1       0.619  11.940  19.674  0.00  0.00    +0.000 A 
ATOM      8  C   UNL     1       0.174  11.305  20.838  0.00  0.00    +0.000 A 
ATOM      9  N   UNL     1       0.421   9.993  20.840  0.00  0.00    +0.000 NA
ATOM     10  N   UNL     1       1.097   9.772  19.682  0.00  0.00    +0.000 N 
ATOM     11  C   UNL     1       1.165  10.925  18.924  0.00  0.00    +0.000 A 
ENDBRANCH   1  10
BRANCH   4  12
ATOM     12  C   UNL     1       3.488   4.661  18.500  0.00  0.00    +0.000 C 
BRANCH  12  13
ATOM     13  N   UNL     1       4.964   4.605  18.333  0.00  0.00    +0.000 NA
ATOM     14  C   UNL     1       5.630   5.375  19.400  0.00  0.00    +0.000 C 
ATOM     15  C   UNL     1       7.142   5.515  19.273  0.00  0.00    +0.000 C 
ATOM     16  C   UNL     1       7.522   6.001  17.887  0.00  0.00    +0.000 C 
ATOM     17  C   UNL     1       6.964   5.021  16.856  0.00  0.00    +0.000 C 
ATOM     18  C   UNL     1       7.389   5.430  15.440  0.00  0.00    +0.000 C 
ATOM     19  C   UNL     1       6.860   4.453  14.396  0.00  0.00    +0.000 C 
ATOM     20  C   UNL     1       5.351   4.284  14.509  0.00  0.00    +0.000 C 
ATOM     21  C   UNL     1       4.925   3.902  15.927  0.00  0.00    +0.000 C 
ATOM     22  C   UNL     1       5.419   4.938  16.966  0.00  0.00    +0.000 C 
ENDBRANCH  12  13
ENDBRANCH   4  12
TORSDOF 3
ENDMDL
MODEL 8
REMARK VINA RESULT:      -7.3      1.616      2.985
REMARK  Name = 
REMARK  3 active torsions:
REMARK  status: ('A' for Active; 'I' for Inactive)
REMARK    1  A    between atoms: N_4  and  C_5
REMARK    2  A    between atoms: C_8  and  C_9
REMARK    3  A    between atoms: C_9  and  N_10
REMARK                            x       y       z     vdW  Elec       q    Type
REMARK                         _______ _______ _______ _____ _____    ______ ____
ROOT
ATOM      1  C   UNL     1       1.750   8.227  19.407  0.00  0.00    +0.000 A 
ATOM      2  C   UNL     1       2.328   7.979  18.154  0.00  0.00    +0.000 A 
ATOM      3  C   UNL     1       2.927   6.741  17.886  0.00  0.00    +0.000 A 
ATOM      4  C   UNL     1       2.960   5.738  18.863  0.00  0.00    +0.000 A 
ATOM      5  C   UNL     1       2.357   5.989  20.102  0.00  0.00    +0.000 A 
ATOM      6  C   UNL     1       1.775   7.224  20.384  0.00  0.00    +0.000 A 
ENDROOT
BRANCH   1  10
ATOM      7  C   UNL     1       0.543  11.614  19.632  0.00  0.00    +0.000 A 
ATOM      8  C   UNL     1       0.056  10.958  20.767  0.00  0.00    +0.000 A 
ATOM      9  N   UNL     1       0.354   9.657  20.781  0.00  0.00    +0.000 NA
ATOM     10  N   UNL     1       1.105   9.467  19.664  0.00  0.00    +0.000 N 
ATOM     11  C   UNL     1       1.172  10.624  18.913  0.00  0.00    +0.000 A 
ENDBRANCH   1  10
BRANCH   4  12
ATOM     12  C   UNL     1       3.682   4.415  18.628  0.00  0.00    +0.000 C 
BRANCH  12  13
ATOM     13  N   UNL     1       5.147   4.499  18.388  0.00  0.00    +0.000 NA
ATOM     14  C   UNL     1       5.792   5.320  19.428  0.00  0.00    +0.000 C 
ATOM     15  C   UNL     1       7.277   5.601  19.228  0.00  0.00    +0.000 C 
ATOM     16  C   UNL     1       7.539   6.130  17.830  0.00  0.00    +0.000 C 
ATOM     17  C   UNL     1       7.022   5.109  16.817  0.00  0.00    +0.000 C 
ATOM     18  C   UNL     1       7.335   5.567  15.386  0.00  0.00    +0.000 C 
ATOM     19  C   UNL     1       6.846   4.552  14.359  0.00  0.00    +0.000 C 
ATOM     20  C   UNL     1       5.366   4.243  14.545  0.00  0.00    +0.000 C 
ATOM     21  C   UNL     1       5.051   3.813  15.978  0.00  0.00    +0.000 C 
ATOM     22  C   UNL     1       5.499   4.882  17.003  0.00  0.00    +0.000 C 
ENDBRANCH  12  13
ENDBRANCH   4  12
TORSDOF 3
ENDMDL
MODEL 9
REMARK VINA RESULT:      -7.1      1.697      3.137
REMARK  Name = 
REMARK  3 active torsions:
REMARK  status: ('A' for Active; 'I' for Inactive)
REMARK    1  A    between atoms: N_4  and  C_5
REMARK    2  A    between atoms: C_8  and  C_9
REMARK    3  A    between atoms: C_9  and  N_10
REMARK                            x       y       z     vdW  Elec       q    Type
REMARK                         _______ _______ _______ _____ _____    ______ ____
ROOT
ATOM      1  C   UNL     1       0.687  10.129  19.922  0.00  0.00    +0.000 A 
ATOM      2  C   UNL     1       1.090   8.970  20.602  0.00  0.00    +0.000 A 
ATOM      3  C   UNL     1       1.804   7.970  19.930  0.00  0.00    +0.000 A 
ATOM      4  C   UNL     1       2.123   8.111  18.573  0.00  0.00    +0.000 A 
ATOM      5  C   UNL     1       1.737   9.284  17.912  0.00  0.00    +0.000 A 
ATOM      6  C   UNL     1       1.010  10.276  18.568  0.00  0.00    +0.000 A 
ENDROOT
BRANCH   1  10
ATOM      7  C   UNL     1      -1.461  12.740  21.168  0.00  0.00    +0.000 A 
ATOM      8  C   UNL     1      -0.269  12.846  21.892  0.00  0.00    +0.000 A 
ATOM      9  N   UNL     1       0.604  11.881  21.597  0.00  0.00    +0.000 NA
ATOM     10  N   UNL     1      -0.001  11.162  20.615  0.00  0.00    +0.000 N 
ATOM     11  C   UNL     1      -1.284  11.620  20.390  0.00  0.00    +0.000 A 
ENDBRANCH   1  10
BRANCH   4  12
ATOM     12  C   UNL     1       2.821   7.000  17.795  0.00  0.00    +0.000 C 
BRANCH  12  13
ATOM     13  N   UNL     1       3.530   5.975  18.605  0.00  0.00    +0.000 NA
ATOM     14  C   UNL     1       4.990   6.128  18.463  0.00  0.00    +0.000 C 
ATOM     15  C   UNL     1       5.839   5.055  19.136  0.00  0.00    +0.000 C 
ATOM     16  C   UNL     1       5.363   3.669  18.741  0.00  0.00    +0.000 C 
ATOM     17  C   UNL     1       3.889   3.534  19.121  0.00  0.00    +0.000 C 
ATOM     18  C   UNL     1       3.383   2.118  18.811  0.00  0.00    +0.000 C 
ATOM     19  C   UNL     1       1.919   1.954  19.202  0.00  0.00    +0.000 C 
ATOM     20  C   UNL     1       1.048   3.023  18.554  0.00  0.00    +0.000 C 
ATOM     21  C   UNL     1       1.569   4.431  18.841  0.00  0.00    +0.000 C 
ATOM     22  C   UNL     1       3.037   4.598  18.382  0.00  0.00    +0.000 C 
ENDBRANCH  12  13
ENDBRANCH   4  12
TORSDOF 3
ENDMDL
