MODEL 1
REMARK VINA RESULT:      -7.9      0.000      0.000
REMARK  Name = 
REMARK  7 active torsions:
REMARK  status: ('A' for Active; 'I' for Inactive)
REMARK    1  A    between atoms: C_1  and  C_2
REMARK    2  A    between atoms: C_2  and  N_3
REMARK    3  A    between atoms: C_2  and  C_18
REMARK    4  A    between atoms: C_4  and  C_6
REMARK    5  A    between atoms: C_6  and  N_7
REMARK    6  A    between atoms: C_8  and  C_10
REMARK    7  A    between atoms: C_14  and  C_15
REMARK                            x       y       z     vdW  Elec       q    Type
REMARK                         _______ _______ _______ _____ _____    ______ ____
ROOT
ATOM      1  C   UNL     1       1.481   9.689  18.731  0.00  0.00    +0.000 C 
ENDROOT
BRANCH   1   3
ATOM      2  N   UNL     1       2.296   7.383  18.751  0.00  0.00    +0.000 N 
ATOM      3  C   UNL     1       2.242   8.556  18.029  0.00  0.00    +0.000 C 
ATOM      4  O   UNL     1       2.704   8.689  16.898  0.00  0.00    +0.000 OA
ATOM      5  H   UNL     1       1.663   7.315  19.542  0.00  0.00    +0.000 HD
BRANCH   2   7
ATOM      6  C   UNL     1       4.362   6.060  18.516  0.00  0.00    +0.000 C 
ATOM      7  C   UNL     1       2.860   6.142  18.226  0.00  0.00    +0.000 C 
BRANCH   7   8
ATOM      8  C   UNL     1       2.126   4.943  18.802  0.00  0.00    +0.000 A 
ATOM      9  C   UNL     1       1.824   4.890  20.172  0.00  0.00    +0.000 A 
ATOM     10  C   UNL     1       1.197   3.769  20.721  0.00  0.00    +0.000 A 
ATOM     11  C   UNL     1       0.856   2.689  19.909  0.00  0.00    +0.000 A 
ATOM     12  C   UNL     1       1.120   2.740  18.543  0.00  0.00    +0.000 A 
ATOM     13  C   UNL     1       1.744   3.860  17.993  0.00  0.00    +0.000 A 
ENDBRANCH   7   8
ENDBRANCH   2   7
ENDBRANCH   1   3
BRANCH   1  14
ATOM     14  N   UNL     1       0.238  10.008  18.046  0.00  0.00    +0.000 N 
ATOM     15  C   UNL     1      -0.890  10.334  18.760  0.00  0.00    +0.000 C 
ATOM     16  O   UNL     1      -0.892  10.395  19.987  0.00  0.00    +0.000 OA
ATOM     17  H   UNL     1       0.244  10.016  17.035  0.00  0.00    +0.000 HD
BRANCH  15  18
ATOM     18  C   UNL     1      -2.134  10.635  17.994  0.00  0.00    +0.000 A 
ATOM     19  C   UNL     1      -3.207  11.337  18.555  0.00  0.00    +0.000 A 
ATOM     20  C   UNL     1      -4.317  11.663  17.767  0.00  0.00    +0.000 A 
ATOM     21  C   UNL     1      -4.359  11.286  16.424  0.00  0.00    +0.000 A 
ATOM     22  C   UNL     1      -3.295  10.574  15.860  0.00  0.00    +0.000 A 
ATOM     23  C   UNL     1      -2.182  10.254  16.647  0.00  0.00    +0.000 A 
BRANCH  22  24
ATOM     24  C   UNL     1      -3.340  10.186  14.479  0.00  0.00    +0.000 C 
ATOM     25  N   UNL     1      -3.381   9.863  13.364  0.00  0.00    +0.000 NA
ENDBRANCH  22  24
ENDBRANCH  15  18
ENDBRANCH   1  14
TORSDOF 6
ENDMDL
MODEL 2
REMARK VINA RESULT:      -7.5      4.247      6.423
REMARK  Name = 
REMARK  7 active torsions:
REMARK  status: ('A' for Active; 'I' for Inactive)
REMARK    1  A    between atoms: C_1  and  C_2
REMARK    2  A    between atoms: C_2  and  N_3
REMARK    3  A    between atoms: C_2  and  C_18
REMARK    4  A    between atoms: C_4  and  C_6
REMARK    5  A    between atoms: C_6  and  N_7
REMARK    6  A    between atoms: C_8  and  C_10
REMARK    7  A    between atoms: C_14  and  C_15
REMARK                            x       y       z     vdW  Elec       q    Type
REMARK                         _______ _______ _______ _____ _____    ______ ____
ROOT
ATOM      1  C   UNL     1       2.212   3.581  18.371  0.00  0.00    +0.000 C 
ENDROOT
BRANCH   1   3
ATOM      2  N   UNL     1       4.122   4.225  16.986  0.00  0.00    +0.000 N 
ATOM      3  C   UNL     1       3.626   3.279  17.856  0.00  0.00    +0.000 C 
ATOM      4  O   UNL     1       4.262   2.301  18.244  0.00  0.00    +0.000 OA
ATOM      5  H   UNL     1       3.617   5.106  16.947  0.00  0.00    +0.000 HD
BRANCH   2   7
ATOM      6  C   UNL     1       5.508   4.490  14.965  0.00  0.00    +0.000 C 
ATOM      7  C   UNL     1       5.489   4.204  16.469  0.00  0.00    +0.000 C 
BRANCH   7   8
ATOM      8  C   UNL     1       6.354   5.198  17.226  0.00  0.00    +0.000 A 
ATOM      9  C   UNL     1       6.543   6.496  16.724  0.00  0.00    +0.000 A 
ATOM     10  C   UNL     1       7.380   7.400  17.383  0.00  0.00    +0.000 A 
ATOM     11  C   UNL     1       8.032   7.023  18.556  0.00  0.00    +0.000 A 
ATOM     12  C   UNL     1       7.829   5.751  19.083  0.00  0.00    +0.000 A 
ATOM     13  C   UNL     1       6.992   4.848  18.427  0.00  0.00    +0.000 A 
ENDBRANCH   7   8
ENDBRANCH   2   7
ENDBRANCH   1   3
BRANCH   1  14
ATOM     14  N   UNL     1       1.954   5.013  18.424  0.00  0.00    +0.000 N 
ATOM     15  C   UNL     1       2.285   5.742  19.540  0.00  0.00    +0.000 C 
ATOM     16  O   UNL     1       2.828   5.232  20.517  0.00  0.00    +0.000 OA
ATOM     17  H   UNL     1       1.559   5.452  17.603  0.00  0.00    +0.000 HD
BRANCH  15  18
ATOM     18  C   UNL     1       1.978   7.201  19.532  0.00  0.00    +0.000 A 
ATOM     19  C   UNL     1       2.091   7.984  18.377  0.00  0.00    +0.000 A 
ATOM     20  C   UNL     1       1.714   9.332  18.406  0.00  0.00    +0.000 A 
ATOM     21  C   UNL     1       1.229   9.899  19.585  0.00  0.00    +0.000 A 
ATOM     22  C   UNL     1       1.123   9.126  20.747  0.00  0.00    +0.000 A 
ATOM     23  C   UNL     1       1.495   7.777  20.716  0.00  0.00    +0.000 A 
BRANCH  22  24
ATOM     24  C   UNL     1       0.625   9.711  21.958  0.00  0.00    +0.000 C 
ATOM     25  N   UNL     1       0.222  10.194  22.934  0.00  0.00    +0.000 NA
ENDBRANCH  22  24
ENDBRANCH  15  18
ENDBRANCH   1  14
TORSDOF 6
ENDMDL
MODEL 3
REMARK VINA RESULT:      -7.5      0.369      1.068
REMARK  Name = 
REMARK  7 active torsions:
REMARK  status: ('A' for Active; 'I' for Inactive)
REMARK    1  A    between atoms: C_1  and  C_2
REMARK    2  A    between atoms: C_2  and  N_3
REMARK    3  A    between atoms: C_2  and  C_18
REMARK    4  A    between atoms: C_4  and  C_6
REMARK    5  A    between atoms: C_6  and  N_7
REMARK    6  A    between atoms: C_8  and  C_10
REMARK    7  A    between atoms: C_14  and  C_15
REMARK                            x       y       z     vdW  Elec       q    Type
REMARK                         _______ _______ _______ _____ _____    ______ ____
ROOT
ATOM      1  C   UNL     1       1.252   9.630  18.990  0.00  0.00    +0.000 C 
ENDROOT
BRANCH   1   3
ATOM      2  N   UNL     1       2.237   7.391  18.971  0.00  0.00    +0.000 N 
ATOM      3  C   UNL     1       2.082   8.563  18.262  0.00  0.00    +0.000 C 
ATOM      4  O   UNL     1       2.512   8.741  17.125  0.00  0.00    +0.000 OA
ATOM      5  H   UNL     1       1.625   7.269  19.773  0.00  0.00    +0.000 HD
BRANCH   2   7
ATOM      6  C   UNL     1       4.369   6.166  18.792  0.00  0.00    +0.000 C 
ATOM      7  C   UNL     1       2.883   6.200  18.423  0.00  0.00    +0.000 C 
BRANCH   7   8
ATOM      8  C   UNL     1       2.171   4.946  18.902  0.00  0.00    +0.000 A 
ATOM      9  C   UNL     1       1.892   3.905  18.002  0.00  0.00    +0.000 A 
ATOM     10  C   UNL     1       1.190   2.771  18.421  0.00  0.00    +0.000 A 
ATOM     11  C   UNL     1       0.767   2.658  19.743  0.00  0.00    +0.000 A 
ATOM     12  C   UNL     1       1.064   3.667  20.655  0.00  0.00    +0.000 A 
ATOM     13  C   UNL     1       1.767   4.799  20.239  0.00  0.00    +0.000 A 
ENDBRANCH   7   8
ENDBRANCH   2   7
ENDBRANCH   1   3
BRANCH   1  14
ATOM     14  N   UNL     1      -0.030   9.852  18.337  0.00  0.00    +0.000 N 
ATOM     15  C   UNL     1      -0.904  10.796  18.818  0.00  0.00    +0.000 C 
ATOM     16  O   UNL     1      -0.636  11.502  19.787  0.00  0.00    +0.000 OA
ATOM     17  H   UNL     1      -0.236   9.315  17.506  0.00  0.00    +0.000 HD
BRANCH  15  18
ATOM     18  C   UNL     1      -2.206  10.961  18.111  0.00  0.00    +0.000 A 
ATOM     19  C   UNL     1      -3.309  11.583  18.707  0.00  0.00    +0.000 A 
ATOM     20  C   UNL     1      -4.483  11.783  17.970  0.00  0.00    +0.000 A 
ATOM     21  C   UNL     1      -4.556  11.360  16.641  0.00  0.00    +0.000 A 
ATOM     22  C   UNL     1      -3.462  10.728  16.042  0.00  0.00    +0.000 A 
ATOM     23  C   UNL     1      -2.287  10.534  16.778  0.00  0.00    +0.000 A 
BRANCH  22  24
ATOM     24  C   UNL     1      -3.540  10.294  14.677  0.00  0.00    +0.000 C 
ATOM     25  N   UNL     1      -3.609   9.934  13.575  0.00  0.00    +0.000 NA
ENDBRANCH  22  24
ENDBRANCH  15  18
ENDBRANCH   1  14
TORSDOF 6
ENDMDL
MODEL 4
REMARK VINA RESULT:      -7.4      6.413      8.702
REMARK  Name = 
REMARK  7 active torsions:
REMARK  status: ('A' for Active; 'I' for Inactive)
REMARK    1  A    between atoms: C_1  and  C_2
REMARK    2  A    between atoms: C_2  and  N_3
REMARK    3  A    between atoms: C_2  and  C_18
REMARK    4  A    between atoms: C_4  and  C_6
REMARK    5  A    between atoms: C_6  and  N_7
REMARK    6  A    between atoms: C_8  and  C_10
REMARK    7  A    between atoms: C_14  and  C_15
REMARK                            x       y       z     vdW  Elec       q    Type
REMARK                         _______ _______ _______ _____ _____    ______ ____
ROOT
ATOM      1  C   UNL     1       7.084   4.462  17.457  0.00  0.00    +0.000 C 
ENDROOT
BRANCH   1   3
ATOM      2  N   UNL     1       6.996   4.421  15.013  0.00  0.00    +0.000 N 
ATOM      3  C   UNL     1       7.239   5.203  16.122  0.00  0.00    +0.000 C 
ATOM      4  O   UNL     1       7.504   6.402  16.072  0.00  0.00    +0.000 OA
ATOM      5  H   UNL     1       6.538   3.531  15.185  0.00  0.00    +0.000 HD
BRANCH   2   7
ATOM      6  C   UNL     1       8.363   5.388  13.204  0.00  0.00    +0.000 C 
ATOM      7  C   UNL     1       6.966   4.947  13.650  0.00  0.00    +0.000 C 
BRANCH   7   8
ATOM      8  C   UNL     1       6.389   3.912  12.698  0.00  0.00    +0.000 A 
ATOM      9  C   UNL     1       5.006   3.861  12.463  0.00  0.00    +0.000 A 
ATOM     10  C   UNL     1       4.460   2.879  11.632  0.00  0.00    +0.000 A 
ATOM     11  C   UNL     1       5.288   1.942  11.017  0.00  0.00    +0.000 A 
ATOM     12  C   UNL     1       6.665   2.000  11.214  0.00  0.00    +0.000 A 
ATOM     13  C   UNL     1       7.212   2.981  12.042  0.00  0.00    +0.000 A 
ENDBRANCH   7   8
ENDBRANCH   2   7
ENDBRANCH   1   3
BRANCH   1  14
ATOM     14  N   UNL     1       5.709   4.038  17.680  0.00  0.00    +0.000 N 
ATOM     15  C   UNL     1       4.869   4.782  18.472  0.00  0.00    +0.000 C 
ATOM     16  O   UNL     1       5.224   5.834  18.996  0.00  0.00    +0.000 OA
ATOM     17  H   UNL     1       5.390   3.204  17.207  0.00  0.00    +0.000 HD
BRANCH  15  18
ATOM     18  C   UNL     1       3.478   4.281  18.669  0.00  0.00    +0.000 A 
ATOM     19  C   UNL     1       2.541   4.243  17.630  0.00  0.00    +0.000 A 
ATOM     20  C   UNL     1       1.274   3.689  17.851  0.00  0.00    +0.000 A 
ATOM     21  C   UNL     1       0.942   3.176  19.106  0.00  0.00    +0.000 A 
ATOM     22  C   UNL     1       1.870   3.220  20.152  0.00  0.00    +0.000 A 
ATOM     23  C   UNL     1       3.138   3.769  19.929  0.00  0.00    +0.000 A 
BRANCH  22  24
ATOM     24  C   UNL     1       1.526   2.693  21.441  0.00  0.00    +0.000 C 
ATOM     25  N   UNL     1       1.248   2.256  22.481  0.00  0.00    +0.000 NA
ENDBRANCH  22  24
ENDBRANCH  15  18
ENDBRANCH   1  14
TORSDOF 6
ENDMDL
MODEL 5
REMARK VINA RESULT:      -7.4      1.711      8.206
REMARK  Name = 
REMARK  7 active torsions:
REMARK  status: ('A' for Active; 'I' for Inactive)
REMARK    1  A    between atoms: C_1  and  C_2
REMARK    2  A    between atoms: C_2  and  N_3
REMARK    3  A    between atoms: C_2  and  C_18
REMARK    4  A    between atoms: C_4  and  C_6
REMARK    5  A    between atoms: C_6  and  N_7
REMARK    6  A    between atoms: C_8  and  C_10
REMARK    7  A    between atoms: C_14  and  C_15
REMARK                            x       y       z     vdW  Elec       q    Type
REMARK                         _______ _______ _______ _____ _____    ______ ____
ROOT
ATOM      1  C   UNL     1       2.248   8.693  18.182  0.00  0.00    +0.000 C 
ENDROOT
BRANCH   1   3
ATOM      2  N   UNL     1       0.361  10.244  18.060  0.00  0.00    +0.000 N 
ATOM      3  C   UNL     1       1.213   9.565  18.905  0.00  0.00    +0.000 C 
ATOM      4  O   UNL     1       1.133   9.596  20.131  0.00  0.00    +0.000 OA
ATOM      5  H   UNL     1       0.355   9.939  17.091  0.00  0.00    +0.000 HD
BRANCH   2   7
ATOM      6  C   UNL     1      -0.397  12.512  18.660  0.00  0.00    +0.000 C 
ATOM      7  C   UNL     1      -0.776  11.033  18.529  0.00  0.00    +0.000 C 
BRANCH   7   8
ATOM      8  C   UNL     1      -1.963  10.853  17.599  0.00  0.00    +0.000 A 
ATOM      9  C   UNL     1      -1.908   9.915  16.555  0.00  0.00    +0.000 A 
ATOM     10  C   UNL     1      -2.973   9.780  15.662  0.00  0.00    +0.000 A 
ATOM     11  C   UNL     1      -4.111  10.572  15.803  0.00  0.00    +0.000 A 
ATOM     12  C   UNL     1      -4.194  11.484  16.852  0.00  0.00    +0.000 A 
ATOM     13  C   UNL     1      -3.132  11.619  17.746  0.00  0.00    +0.000 A 
ENDBRANCH   7   8
ENDBRANCH   2   7
ENDBRANCH   1   3
BRANCH   1  14
ATOM     14  N   UNL     1       2.003   7.275  18.399  0.00  0.00    +0.000 N 
ATOM     15  C   UNL     1       2.946   6.341  18.047  0.00  0.00    +0.000 C 
ATOM     16  O   UNL     1       4.031   6.657  17.566  0.00  0.00    +0.000 OA
ATOM     17  H   UNL     1       1.136   7.009  18.847  0.00  0.00    +0.000 HD
BRANCH  15  18
ATOM     18  C   UNL     1       2.623   4.904  18.283  0.00  0.00    +0.000 A 
ATOM     19  C   UNL     1       2.718   3.939  17.274  0.00  0.00    +0.000 A 
ATOM     20  C   UNL     1       2.480   2.592  17.570  0.00  0.00    +0.000 A 
ATOM     21  C   UNL     1       2.145   2.208  18.870  0.00  0.00    +0.000 A 
ATOM     22  C   UNL     1       2.038   3.169  19.882  0.00  0.00    +0.000 A 
ATOM     23  C   UNL     1       2.281   4.515  19.586  0.00  0.00    +0.000 A 
BRANCH  22  24
ATOM     24  C   UNL     1       1.692   2.773  21.216  0.00  0.00    +0.000 C 
ATOM     25  N   UNL     1       1.413   2.442  22.295  0.00  0.00    +0.000 NA
ENDBRANCH  22  24
ENDBRANCH  15  18
ENDBRANCH   1  14
TORSDOF 6
ENDMDL
MODEL 6
REMARK VINA RESULT:      -7.4      1.835      8.318
REMARK  Name = 
REMARK  7 active torsions:
REMARK  status: ('A' for Active; 'I' for Inactive)
REMARK    1  A    between atoms: C_1  and  C_2
REMARK    2  A    between atoms: C_2  and  N_3
REMARK    3  A    between atoms: C_2  and  C_18
REMARK    4  A    between atoms: C_4  and  C_6
REMARK    5  A    between atoms: C_6  and  N_7
REMARK    6  A    between atoms: C_8  and  C_10
REMARK    7  A    between atoms: C_14  and  C_15
REMARK                            x       y       z     vdW  Elec       q    Type
REMARK                         _______ _______ _______ _____ _____    ______ ____
ROOT
ATOM      1  C   UNL     1       2.280   8.541  17.847  0.00  0.00    +0.000 C 
ENDROOT
BRANCH   1   3
ATOM      2  N   UNL     1       0.422  10.122  18.017  0.00  0.00    +0.000 N 
ATOM      3  C   UNL     1       1.304   9.335  18.726  0.00  0.00    +0.000 C 
ATOM      4  O   UNL     1       1.293   9.221  19.950  0.00  0.00    +0.000 OA
ATOM      5  H   UNL     1       0.356   9.934  17.021  0.00  0.00    +0.000 HD
BRANCH   2   7
ATOM      6  C   UNL     1      -0.247  12.306  18.943  0.00  0.00    +0.000 C 
ATOM      7  C   UNL     1      -0.671  10.866  18.640  0.00  0.00    +0.000 C 
BRANCH   7   8
ATOM      8  C   UNL     1      -1.904  10.834  17.753  0.00  0.00    +0.000 A 
ATOM      9  C   UNL     1      -3.017  11.633  18.062  0.00  0.00    +0.000 A 
ATOM     10  C   UNL     1      -4.176  11.571  17.284  0.00  0.00    +0.000 A 
ATOM     11  C   UNL     1      -4.236  10.719  16.183  0.00  0.00    +0.000 A 
ATOM     12  C   UNL     1      -3.129   9.945  15.845  0.00  0.00    +0.000 A 
ATOM     13  C   UNL     1      -1.970  10.007  16.619  0.00  0.00    +0.000 A 
ENDBRANCH   7   8
ENDBRANCH   2   7
ENDBRANCH   1   3
BRANCH   1  14
ATOM     14  N   UNL     1       2.237   7.117  18.148  0.00  0.00    +0.000 N 
ATOM     15  C   UNL     1       3.330   6.319  17.906  0.00  0.00    +0.000 C 
ATOM     16  O   UNL     1       4.381   6.769  17.459  0.00  0.00    +0.000 OA
ATOM     17  H   UNL     1       1.396   6.748  18.569  0.00  0.00    +0.000 HD
BRANCH  15  18
ATOM     18  C   UNL     1       3.212   4.867  18.224  0.00  0.00    +0.000 A 
ATOM     19  C   UNL     1       3.684   3.871  17.362  0.00  0.00    +0.000 A 
ATOM     20  C   UNL     1       3.621   2.526  17.745  0.00  0.00    +0.000 A 
ATOM     21  C   UNL     1       3.085   2.175  18.985  0.00  0.00    +0.000 A 
ATOM     22  C   UNL     1       2.601   3.164  19.848  0.00  0.00    +0.000 A 
ATOM     23  C   UNL     1       2.669   4.509  19.466  0.00  0.00    +0.000 A 
BRANCH  22  24
ATOM     24  C   UNL     1       2.049   2.801  21.121  0.00  0.00    +0.000 C 
ATOM     25  N   UNL     1       1.607   2.515  22.157  0.00  0.00    +0.000 NA
ENDBRANCH  22  24
ENDBRANCH  15  18
ENDBRANCH   1  14
TORSDOF 6
ENDMDL
MODEL 7
REMARK VINA RESULT:      -7.4      6.019      8.732
REMARK  Name = 
REMARK  7 active torsions:
REMARK  status: ('A' for Active; 'I' for Inactive)
REMARK    1  A    between atoms: C_1  and  C_2
REMARK    2  A    between atoms: C_2  and  N_3
REMARK    3  A    between atoms: C_2  and  C_18
REMARK    4  A    between atoms: C_4  and  C_6
REMARK    5  A    between atoms: C_6  and  N_7
REMARK    6  A    between atoms: C_8  and  C_10
REMARK    7  A    between atoms: C_14  and  C_15
REMARK                            x       y       z     vdW  Elec       q    Type
REMARK                         _______ _______ _______ _____ _____    ______ ____
ROOT
ATOM      1  C   UNL     1       7.154   4.532  17.184  0.00  0.00    +0.000 C 
ENDROOT
BRANCH   1   3
ATOM      2  N   UNL     1       7.269   4.488  14.741  0.00  0.00    +0.000 N 
ATOM      3  C   UNL     1       6.964   5.256  15.844  0.00  0.00    +0.000 C 
ATOM      4  O   UNL     1       6.522   6.401  15.783  0.00  0.00    +0.000 OA
ATOM      5  H   UNL     1       7.370   3.490  14.905  0.00  0.00    +0.000 HD
BRANCH   2   7
ATOM      6  C   UNL     1       8.294   5.616  12.804  0.00  0.00    +0.000 C 
ATOM      7  C   UNL     1       7.046   4.930  13.367  0.00  0.00    +0.000 C 
BRANCH   7   8
ATOM      8  C   UNL     1       6.627   3.757  12.496  0.00  0.00    +0.000 A 
ATOM      9  C   UNL     1       5.266   3.470  12.303  0.00  0.00    +0.000 A 
ATOM     10  C   UNL     1       4.872   2.362  11.549  0.00  0.00    +0.000 A 
ATOM     11  C   UNL     1       5.829   1.532  10.970  0.00  0.00    +0.000 A 
ATOM     12  C   UNL     1       7.182   1.822  11.125  0.00  0.00    +0.000 A 
ATOM     13  C   UNL     1       7.578   2.929  11.876  0.00  0.00    +0.000 A 
ENDBRANCH   7   8
ENDBRANCH   2   7
ENDBRANCH   1   3
BRANCH   1  14
ATOM     14  N   UNL     1       6.100   4.865  18.131  0.00  0.00    +0.000 N 
ATOM     15  C   UNL     1       4.824   4.390  17.951  0.00  0.00    +0.000 C 
ATOM     16  O   UNL     1       4.526   3.654  17.014  0.00  0.00    +0.000 OA
ATOM     17  H   UNL     1       6.348   5.424  18.936  0.00  0.00    +0.000 HD
BRANCH  15  18
ATOM     18  C   UNL     1       3.790   4.783  18.951  0.00  0.00    +0.000 A 
ATOM     19  C   UNL     1       3.257   6.077  19.009  0.00  0.00    +0.000 A 
ATOM     20  C   UNL     1       2.232   6.371  19.915  0.00  0.00    +0.000 A 
ATOM     21  C   UNL     1       1.740   5.377  20.764  0.00  0.00    +0.000 A 
ATOM     22  C   UNL     1       2.275   4.085  20.719  0.00  0.00    +0.000 A 
ATOM     23  C   UNL     1       3.297   3.791  19.809  0.00  0.00    +0.000 A 
BRANCH  22  24
ATOM     24  C   UNL     1       1.769   3.066  21.593  0.00  0.00    +0.000 C 
ATOM     25  N   UNL     1       1.359   2.248  22.308  0.00  0.00    +0.000 NA
ENDBRANCH  22  24
ENDBRANCH  15  18
ENDBRANCH   1  14
TORSDOF 6
ENDMDL
MODEL 8
REMARK VINA RESULT:      -7.4      4.394      6.491
REMARK  Name = 
REMARK  7 active torsions:
REMARK  status: ('A' for Active; 'I' for Inactive)
REMARK    1  A    between atoms: C_1  and  C_2
REMARK    2  A    between atoms: C_2  and  N_3
REMARK    3  A    between atoms: C_2  and  C_18
REMARK    4  A    between atoms: C_4  and  C_6
REMARK    5  A    between atoms: C_6  and  N_7
REMARK    6  A    between atoms: C_8  and  C_10
REMARK    7  A    between atoms: C_14  and  C_15
REMARK                            x       y       z     vdW  Elec       q    Type
REMARK                         _______ _______ _______ _____ _____    ______ ____
ROOT
ATOM      1  C   UNL     1       2.169   3.510  18.805  0.00  0.00    +0.000 C 
ENDROOT
BRANCH   1   3
ATOM      2  N   UNL     1       4.165   4.288  17.625  0.00  0.00    +0.000 N 
ATOM      3  C   UNL     1       3.413   3.184  17.968  0.00  0.00    +0.000 C 
ATOM      4  O   UNL     1       3.723   2.028  17.688  0.00  0.00    +0.000 OA
ATOM      5  H   UNL     1       3.956   5.146  18.128  0.00  0.00    +0.000 HD
BRANCH   2   7
ATOM      6  C   UNL     1       5.270   4.326  15.422  0.00  0.00    +0.000 C 
ATOM      7  C   UNL     1       5.452   4.202  16.938  0.00  0.00    +0.000 C 
BRANCH   7   8
ATOM      8  C   UNL     1       6.403   5.264  17.463  0.00  0.00    +0.000 A 
ATOM      9  C   UNL     1       7.190   5.008  18.598  0.00  0.00    +0.000 A 
ATOM     10  C   UNL     1       8.028   5.997  19.121  0.00  0.00    +0.000 A 
ATOM     11  C   UNL     1       8.098   7.249  18.514  0.00  0.00    +0.000 A 
ATOM     12  C   UNL     1       7.348   7.507  17.369  0.00  0.00    +0.000 A 
ATOM     13  C   UNL     1       6.513   6.520  16.844  0.00  0.00    +0.000 A 
ENDBRANCH   7   8
ENDBRANCH   2   7
ENDBRANCH   1   3
BRANCH   1  14
ATOM     14  N   UNL     1       1.927   4.944  18.873  0.00  0.00    +0.000 N 
ATOM     15  C   UNL     1       2.041   5.616  20.066  0.00  0.00    +0.000 C 
ATOM     16  O   UNL     1       2.373   5.052  21.105  0.00  0.00    +0.000 OA
ATOM     17  H   UNL     1       1.708   5.427  18.013  0.00  0.00    +0.000 HD
BRANCH  15  18
ATOM     18  C   UNL     1       1.764   7.081  20.066  0.00  0.00    +0.000 A 
ATOM     19  C   UNL     1       1.942   7.877  18.928  0.00  0.00    +0.000 A 
ATOM     20  C   UNL     1       1.590   9.232  18.960  0.00  0.00    +0.000 A 
ATOM     21  C   UNL     1       1.065   9.792  20.126  0.00  0.00    +0.000 A 
ATOM     22  C   UNL     1       0.894   9.005  21.270  0.00  0.00    +0.000 A 
ATOM     23  C   UNL     1       1.241   7.650  21.235  0.00  0.00    +0.000 A 
BRANCH  22  24
ATOM     24  C   UNL     1       0.355   9.584  22.467  0.00  0.00    +0.000 C 
ATOM     25  N   UNL     1      -0.077  10.061  23.434  0.00  0.00    +0.000 NA
ENDBRANCH  22  24
ENDBRANCH  15  18
ENDBRANCH   1  14
TORSDOF 6
ENDMDL
MODEL 9
REMARK VINA RESULT:      -7.4      2.658      7.956
REMARK  Name = 
REMARK  7 active torsions:
REMARK  status: ('A' for Active; 'I' for Inactive)
REMARK    1  A    between atoms: C_1  and  C_2
REMARK    2  A    between atoms: C_2  and  N_3
REMARK    3  A    between atoms: C_2  and  C_18
REMARK    4  A    between atoms: C_4  and  C_6
REMARK    5  A    between atoms: C_6  and  N_7
REMARK    6  A    between atoms: C_8  and  C_10
REMARK    7  A    between atoms: C_14  and  C_15
REMARK                            x       y       z     vdW  Elec       q    Type
REMARK                         _______ _______ _______ _____ _____    ______ ____
ROOT
ATOM      1  C   UNL     1       2.633   8.551  17.627  0.00  0.00    +0.000 C 
ENDROOT
BRANCH   1   3
ATOM      2  N   UNL     1       0.505   9.481  18.392  0.00  0.00    +0.000 N 
ATOM      3  C   UNL     1       1.799   9.777  18.023  0.00  0.00    +0.000 C 
ATOM      4  O   UNL     1       2.281  10.907  18.053  0.00  0.00    +0.000 OA
ATOM      5  H   UNL     1       0.305   8.502  18.576  0.00  0.00    +0.000 HD
BRANCH   2   7
ATOM      6  C   UNL     1      -1.813  10.313  18.290  0.00  0.00    +0.000 C 
ATOM      7  C   UNL     1      -0.427  10.474  18.922  0.00  0.00    +0.000 C 
BRANCH   7   8
ATOM      8  C   UNL     1      -0.502  10.374  20.436  0.00  0.00    +0.000 A 
ATOM      9  C   UNL     1      -0.161   9.175  21.083  0.00  0.00    +0.000 A 
ATOM     10  C   UNL     1      -0.278   9.056  22.470  0.00  0.00    +0.000 A 
ATOM     11  C   UNL     1      -0.727  10.134  23.230  0.00  0.00    +0.000 A 
ATOM     12  C   UNL     1      -1.038  11.340  22.607  0.00  0.00    +0.000 A 
ATOM     13  C   UNL     1      -0.919  11.461  21.222  0.00  0.00    +0.000 A 
ENDBRANCH   7   8
ENDBRANCH   2   7
ENDBRANCH   1   3
BRANCH   1  14
ATOM     14  N   UNL     1       2.395   7.427  18.522  0.00  0.00    +0.000 N 
ATOM     15  C   UNL     1       3.025   6.224  18.314  0.00  0.00    +0.000 C 
ATOM     16  O   UNL     1       3.823   6.054  17.396  0.00  0.00    +0.000 OA
ATOM     17  H   UNL     1       1.784   7.575  19.313  0.00  0.00    +0.000 HD
BRANCH  15  18
ATOM     18  C   UNL     1       2.724   5.111  19.260  0.00  0.00    +0.000 A 
ATOM     19  C   UNL     1       1.471   4.962  19.866  0.00  0.00    +0.000 A 
ATOM     20  C   UNL     1       1.218   3.854  20.684  0.00  0.00    +0.000 A 
ATOM     21  C   UNL     1       2.213   2.898  20.898  0.00  0.00    +0.000 A 
ATOM     22  C   UNL     1       3.470   3.047  20.304  0.00  0.00    +0.000 A 
ATOM     23  C   UNL     1       3.721   4.152  19.483  0.00  0.00    +0.000 A 
BRANCH  22  24
ATOM     24  C   UNL     1       4.492   2.064  20.527  0.00  0.00    +0.000 C 
ATOM     25  N   UNL     1       5.320   1.272  20.717  0.00  0.00    +0.000 NA
ENDBRANCH  22  24
ENDBRANCH  15  18
ENDBRANCH   1  14
TORSDOF 6
ENDMDL
