MODEL 1
REMARK VINA RESULT:      -8.8      0.000      0.000
REMARK  Name = 
REMARK  4 active torsions:
REMARK  status: ('A' for Active; 'I' for Inactive)
REMARK    1  A    between atoms: C_1  and  C_2
REMARK    2  A    between atoms: C_6  and  C_7
REMARK    3  A    between atoms: C_14  and  C_15
REMARK    4  A    between atoms: C_16  and  C_17
REMARK                            x       y       z     vdW  Elec       q    Type
REMARK                         _______ _______ _______ _____ _____    ______ ____
ROOT
ATOM      1  C   UNL     1       3.534   3.455  17.418  0.00  0.00    +0.000 C 
ATOM      2  O   UNL     1       3.701   2.249  17.614  0.00  0.00    +0.000 OA
ATOM      3  N   UNL     1       4.606   4.273  17.064  0.00  0.00    +0.000 N 
ATOM      4  C   UNL     1       5.926   3.645  16.830  0.00  0.00    +0.000 C 
ATOM      5  C   UNL     1       7.047   4.335  17.629  0.00  0.00    +0.000 C 
ATOM      6  C   UNL     1       6.884   5.815  17.558  0.00  0.00    +0.000 A 
ATOM      7  N   UNL     1       7.883   6.679  17.948  0.00  0.00    +0.000 NA
ATOM      8  C   UNL     1       7.459   7.921  17.825  0.00  0.00    +0.000 A 
ATOM      9  S   UNL     1       5.852   8.103  17.227  0.00  0.00    +0.000 S 
ATOM     10  C   UNL     1       5.714   6.408  17.131  0.00  0.00    +0.000 A 
ATOM     11  C   UNL     1       4.504   5.683  16.644  0.00  0.00    +0.000 C 
ENDROOT
BRANCH   1  17
ATOM     12  C   UNL     1       2.366   6.857  20.265  0.00  0.00    +0.000 C 
ATOM     13  C   UNL     1       2.378   5.435  19.704  0.00  0.00    +0.000 C 
ATOM     14  C   UNL     1       1.331   4.561  20.396  0.00  0.00    +0.000 C 
ATOM     15  C   UNL     1       1.304   3.154  19.808  0.00  0.00    +0.000 C 
ATOM     16  C   UNL     1       1.142   3.155  18.285  0.00  0.00    +0.000 C 
ATOM     17  C   UNL     1       2.131   4.079  17.542  0.00  0.00    +0.000 C 
ATOM     18  C   UNL     1       2.129   5.471  18.193  0.00  0.00    +0.000 C 
ENDBRANCH   1  17
BRANCH   8  19
ATOM     19  C   UNL     1       8.293   9.021  18.184  0.00  0.00    +0.000 C 
ATOM     20  C   UNL     1       9.018   9.944  18.448  0.00  0.00    +0.000 C 
BRANCH  20  21
ATOM     21  C   UNL     1       9.906  11.032  18.718  0.00  0.00    +0.000 A 
ATOM     22  C   UNL     1      10.085  11.472  20.033  0.00  0.00    +0.000 A 
ATOM     23  C   UNL     1      10.933  12.545  20.306  0.00  0.00    +0.000 A 
ATOM     24  C   UNL     1      11.606  13.183  19.265  0.00  0.00    +0.000 A 
ATOM     25  C   UNL     1      11.435  12.744  17.951  0.00  0.00    +0.000 A 
ATOM     26  C   UNL     1      10.586  11.668  17.677  0.00  0.00    +0.000 A 
ENDBRANCH  20  21
ENDBRANCH   8  19
TORSDOF 3
ENDMDL
MODEL 2
REMARK VINA RESULT:      -8.5      0.707      1.004
REMARK  Name = 
REMARK  4 active torsions:
REMARK  status: ('A' for Active; 'I' for Inactive)
REMARK    1  A    between atoms: C_1  and  C_2
REMARK    2  A    between atoms: C_6  and  C_7
REMARK    3  A    between atoms: C_14  and  C_15
REMARK    4  A    between atoms: C_16  and  C_17
REMARK                            x       y       z     vdW  Elec       q    Type
REMARK                         _______ _______ _______ _____ _____    ______ ____
ROOT
ATOM      1  C   UNL     1       3.653   3.764  17.484  0.00  0.00    +0.000 C 
ATOM      2  O   UNL     1       3.832   2.544  17.466  0.00  0.00    +0.000 OA
ATOM      3  N   UNL     1       4.650   4.636  17.052  0.00  0.00    +0.000 N 
ATOM      4  C   UNL     1       5.889   4.064  16.477  0.00  0.00    +0.000 C 
ATOM      5  C   UNL     1       7.155   4.642  17.136  0.00  0.00    +0.000 C 
ATOM      6  C   UNL     1       7.007   6.114  17.313  0.00  0.00    +0.000 A 
ATOM      7  N   UNL     1       8.079   6.922  17.624  0.00  0.00    +0.000 NA
ATOM      8  C   UNL     1       7.661   8.165  17.767  0.00  0.00    +0.000 A 
ATOM      9  S   UNL     1       5.973   8.415  17.524  0.00  0.00    +0.000 S 
ATOM     10  C   UNL     1       5.788   6.751  17.212  0.00  0.00    +0.000 A 
ATOM     11  C   UNL     1       4.494   6.091  16.868  0.00  0.00    +0.000 C 
ENDROOT
BRANCH   1  17
ATOM     12  C   UNL     1       2.280   4.045  21.851  0.00  0.00    +0.000 C 
ATOM     13  C   UNL     1       2.270   3.554  20.403  0.00  0.00    +0.000 C 
ATOM     14  C   UNL     1       1.040   2.690  20.123  0.00  0.00    +0.000 C 
ATOM     15  C   UNL     1       0.999   2.237  18.668  0.00  0.00    +0.000 C 
ATOM     16  C   UNL     1       1.123   3.403  17.683  0.00  0.00    +0.000 C 
ATOM     17  C   UNL     1       2.311   4.348  17.967  0.00  0.00    +0.000 C 
ATOM     18  C   UNL     1       2.311   4.751  19.449  0.00  0.00    +0.000 C 
ENDBRANCH   1  17
BRANCH   8  19
ATOM     19  C   UNL     1       8.568   9.210  18.113  0.00  0.00    +0.000 C 
ATOM     20  C   UNL     1       9.299  10.118  18.410  0.00  0.00    +0.000 C 
BRANCH  20  21
ATOM     21  C   UNL     1      10.125  11.230  18.765  0.00  0.00    +0.000 A 
ATOM     22  C   UNL     1      10.077  11.742  20.065  0.00  0.00    +0.000 A 
ATOM     23  C   UNL     1      10.863  12.840  20.418  0.00  0.00    +0.000 A 
ATOM     24  C   UNL     1      11.699  13.430  19.471  0.00  0.00    +0.000 A 
ATOM     25  C   UNL     1      11.754  12.919  18.173  0.00  0.00    +0.000 A 
ATOM     26  C   UNL     1      10.968  11.819  17.820  0.00  0.00    +0.000 A 
ENDBRANCH  20  21
ENDBRANCH   8  19
TORSDOF 3
ENDMDL
MODEL 3
REMARK VINA RESULT:      -8.5      1.380      2.235
REMARK  Name = 
REMARK  4 active torsions:
REMARK  status: ('A' for Active; 'I' for Inactive)
REMARK    1  A    between atoms: C_1  and  C_2
REMARK    2  A    between atoms: C_6  and  C_7
REMARK    3  A    between atoms: C_14  and  C_15
REMARK    4  A    between atoms: C_16  and  C_17
REMARK                            x       y       z     vdW  Elec       q    Type
REMARK                         _______ _______ _______ _____ _____    ______ ____
ROOT
ATOM      1  C   UNL     1       4.826   4.110  18.819  0.00  0.00    +0.000 C 
ATOM      2  O   UNL     1       5.081   3.073  19.436  0.00  0.00    +0.000 OA
ATOM      3  N   UNL     1       5.851   4.914  18.325  0.00  0.00    +0.000 N 
ATOM      4  C   UNL     1       7.248   4.444  18.468  0.00  0.00    +0.000 C 
ATOM      5  C   UNL     1       8.158   5.514  19.098  0.00  0.00    +0.000 C 
ATOM      6  C   UNL     1       7.860   6.848  18.504  0.00  0.00    +0.000 A 
ATOM      7  N   UNL     1       8.697   7.929  18.679  0.00  0.00    +0.000 NA
ATOM      8  C   UNL     1       8.174   8.986  18.090  0.00  0.00    +0.000 A 
ATOM      9  S   UNL     1       6.667   8.724  17.293  0.00  0.00    +0.000 S 
ATOM     10  C   UNL     1       6.716   7.090  17.773  0.00  0.00    +0.000 A 
ATOM     11  C   UNL     1       5.674   6.077  17.436  0.00  0.00    +0.000 C 
ENDROOT
BRANCH   1  17
ATOM     12  C   UNL     1       1.218   2.888  21.375  0.00  0.00    +0.000 C 
ATOM     13  C   UNL     1       2.112   2.934  20.135  0.00  0.00    +0.000 C 
ATOM     14  C   UNL     1       1.435   2.259  18.942  0.00  0.00    +0.000 C 
ATOM     15  C   UNL     1       2.300   2.343  17.690  0.00  0.00    +0.000 C 
ATOM     16  C   UNL     1       2.738   3.776  17.372  0.00  0.00    +0.000 C 
ATOM     17  C   UNL     1       3.365   4.527  18.566  0.00  0.00    +0.000 C 
ATOM     18  C   UNL     1       2.460   4.387  19.800  0.00  0.00    +0.000 C 
ENDBRANCH   1  17
BRANCH   8  19
ATOM     19  C   UNL     1       8.828  10.252  18.136  0.00  0.00    +0.000 C 
ATOM     20  C   UNL     1       9.418  11.299  18.186  0.00  0.00    +0.000 C 
BRANCH  20  21
ATOM     21  C   UNL     1      10.162  12.518  18.261  0.00  0.00    +0.000 A 
ATOM     22  C   UNL     1      10.798  13.013  17.118  0.00  0.00    +0.000 A 
ATOM     23  C   UNL     1      11.545  14.191  17.184  0.00  0.00    +0.000 A 
ATOM     24  C   UNL     1      11.658  14.876  18.393  0.00  0.00    +0.000 A 
ATOM     25  C   UNL     1      11.021  14.388  19.535  0.00  0.00    +0.000 A 
ATOM     26  C   UNL     1      10.272  13.210  19.469  0.00  0.00    +0.000 A 
ENDBRANCH  20  21
ENDBRANCH   8  19
TORSDOF 3
ENDMDL
MODEL 4
REMARK VINA RESULT:      -8.4      1.019      1.488
REMARK  Name = 
REMARK  4 active torsions:
REMARK  status: ('A' for Active; 'I' for Inactive)
REMARK    1  A    between atoms: C_1  and  C_2
REMARK    2  A    between atoms: C_6  and  C_7
REMARK    3  A    between atoms: C_14  and  C_15
REMARK    4  A    between atoms: C_16  and  C_17
REMARK                            x       y       z     vdW  Elec       q    Type
REMARK                         _______ _______ _______ _____ _____    ______ ____
ROOT
ATOM      1  C   UNL     1       4.280   4.147  18.111  0.00  0.00    +0.000 C 
ATOM      2  O   UNL     1       4.386   3.045  18.654  0.00  0.00    +0.000 OA
ATOM      3  N   UNL     1       5.412   4.885  17.771  0.00  0.00    +0.000 N 
ATOM      4  C   UNL     1       6.744   4.274  17.985  0.00  0.00    +0.000 C 
ATOM      5  C   UNL     1       7.687   5.199  18.775  0.00  0.00    +0.000 C 
ATOM      6  C   UNL     1       7.562   6.597  18.276  0.00  0.00    +0.000 A 
ATOM      7  N   UNL     1       8.473   7.575  18.611  0.00  0.00    +0.000 NA
ATOM      8  C   UNL     1       8.100   8.721  18.074  0.00  0.00    +0.000 A 
ATOM      9  S   UNL     1       6.652   8.668  17.139  0.00  0.00    +0.000 S 
ATOM     10  C   UNL     1       6.513   7.005  17.479  0.00  0.00    +0.000 A 
ATOM     11  C   UNL     1       5.418   6.125  16.974  0.00  0.00    +0.000 C 
ENDROOT
BRANCH   1  17
ATOM     12  C   UNL     1       1.636   6.569  20.971  0.00  0.00    +0.000 C 
ATOM     13  C   UNL     1       2.050   5.376  20.110  0.00  0.00    +0.000 C 
ATOM     14  C   UNL     1       0.922   4.348  20.014  0.00  0.00    +0.000 C 
ATOM     15  C   UNL     1       1.309   3.178  19.116  0.00  0.00    +0.000 C 
ATOM     16  C   UNL     1       1.798   3.631  17.737  0.00  0.00    +0.000 C 
ATOM     17  C   UNL     1       2.890   4.721  17.778  0.00  0.00    +0.000 C 
ATOM     18  C   UNL     1       2.452   5.859  18.713  0.00  0.00    +0.000 C 
ENDBRANCH   1  17
BRANCH   8  19
ATOM     19  C   UNL     1       8.858   9.911  18.281  0.00  0.00    +0.000 C 
ATOM     20  C   UNL     1       9.461  10.938  18.452  0.00  0.00    +0.000 C 
BRANCH  20  21
ATOM     21  C   UNL     1      10.132  12.186  18.644  0.00  0.00    +0.000 A 
ATOM     22  C   UNL     1      10.288  13.063  17.566  0.00  0.00    +0.000 A 
ATOM     23  C   UNL     1      10.960  14.274  17.737  0.00  0.00    +0.000 A 
ATOM     24  C   UNL     1      11.478  14.613  18.986  0.00  0.00    +0.000 A 
ATOM     25  C   UNL     1      11.320  13.743  20.066  0.00  0.00    +0.000 A 
ATOM     26  C   UNL     1      10.647  12.530  19.896  0.00  0.00    +0.000 A 
ENDBRANCH  20  21
ENDBRANCH   8  19
TORSDOF 3
ENDMDL
MODEL 5
REMARK VINA RESULT:      -7.7      7.190      9.954
REMARK  Name = 
REMARK  4 active torsions:
REMARK  status: ('A' for Active; 'I' for Inactive)
REMARK    1  A    between atoms: C_1  and  C_2
REMARK    2  A    between atoms: C_6  and  C_7
REMARK    3  A    between atoms: C_14  and  C_15
REMARK    4  A    between atoms: C_16  and  C_17
REMARK                            x       y       z     vdW  Elec       q    Type
REMARK                         _______ _______ _______ _____ _____    ______ ____
ROOT
ATOM      1  C   UNL     1      -3.190  12.839  20.303  0.00  0.00    +0.000 C 
ATOM      2  O   UNL     1      -4.408  12.696  20.172  0.00  0.00    +0.000 OA
ATOM      3  N   UNL     1      -2.306  12.291  19.376  0.00  0.00    +0.000 N 
ATOM      4  C   UNL     1      -2.863  11.622  18.179  0.00  0.00    +0.000 C 
ATOM      5  C   UNL     1      -2.274  10.214  17.974  0.00  0.00    +0.000 C 
ATOM      6  C   UNL     1      -0.804  10.239  18.218  0.00  0.00    +0.000 A 
ATOM      7  N   UNL     1       0.015   9.194  17.848  0.00  0.00    +0.000 NA
ATOM      8  C   UNL     1       1.252   9.456  18.221  0.00  0.00    +0.000 A 
ATOM      9  S   UNL     1       1.485  10.967  19.018  0.00  0.00    +0.000 S 
ATOM     10  C   UNL     1      -0.180  11.289  18.858  0.00  0.00    +0.000 A 
ATOM     11  C   UNL     1      -0.852  12.534  19.333  0.00  0.00    +0.000 C 
ENDROOT
BRANCH   1  17
ATOM     12  C   UNL     1      -4.436  12.373  24.693  0.00  0.00    +0.000 C 
ATOM     13  C   UNL     1      -4.301  13.064  23.336  0.00  0.00    +0.000 C 
ATOM     14  C   UNL     1      -4.753  14.523  23.412  0.00  0.00    +0.000 C 
ATOM     15  C   UNL     1      -4.575  15.232  22.074  0.00  0.00    +0.000 C 
ATOM     16  C   UNL     1      -3.154  15.094  21.519  0.00  0.00    +0.000 C 
ATOM     17  C   UNL     1      -2.623  13.645  21.487  0.00  0.00    +0.000 C 
ATOM     18  C   UNL     1      -2.849  12.979  22.853  0.00  0.00    +0.000 C 
ENDBRANCH   1  17
BRANCH   8  19
ATOM     19  C   UNL     1       2.305   8.525  17.978  0.00  0.00    +0.000 C 
ATOM     20  C   UNL     1       3.172   7.728  17.737  0.00  0.00    +0.000 C 
BRANCH  20  21
ATOM     21  C   UNL     1       4.176   6.763  17.408  0.00  0.00    +0.000 A 
ATOM     22  C   UNL     1       4.747   6.765  16.132  0.00  0.00    +0.000 A 
ATOM     23  C   UNL     1       5.711   5.815  15.792  0.00  0.00    +0.000 A 
ATOM     24  C   UNL     1       6.108   4.860  16.728  0.00  0.00    +0.000 A 
ATOM     25  C   UNL     1       5.544   4.858  18.005  0.00  0.00    +0.000 A 
ATOM     26  C   UNL     1       4.579   5.810  18.345  0.00  0.00    +0.000 A 
ENDBRANCH  20  21
ENDBRANCH   8  19
TORSDOF 3
ENDMDL
MODEL 6
REMARK VINA RESULT:      -7.6      5.892      8.997
REMARK  Name = 
REMARK  4 active torsions:
REMARK  status: ('A' for Active; 'I' for Inactive)
REMARK    1  A    between atoms: C_1  and  C_2
REMARK    2  A    between atoms: C_6  and  C_7
REMARK    3  A    between atoms: C_14  and  C_15
REMARK    4  A    between atoms: C_16  and  C_17
REMARK                            x       y       z     vdW  Elec       q    Type
REMARK                         _______ _______ _______ _____ _____    ______ ____
ROOT
ATOM      1  C   UNL     1      -0.804  11.943  21.934  0.00  0.00    +0.000 C 
ATOM      2  O   UNL     1      -0.991  11.977  23.152  0.00  0.00    +0.000 OA
ATOM      3  N   UNL     1      -0.481  10.746  21.298  0.00  0.00    +0.000 N 
ATOM      4  C   UNL     1      -0.466   9.501  22.099  0.00  0.00    +0.000 C 
ATOM      5  C   UNL     1       0.844   8.712  21.921  0.00  0.00    +0.000 C 
ATOM      6  C   UNL     1       1.235   8.697  20.483  0.00  0.00    +0.000 A 
ATOM      7  N   UNL     1       2.205   7.845  20.000  0.00  0.00    +0.000 NA
ATOM      8  C   UNL     1       2.383   8.072  18.713  0.00  0.00    +0.000 A 
ATOM      9  S   UNL     1       1.389   9.304  18.030  0.00  0.00    +0.000 S 
ATOM     10  C   UNL     1       0.677   9.553  19.558  0.00  0.00    +0.000 A 
ATOM     11  C   UNL     1      -0.400  10.547  19.839  0.00  0.00    +0.000 C 
ENDROOT
BRANCH   1  17
ATOM     12  C   UNL     1       2.355  15.245  21.540  0.00  0.00    +0.000 C 
ATOM     13  C   UNL     1       1.026  14.613  21.955  0.00  0.00    +0.000 C 
ATOM     14  C   UNL     1       0.066  15.665  22.510  0.00  0.00    +0.000 C 
ATOM     15  C   UNL     1      -1.279  15.050  22.881  0.00  0.00    +0.000 C 
ATOM     16  C   UNL     1      -1.899  14.251  21.731  0.00  0.00    +0.000 C 
ATOM     17  C   UNL     1      -0.945  13.222  21.087  0.00  0.00    +0.000 C 
ATOM     18  C   UNL     1       0.397  13.894  20.757  0.00  0.00    +0.000 C 
ENDBRANCH   1  17
BRANCH   8  19
ATOM     19  C   UNL     1       3.352   7.340  17.965  0.00  0.00    +0.000 C 
ATOM     20  C   UNL     1       4.180   6.701  17.372  0.00  0.00    +0.000 C 
BRANCH  20  21
ATOM     21  C   UNL     1       5.181   5.921  16.712  0.00  0.00    +0.000 A 
ATOM     22  C   UNL     1       5.139   5.771  15.323  0.00  0.00    +0.000 A 
ATOM     23  C   UNL     1       6.097   4.995  14.670  0.00  0.00    +0.000 A 
ATOM     24  C   UNL     1       7.103   4.366  15.405  0.00  0.00    +0.000 A 
ATOM     25  C   UNL     1       7.152   4.519  16.791  0.00  0.00    +0.000 A 
ATOM     26  C   UNL     1       6.192   5.296  17.445  0.00  0.00    +0.000 A 
ENDBRANCH  20  21
ENDBRANCH   8  19
TORSDOF 3
ENDMDL
MODEL 7
REMARK VINA RESULT:      -7.6      7.863     11.418
REMARK  Name = 
REMARK  4 active torsions:
REMARK  status: ('A' for Active; 'I' for Inactive)
REMARK    1  A    between atoms: C_1  and  C_2
REMARK    2  A    between atoms: C_6  and  C_7
REMARK    3  A    between atoms: C_14  and  C_15
REMARK    4  A    between atoms: C_16  and  C_17
REMARK                            x       y       z     vdW  Elec       q    Type
REMARK                         _______ _______ _______ _____ _____    ______ ____
ROOT
ATOM      1  C   UNL     1      -3.027  13.560  22.113  0.00  0.00    +0.000 C 
ATOM      2  O   UNL     1      -3.539  14.325  21.292  0.00  0.00    +0.000 OA
ATOM      3  N   UNL     1      -1.878  12.840  21.794  0.00  0.00    +0.000 N 
ATOM      4  C   UNL     1      -1.229  13.088  20.486  0.00  0.00    +0.000 C 
ATOM      5  C   UNL     1      -0.973  11.784  19.709  0.00  0.00    +0.000 C 
ATOM      6  C   UNL     1      -0.450  10.737  20.631  0.00  0.00    +0.000 A 
ATOM      7  N   UNL     1       0.116   9.570  20.166  0.00  0.00    +0.000 NA
ATOM      8  C   UNL     1       0.449   8.808  21.189  0.00  0.00    +0.000 A 
ATOM      9  S   UNL     1       0.108   9.463  22.747  0.00  0.00    +0.000 S 
ATOM     10  C   UNL     1      -0.531  10.856  22.003  0.00  0.00    +0.000 A 
ATOM     11  C   UNL     1      -1.084  12.031  22.738  0.00  0.00    +0.000 C 
ENDROOT
BRANCH   1  17
ATOM     12  C   UNL     1      -7.382  12.445  23.021  0.00  0.00    +0.000 C 
ATOM     13  C   UNL     1      -6.141  13.336  22.968  0.00  0.00    +0.000 C 
ATOM     14  C   UNL     1      -6.365  14.639  23.737  0.00  0.00    +0.000 C 
ATOM     15  C   UNL     1      -5.114  15.511  23.730  0.00  0.00    +0.000 C 
ATOM     16  C   UNL     1      -3.870  14.760  24.214  0.00  0.00    +0.000 C 
ATOM     17  C   UNL     1      -3.638  13.402  23.518  0.00  0.00    +0.000 C 
ATOM     18  C   UNL     1      -4.936  12.580  23.538  0.00  0.00    +0.000 C 
ENDBRANCH   1  17
BRANCH   8  19
ATOM     19  C   UNL     1       1.038   7.525  20.988  0.00  0.00    +0.000 C 
ATOM     20  C   UNL     1       1.528   6.447  20.776  0.00  0.00    +0.000 C 
BRANCH  20  21
ATOM     21  C   UNL     1       2.098   5.171  20.471  0.00  0.00    +0.000 A 
ATOM     22  C   UNL     1       3.346   5.101  19.846  0.00  0.00    +0.000 A 
ATOM     23  C   UNL     1       3.903   3.862  19.525  0.00  0.00    +0.000 A 
ATOM     24  C   UNL     1       3.212   2.689  19.828  0.00  0.00    +0.000 A 
ATOM     25  C   UNL     1       1.968   2.755  20.457  0.00  0.00    +0.000 A 
ATOM     26  C   UNL     1       1.411   3.995  20.779  0.00  0.00    +0.000 A 
ENDBRANCH  20  21
ENDBRANCH   8  19
TORSDOF 3
ENDMDL
MODEL 8
REMARK VINA RESULT:      -7.5      7.700     10.604
REMARK  Name = 
REMARK  4 active torsions:
REMARK  status: ('A' for Active; 'I' for Inactive)
REMARK    1  A    between atoms: C_1  and  C_2
REMARK    2  A    between atoms: C_6  and  C_7
REMARK    3  A    between atoms: C_14  and  C_15
REMARK    4  A    between atoms: C_16  and  C_17
REMARK                            x       y       z     vdW  Elec       q    Type
REMARK                         _______ _______ _______ _____ _____    ______ ____
ROOT
ATOM      1  C   UNL     1      -3.026  13.468  21.218  0.00  0.00    +0.000 C 
ATOM      2  O   UNL     1      -3.401  14.531  20.718  0.00  0.00    +0.000 OA
ATOM      3  N   UNL     1      -1.759  12.959  20.940  0.00  0.00    +0.000 N 
ATOM      4  C   UNL     1      -0.837  13.771  20.113  0.00  0.00    +0.000 C 
ATOM      5  C   UNL     1      -0.248  12.967  18.939  0.00  0.00    +0.000 C 
ATOM      6  C   UNL     1       0.144  11.606  19.403  0.00  0.00    +0.000 A 
ATOM      7  N   UNL     1       0.937  10.776  18.642  0.00  0.00    +0.000 NA
ATOM      8  C   UNL     1       1.089   9.624  19.266  0.00  0.00    +0.000 A 
ATOM      9  S   UNL     1       0.299   9.495  20.793  0.00  0.00    +0.000 S 
ATOM     10  C   UNL     1      -0.290  11.083  20.604  0.00  0.00    +0.000 A 
ATOM     11  C   UNL     1      -1.139  11.796  21.602  0.00  0.00    +0.000 C 
ENDROOT
BRANCH   1  17
ATOM     12  C   UNL     1      -7.595  13.818  21.407  0.00  0.00    +0.000 C 
ATOM     13  C   UNL     1      -6.153  13.963  21.893  0.00  0.00    +0.000 C 
ATOM     14  C   UNL     1      -6.106  14.412  23.354  0.00  0.00    +0.000 C 
ATOM     15  C   UNL     1      -4.671  14.511  23.860  0.00  0.00    +0.000 C 
ATOM     16  C   UNL     1      -3.873  13.226  23.624  0.00  0.00    +0.000 C 
ATOM     17  C   UNL     1      -3.946  12.690  22.178  0.00  0.00    +0.000 C 
ATOM     18  C   UNL     1      -5.411  12.634  21.719  0.00  0.00    +0.000 C 
ENDBRANCH   1  17
BRANCH   8  19
ATOM     19  C   UNL     1       1.853   8.569  18.685  0.00  0.00    +0.000 C 
ATOM     20  C   UNL     1       2.490   7.655  18.232  0.00  0.00    +0.000 C 
BRANCH  20  21
ATOM     21  C   UNL     1       3.241   6.542  17.739  0.00  0.00    +0.000 A 
ATOM     22  C   UNL     1       4.453   6.763  17.077  0.00  0.00    +0.000 A 
ATOM     23  C   UNL     1       5.185   5.688  16.573  0.00  0.00    +0.000 A 
ATOM     24  C   UNL     1       4.708   4.386  16.729  0.00  0.00    +0.000 A 
ATOM     25  C   UNL     1       3.502   4.161  17.394  0.00  0.00    +0.000 A 
ATOM     26  C   UNL     1       2.769   5.238  17.900  0.00  0.00    +0.000 A 
ENDBRANCH  20  21
ENDBRANCH   8  19
TORSDOF 3
ENDMDL
MODEL 9
REMARK VINA RESULT:      -7.5      6.235      9.536
REMARK  Name = 
REMARK  4 active torsions:
REMARK  status: ('A' for Active; 'I' for Inactive)
REMARK    1  A    between atoms: C_1  and  C_2
REMARK    2  A    between atoms: C_6  and  C_7
REMARK    3  A    between atoms: C_14  and  C_15
REMARK    4  A    between atoms: C_16  and  C_17
REMARK                            x       y       z     vdW  Elec       q    Type
REMARK                         _______ _______ _______ _____ _____    ______ ____
ROOT
ATOM      1  C   UNL     1      -0.787  12.631  22.214  0.00  0.00    +0.000 C 
ATOM      2  O   UNL     1      -0.957  12.744  23.430  0.00  0.00    +0.000 OA
ATOM      3  N   UNL     1      -0.607  11.377  21.634  0.00  0.00    +0.000 N 
ATOM      4  C   UNL     1      -0.725  10.178  22.494  0.00  0.00    +0.000 C 
ATOM      5  C   UNL     1       0.485   9.237  22.349  0.00  0.00    +0.000 C 
ATOM      6  C   UNL     1       0.859   9.110  20.912  0.00  0.00    +0.000 A 
ATOM      7  N   UNL     1       1.722   8.133  20.466  0.00  0.00    +0.000 NA
ATOM      8  C   UNL     1       1.912   8.277  19.170  0.00  0.00    +0.000 A 
ATOM      9  S   UNL     1       1.058   9.580  18.432  0.00  0.00    +0.000 S 
ATOM     10  C   UNL     1       0.393   9.980  19.949  0.00  0.00    +0.000 A 
ATOM     11  C   UNL     1      -0.562  11.102  20.186  0.00  0.00    +0.000 C 
ENDROOT
BRANCH   1  17
ATOM     12  C   UNL     1       2.853  15.262  21.281  0.00  0.00    +0.000 C 
ATOM     13  C   UNL     1       1.488  14.909  21.873  0.00  0.00    +0.000 C 
ATOM     14  C   UNL     1       0.805  16.145  22.459  0.00  0.00    +0.000 C 
ATOM     15  C   UNL     1      -0.577  15.810  23.008  0.00  0.00    +0.000 C 
ATOM     16  C   UNL     1      -1.460  15.093  21.982  0.00  0.00    +0.000 C 
ATOM     17  C   UNL     1      -0.789  13.877  21.308  0.00  0.00    +0.000 C 
ATOM     18  C   UNL     1       0.605  14.271  20.796  0.00  0.00    +0.000 C 
ENDBRANCH   1  17
BRANCH   8  19
ATOM     19  C   UNL     1       2.785   7.405  18.454  0.00  0.00    +0.000 C 
ATOM     20  C   UNL     1       3.495   6.674  17.814  0.00  0.00    +0.000 C 
BRANCH  20  21
ATOM     21  C   UNL     1       4.305   5.809  17.014  0.00  0.00    +0.000 A 
ATOM     22  C   UNL     1       4.270   4.429  17.232  0.00  0.00    +0.000 A 
ATOM     23  C   UNL     1       5.071   3.576  16.472  0.00  0.00    +0.000 A 
ATOM     24  C   UNL     1       5.911   4.101  15.490  0.00  0.00    +0.000 A 
ATOM     25  C   UNL     1       5.945   5.478  15.265  0.00  0.00    +0.000 A 
ATOM     26  C   UNL     1       5.142   6.332  16.026  0.00  0.00    +0.000 A 
ENDBRANCH  20  21
ENDBRANCH   8  19
TORSDOF 3
ENDMDL
