MODEL 1
REMARK VINA RESULT:      -8.3      0.000      0.000
REMARK  Name = 
REMARK  5 active torsions:
REMARK  status: ('A' for Active; 'I' for Inactive)
REMARK    1  A    between atoms: C_2  and  C_3
REMARK    2  A    between atoms: C_3  and  S_4
REMARK    3  A    between atoms: S_4  and  C_5
REMARK    4  A    between atoms: C_11  and  C_12
REMARK    5  A    between atoms: N_20  and  C_21
REMARK                            x       y       z     vdW  Elec       q    Type
REMARK                         _______ _______ _______ _____ _____    ______ ____
ROOT
ATOM      1  C   UNL     1       2.572   7.409  18.473  0.00  0.00    +0.000 A 
ATOM      2  C   UNL     1       1.920   7.019  19.749  0.00  0.00    +0.000 A 
ATOM      3  C   UNL     1       2.299   5.853  20.290  0.00  0.00    +0.000 A 
ATOM      4  C   UNL     1       3.276   5.072  19.636  0.00  0.00    +0.000 A 
ATOM      5  N   UNL     1       3.832   3.916  19.915  0.00  0.00    +0.000 NA
ATOM      6  N   UNL     1       4.729   3.628  18.908  0.00  0.00    +0.000 NA
ATOM      7  C   UNL     1       4.730   4.629  18.041  0.00  0.00    +0.000 A 
ATOM      8  N   UNL     1       3.796   5.560  18.454  0.00  0.00    +0.000 N 
ATOM      9  N   UNL     1       3.462   6.731  17.827  0.00  0.00    +0.000 NA
ENDROOT
BRANCH   7  10
ATOM     10  C   UNL     1       5.544   4.737  16.834  0.00  0.00    +0.000 A 
ATOM     11  C   UNL     1       5.180   4.068  15.664  0.00  0.00    +0.000 A 
ATOM     12  C   UNL     1       5.960   4.198  14.515  0.00  0.00    +0.000 A 
ATOM     13  C   UNL     1       7.091   4.994  14.572  0.00  0.00    +0.000 A 
ATOM     14  N   UNL     1       7.485   5.654  15.682  0.00  0.00    +0.000 NA
ATOM     15  C   UNL     1       6.712   5.498  16.783  0.00  0.00    +0.000 A 
ENDBRANCH   7  10
BRANCH   1  16
ATOM     16  S   UNL     1       2.097   8.975  17.870  0.00  0.00    +0.000 S 
BRANCH  16  17
ATOM     17  C   UNL     1       1.097   9.570  19.272  0.00  0.00    +0.000 C 
BRANCH  17  19
ATOM     18  O   UNL     1       0.215  11.677  18.560  0.00  0.00    +0.000 OA
ATOM     19  C   UNL     1      -0.013  10.488  18.784  0.00  0.00    +0.000 C 
ATOM     20  N   UNL     1      -1.246   9.876  18.629  0.00  0.00    +0.000 N 
ATOM     21  H   UNL     1      -1.395   8.964  19.055  0.00  0.00    +0.000 HD
BRANCH  20  22
ATOM     22  C   UNL     1      -2.390  10.464  18.032  0.00  0.00    +0.000 A 
ATOM     23  C   UNL     1      -3.246  11.335  18.710  0.00  0.00    +0.000 A 
ATOM     24  C   UNL     1      -4.331  11.928  18.056  0.00  0.00    +0.000 A 
ATOM     25  C   UNL     1      -4.577  11.652  16.711  0.00  0.00    +0.000 A 
ATOM     26  C   UNL     1      -3.740  10.777  16.024  0.00  0.00    +0.000 A 
ATOM     27  C   UNL     1      -2.656  10.197  16.684  0.00  0.00    +0.000 A 
ATOM     28  F   UNL     1      -1.868   9.348  16.006  0.00  0.00    +0.000 F 
ENDBRANCH  20  22
ENDBRANCH  17  19
ENDBRANCH  16  17
ENDBRANCH   1  16
TORSDOF 5
ENDMDL
MODEL 2
REMARK VINA RESULT:      -8.2      3.493      3.781
REMARK  Name = 
REMARK  5 active torsions:
REMARK  status: ('A' for Active; 'I' for Inactive)
REMARK    1  A    between atoms: C_2  and  C_3
REMARK    2  A    between atoms: C_3  and  S_4
REMARK    3  A    between atoms: S_4  and  C_5
REMARK    4  A    between atoms: C_11  and  C_12
REMARK    5  A    between atoms: N_20  and  C_21
REMARK                            x       y       z     vdW  Elec       q    Type
REMARK                         _______ _______ _______ _____ _____    ______ ____
ROOT
ATOM      1  C   UNL     1       2.274   6.064  19.669  0.00  0.00    +0.000 A 
ATOM      2  C   UNL     1       1.433   5.229  20.564  0.00  0.00    +0.000 A 
ATOM      3  C   UNL     1       1.640   3.905  20.526  0.00  0.00    +0.000 A 
ATOM      4  C   UNL     1       2.624   3.384  19.658  0.00  0.00    +0.000 A 
ATOM      5  N   UNL     1       3.040   2.164  19.407  0.00  0.00    +0.000 NA
ATOM      6  N   UNL     1       4.030   2.248  18.451  0.00  0.00    +0.000 NA
ATOM      7  C   UNL     1       4.226   3.523  18.153  0.00  0.00    +0.000 A 
ATOM      8  N   UNL     1       3.330   4.281  18.881  0.00  0.00    +0.000 N 
ATOM      9  N   UNL     1       3.179   5.641  18.849  0.00  0.00    +0.000 NA
ENDROOT
BRANCH   7  10
ATOM     10  C   UNL     1       5.194   4.057  17.199  0.00  0.00    +0.000 A 
ATOM     11  C   UNL     1       4.846   4.253  15.861  0.00  0.00    +0.000 A 
ATOM     12  C   UNL     1       5.779   4.781  14.969  0.00  0.00    +0.000 A 
ATOM     13  C   UNL     1       7.040   5.097  15.442  0.00  0.00    +0.000 A 
ATOM     14  N   UNL     1       7.424   4.919  16.725  0.00  0.00    +0.000 NA
ATOM     15  C   UNL     1       6.498   4.393  17.563  0.00  0.00    +0.000 A 
ENDBRANCH   7  10
BRANCH   1  16
ATOM     16  S   UNL     1       2.014   7.782  19.831  0.00  0.00    +0.000 S 
BRANCH  16  17
ATOM     17  C   UNL     1       0.925   7.805  21.293  0.00  0.00    +0.000 C 
BRANCH  17  19
ATOM     18  O   UNL     1       1.765   9.490  22.769  0.00  0.00    +0.000 OA
ATOM     19  C   UNL     1       0.917   9.186  21.930  0.00  0.00    +0.000 C 
ATOM     20  N   UNL     1      -0.096  10.021  21.490  0.00  0.00    +0.000 N 
ATOM     21  H   UNL     1      -0.878   9.615  20.981  0.00  0.00    +0.000 HD
BRANCH  20  22
ATOM     22  C   UNL     1      -0.221  11.400  21.798  0.00  0.00    +0.000 A 
ATOM     23  C   UNL     1       0.474  12.404  21.118  0.00  0.00    +0.000 A 
ATOM     24  C   UNL     1       0.272  13.752  21.429  0.00  0.00    +0.000 A 
ATOM     25  C   UNL     1      -0.627  14.116  22.433  0.00  0.00    +0.000 A 
ATOM     26  C   UNL     1      -1.318  13.128  23.128  0.00  0.00    +0.000 A 
ATOM     27  C   UNL     1      -1.115  11.785  22.805  0.00  0.00    +0.000 A 
ATOM     28  F   UNL     1      -1.784  10.848  23.494  0.00  0.00    +0.000 F 
ENDBRANCH  20  22
ENDBRANCH  17  19
ENDBRANCH  16  17
ENDBRANCH   1  16
TORSDOF 5
ENDMDL
MODEL 3
REMARK VINA RESULT:      -8.2      2.068      2.716
REMARK  Name = 
REMARK  5 active torsions:
REMARK  status: ('A' for Active; 'I' for Inactive)
REMARK    1  A    between atoms: C_2  and  C_3
REMARK    2  A    between atoms: C_3  and  S_4
REMARK    3  A    between atoms: S_4  and  C_5
REMARK    4  A    between atoms: C_11  and  C_12
REMARK    5  A    between atoms: N_20  and  C_21
REMARK                            x       y       z     vdW  Elec       q    Type
REMARK                         _______ _______ _______ _____ _____    ______ ____
ROOT
ATOM      1  C   UNL     1       2.235   5.579  19.709  0.00  0.00    +0.000 A 
ATOM      2  C   UNL     1       1.319   4.655  20.424  0.00  0.00    +0.000 A 
ATOM      3  C   UNL     1       1.457   3.347  20.165  0.00  0.00    +0.000 A 
ATOM      4  C   UNL     1       2.442   2.924  19.247  0.00  0.00    +0.000 A 
ATOM      5  N   UNL     1       2.801   1.742  18.801  0.00  0.00    +0.000 NA
ATOM      6  N   UNL     1       3.828   1.929  17.900  0.00  0.00    +0.000 NA
ATOM      7  C   UNL     1       4.103   3.222  17.831  0.00  0.00    +0.000 A 
ATOM      8  N   UNL     1       3.222   3.897  18.654  0.00  0.00    +0.000 N 
ATOM      9  N   UNL     1       3.145   5.249  18.853  0.00  0.00    +0.000 NA
ENDROOT
BRANCH   7  10
ATOM     10  C   UNL     1       5.131   3.853  17.009  0.00  0.00    +0.000 A 
ATOM     11  C   UNL     1       4.921   4.077  15.647  0.00  0.00    +0.000 A 
ATOM     12  C   UNL     1       5.908   4.697  14.882  0.00  0.00    +0.000 A 
ATOM     13  C   UNL     1       7.086   5.073  15.504  0.00  0.00    +0.000 A 
ATOM     14  N   UNL     1       7.337   4.871  16.815  0.00  0.00    +0.000 NA
ATOM     15  C   UNL     1       6.362   4.256  17.527  0.00  0.00    +0.000 A 
ENDBRANCH   7  10
BRANCH   1  16
ATOM     16  S   UNL     1       2.061   7.257  20.156  0.00  0.00    +0.000 S 
BRANCH  16  17
ATOM     17  C   UNL     1       2.363   8.051  18.544  0.00  0.00    +0.000 C 
BRANCH  17  19
ATOM     18  O   UNL     1       1.859  10.171  17.553  0.00  0.00    +0.000 OA
ATOM     19  C   UNL     1       1.599   9.363  18.446  0.00  0.00    +0.000 C 
ATOM     20  N   UNL     1       0.630   9.545  19.418  0.00  0.00    +0.000 N 
ATOM     21  H   UNL     1       0.645   8.945  20.240  0.00  0.00    +0.000 HD
BRANCH  20  22
ATOM     22  C   UNL     1      -0.324  10.594  19.447  0.00  0.00    +0.000 A 
ATOM     23  C   UNL     1      -1.482  10.597  18.666  0.00  0.00    +0.000 A 
ATOM     24  C   UNL     1      -2.416  11.633  18.773  0.00  0.00    +0.000 A 
ATOM     25  C   UNL     1      -2.201  12.685  19.664  0.00  0.00    +0.000 A 
ATOM     26  C   UNL     1      -1.046  12.702  20.441  0.00  0.00    +0.000 A 
ATOM     27  C   UNL     1      -0.124  11.660  20.332  0.00  0.00    +0.000 A 
ATOM     28  F   UNL     1       0.987  11.702  21.083  0.00  0.00    +0.000 F 
ENDBRANCH  20  22
ENDBRANCH  17  19
ENDBRANCH  16  17
ENDBRANCH   1  16
TORSDOF 5
ENDMDL
MODEL 4
REMARK VINA RESULT:      -8.1      1.866      2.547
REMARK  Name = 
REMARK  5 active torsions:
REMARK  status: ('A' for Active; 'I' for Inactive)
REMARK    1  A    between atoms: C_2  and  C_3
REMARK    2  A    between atoms: C_3  and  S_4
REMARK    3  A    between atoms: S_4  and  C_5
REMARK    4  A    between atoms: C_11  and  C_12
REMARK    5  A    between atoms: N_20  and  C_21
REMARK                            x       y       z     vdW  Elec       q    Type
REMARK                         _______ _______ _______ _____ _____    ______ ____
ROOT
ATOM      1  C   UNL     1       2.225   5.608  19.690  0.00  0.00    +0.000 A 
ATOM      2  C   UNL     1       1.317   4.685  20.417  0.00  0.00    +0.000 A 
ATOM      3  C   UNL     1       1.459   3.376  20.167  0.00  0.00    +0.000 A 
ATOM      4  C   UNL     1       2.442   2.951  19.247  0.00  0.00    +0.000 A 
ATOM      5  N   UNL     1       2.804   1.767  18.808  0.00  0.00    +0.000 NA
ATOM      6  N   UNL     1       3.827   1.952  17.902  0.00  0.00    +0.000 NA
ATOM      7  C   UNL     1       4.094   3.246  17.821  0.00  0.00    +0.000 A 
ATOM      8  N   UNL     1       3.215   3.922  18.644  0.00  0.00    +0.000 N 
ATOM      9  N   UNL     1       3.132   5.276  18.832  0.00  0.00    +0.000 NA
ENDROOT
BRANCH   7  10
ATOM     10  C   UNL     1       5.116   3.875  16.989  0.00  0.00    +0.000 A 
ATOM     11  C   UNL     1       4.882   4.126  15.636  0.00  0.00    +0.000 A 
ATOM     12  C   UNL     1       5.864   4.744  14.862  0.00  0.00    +0.000 A 
ATOM     13  C   UNL     1       7.059   5.092  15.466  0.00  0.00    +0.000 A 
ATOM     14  N   UNL     1       7.333   4.864  16.769  0.00  0.00    +0.000 NA
ATOM     15  C   UNL     1       6.363   4.251  17.490  0.00  0.00    +0.000 A 
ENDBRANCH   7  10
BRANCH   1  16
ATOM     16  S   UNL     1       2.045   7.288  20.126  0.00  0.00    +0.000 S 
BRANCH  16  17
ATOM     17  C   UNL     1       2.230   8.066  18.488  0.00  0.00    +0.000 C 
BRANCH  17  19
ATOM     18  O   UNL     1       1.959  10.278  17.617  0.00  0.00    +0.000 OA
ATOM     19  C   UNL     1       1.655   9.474  18.499  0.00  0.00    +0.000 C 
ATOM     20  N   UNL     1       0.799   9.743  19.553  0.00  0.00    +0.000 N 
ATOM     21  H   UNL     1       0.790   9.109  20.349  0.00  0.00    +0.000 HD
BRANCH  20  22
ATOM     22  C   UNL     1       0.008  10.911  19.696  0.00  0.00    +0.000 A 
ATOM     23  C   UNL     1       0.441  12.051  20.377  0.00  0.00    +0.000 A 
ATOM     24  C   UNL     1      -0.361  13.196  20.443  0.00  0.00    +0.000 A 
ATOM     25  C   UNL     1      -1.614  13.212  19.828  0.00  0.00    +0.000 A 
ATOM     26  C   UNL     1      -2.065  12.081  19.155  0.00  0.00    +0.000 A 
ATOM     27  C   UNL     1      -1.254  10.946  19.089  0.00  0.00    +0.000 A 
ATOM     28  F   UNL     1      -1.713   9.863  18.444  0.00  0.00    +0.000 F 
ENDBRANCH  20  22
ENDBRANCH  17  19
ENDBRANCH  16  17
ENDBRANCH   1  16
TORSDOF 5
ENDMDL
MODEL 5
REMARK VINA RESULT:      -8.1      2.652      3.253
REMARK  Name = 
REMARK  5 active torsions:
REMARK  status: ('A' for Active; 'I' for Inactive)
REMARK    1  A    between atoms: C_2  and  C_3
REMARK    2  A    between atoms: C_3  and  S_4
REMARK    3  A    between atoms: S_4  and  C_5
REMARK    4  A    between atoms: C_11  and  C_12
REMARK    5  A    between atoms: N_20  and  C_21
REMARK                            x       y       z     vdW  Elec       q    Type
REMARK                         _______ _______ _______ _____ _____    ______ ____
ROOT
ATOM      1  C   UNL     1       2.644   7.451  18.480  0.00  0.00    +0.000 A 
ATOM      2  C   UNL     1       1.990   7.060  19.755  0.00  0.00    +0.000 A 
ATOM      3  C   UNL     1       2.341   5.875  20.275  0.00  0.00    +0.000 A 
ATOM      4  C   UNL     1       3.292   5.079  19.602  0.00  0.00    +0.000 A 
ATOM      5  N   UNL     1       3.818   3.903  19.859  0.00  0.00    +0.000 NA
ATOM      6  N   UNL     1       4.699   3.607  18.841  0.00  0.00    +0.000 NA
ATOM      7  C   UNL     1       4.721   4.620  17.989  0.00  0.00    +0.000 A 
ATOM      8  N   UNL     1       3.816   5.570  18.423  0.00  0.00    +0.000 N 
ATOM      9  N   UNL     1       3.510   6.758  17.817  0.00  0.00    +0.000 NA
ENDROOT
BRANCH   7  10
ATOM     10  C   UNL     1       5.529   4.724  16.777  0.00  0.00    +0.000 A 
ATOM     11  C   UNL     1       5.133   4.090  15.598  0.00  0.00    +0.000 A 
ATOM     12  C   UNL     1       5.909   4.216  14.445  0.00  0.00    +0.000 A 
ATOM     13  C   UNL     1       7.065   4.973  14.508  0.00  0.00    +0.000 A 
ATOM     14  N   UNL     1       7.491   5.598  15.627  0.00  0.00    +0.000 NA
ATOM     15  C   UNL     1       6.721   5.446  16.731  0.00  0.00    +0.000 A 
ENDBRANCH   7  10
BRANCH   1  16
ATOM     16  S   UNL     1       2.207   9.038  17.903  0.00  0.00    +0.000 S 
BRANCH  16  17
ATOM     17  C   UNL     1       0.862   9.443  19.065  0.00  0.00    +0.000 C 
BRANCH  17  19
ATOM     18  O   UNL     1       1.118  11.237  20.628  0.00  0.00    +0.000 OA
ATOM     19  C   UNL     1       0.920  10.912  19.457  0.00  0.00    +0.000 C 
ATOM     20  N   UNL     1       0.734  11.799  18.410  0.00  0.00    +0.000 N 
ATOM     21  H   UNL     1       0.348  11.449  17.536  0.00  0.00    +0.000 HD
BRANCH  20  22
ATOM     22  C   UNL     1       0.908  13.205  18.479  0.00  0.00    +0.000 A 
ATOM     23  C   UNL     1      -0.137  14.095  18.739  0.00  0.00    +0.000 A 
ATOM     24  C   UNL     1       0.102  15.469  18.847  0.00  0.00    +0.000 A 
ATOM     25  C   UNL     1       1.394  15.972  18.693  0.00  0.00    +0.000 A 
ATOM     26  C   UNL     1       2.444  15.100  18.423  0.00  0.00    +0.000 A 
ATOM     27  C   UNL     1       2.197  13.729  18.323  0.00  0.00    +0.000 A 
ATOM     28  F   UNL     1       3.222  12.908  18.052  0.00  0.00    +0.000 F 
ENDBRANCH  20  22
ENDBRANCH  17  19
ENDBRANCH  16  17
ENDBRANCH   1  16
TORSDOF 5
ENDMDL
MODEL 6
REMARK VINA RESULT:      -8.1      3.117      3.364
REMARK  Name = 
REMARK  5 active torsions:
REMARK  status: ('A' for Active; 'I' for Inactive)
REMARK    1  A    between atoms: C_2  and  C_3
REMARK    2  A    between atoms: C_3  and  S_4
REMARK    3  A    between atoms: S_4  and  C_5
REMARK    4  A    between atoms: C_11  and  C_12
REMARK    5  A    between atoms: N_20  and  C_21
REMARK                            x       y       z     vdW  Elec       q    Type
REMARK                         _______ _______ _______ _____ _____    ______ ____
ROOT
ATOM      1  C   UNL     1       2.399   6.484  19.403  0.00  0.00    +0.000 A 
ATOM      2  C   UNL     1       1.717   5.858  20.564  0.00  0.00    +0.000 A 
ATOM      3  C   UNL     1       2.079   4.604  20.873  0.00  0.00    +0.000 A 
ATOM      4  C   UNL     1       3.066   3.958  20.098  0.00  0.00    +0.000 A 
ATOM      5  N   UNL     1       3.610   2.764  20.156  0.00  0.00    +0.000 NA
ATOM      6  N   UNL     1       4.526   2.672  19.130  0.00  0.00    +0.000 NA
ATOM      7  C   UNL     1       4.550   3.823  18.476  0.00  0.00    +0.000 A 
ATOM      8  N   UNL     1       3.613   4.663  19.045  0.00  0.00    +0.000 N 
ATOM      9  N   UNL     1       3.299   5.937  18.654  0.00  0.00    +0.000 NA
ENDROOT
BRANCH   7  10
ATOM     10  C   UNL     1       5.390   4.158  17.330  0.00  0.00    +0.000 A 
ATOM     11  C   UNL     1       4.882   4.102  16.031  0.00  0.00    +0.000 A 
ATOM     12  C   UNL     1       5.695   4.443  14.950  0.00  0.00    +0.000 A 
ATOM     13  C   UNL     1       7.000   4.828  15.200  0.00  0.00    +0.000 A 
ATOM     14  N   UNL     1       7.537   4.890  16.438  0.00  0.00    +0.000 NA
ATOM     15  C   UNL     1       6.725   4.542  17.465  0.00  0.00    +0.000 A 
ENDBRANCH   7  10
BRANCH   1  16
ATOM     16  S   UNL     1       1.945   8.142  19.109  0.00  0.00    +0.000 S 
BRANCH  16  17
ATOM     17  C   UNL     1       1.439   8.639  20.788  0.00  0.00    +0.000 C 
BRANCH  17  19
ATOM     18  O   UNL     1      -0.478   9.719  19.846  0.00  0.00    +0.000 OA
ATOM     19  C   UNL     1       0.384   9.734  20.725  0.00  0.00    +0.000 C 
ATOM     20  N   UNL     1       0.493  10.701  21.710  0.00  0.00    +0.000 N 
ATOM     21  H   UNL     1       1.360  10.762  22.241  0.00  0.00    +0.000 HD
BRANCH  20  22
ATOM     22  C   UNL     1      -0.455  11.723  21.972  0.00  0.00    +0.000 A 
ATOM     23  C   UNL     1      -0.438  12.966  21.336  0.00  0.00    +0.000 A 
ATOM     24  C   UNL     1      -1.430  13.917  21.594  0.00  0.00    +0.000 A 
ATOM     25  C   UNL     1      -2.453  13.638  22.500  0.00  0.00    +0.000 A 
ATOM     26  C   UNL     1      -2.478  12.409  23.152  0.00  0.00    +0.000 A 
ATOM     27  C   UNL     1      -1.488  11.462  22.881  0.00  0.00    +0.000 A 
ATOM     28  F   UNL     1      -1.525  10.287  23.528  0.00  0.00    +0.000 F 
ENDBRANCH  20  22
ENDBRANCH  17  19
ENDBRANCH  16  17
ENDBRANCH   1  16
TORSDOF 5
ENDMDL
MODEL 7
REMARK VINA RESULT:      -8.0      3.320      3.568
REMARK  Name = 
REMARK  5 active torsions:
REMARK  status: ('A' for Active; 'I' for Inactive)
REMARK    1  A    between atoms: C_2  and  C_3
REMARK    2  A    between atoms: C_3  and  S_4
REMARK    3  A    between atoms: S_4  and  C_5
REMARK    4  A    between atoms: C_11  and  C_12
REMARK    5  A    between atoms: N_20  and  C_21
REMARK                            x       y       z     vdW  Elec       q    Type
REMARK                         _______ _______ _______ _____ _____    ______ ____
ROOT
ATOM      1  C   UNL     1       2.325   5.999  19.573  0.00  0.00    +0.000 A 
ATOM      2  C   UNL     1       1.445   5.145  20.412  0.00  0.00    +0.000 A 
ATOM      3  C   UNL     1       1.598   3.819  20.294  0.00  0.00    +0.000 A 
ATOM      4  C   UNL     1       2.566   3.312  19.400  0.00  0.00    +0.000 A 
ATOM      5  N   UNL     1       2.934   2.093  19.076  0.00  0.00    +0.000 NA
ATOM      6  N   UNL     1       3.933   2.195  18.131  0.00  0.00    +0.000 NA
ATOM      7  C   UNL     1       4.182   3.477  17.912  0.00  0.00    +0.000 A 
ATOM      8  N   UNL     1       3.312   4.225  18.682  0.00  0.00    +0.000 N 
ATOM      9  N   UNL     1       3.217   5.590  18.733  0.00  0.00    +0.000 NA
ENDROOT
BRANCH   7  10
ATOM     10  C   UNL     1       5.177   4.028  16.997  0.00  0.00    +0.000 A 
ATOM     11  C   UNL     1       4.892   4.180  15.639  0.00  0.00    +0.000 A 
ATOM     12  C   UNL     1       5.849   4.725  14.783  0.00  0.00    +0.000 A 
ATOM     13  C   UNL     1       7.071   5.101  15.313  0.00  0.00    +0.000 A 
ATOM     14  N   UNL     1       7.393   4.967  16.617  0.00  0.00    +0.000 NA
ATOM     15  C   UNL     1       6.447   4.424  17.419  0.00  0.00    +0.000 A 
ENDBRANCH   7  10
BRANCH   1  16
ATOM     16  S   UNL     1       2.133   7.712  19.839  0.00  0.00    +0.000 S 
BRANCH  16  17
ATOM     17  C   UNL     1       0.997   7.691  21.264  0.00  0.00    +0.000 C 
BRANCH  17  19
ATOM     18  O   UNL     1       1.756   9.395  22.763  0.00  0.00    +0.000 OA
ATOM     19  C   UNL     1       0.929   9.065  21.912  0.00  0.00    +0.000 C 
ATOM     20  N   UNL     1      -0.110   9.865  21.467  0.00  0.00    +0.000 N 
ATOM     21  H   UNL     1      -0.870   9.434  20.946  0.00  0.00    +0.000 HD
BRANCH  20  22
ATOM     22  C   UNL     1      -0.290  11.236  21.785  0.00  0.00    +0.000 A 
ATOM     23  C   UNL     1      -1.125  11.681  22.813  0.00  0.00    +0.000 A 
ATOM     24  C   UNL     1      -1.225  13.043  23.117  0.00  0.00    +0.000 A 
ATOM     25  C   UNL     1      -0.491  13.981  22.390  0.00  0.00    +0.000 A 
ATOM     26  C   UNL     1       0.337  13.555  21.356  0.00  0.00    +0.000 A 
ATOM     27  C   UNL     1       0.435  12.193  21.065  0.00  0.00    +0.000 A 
ATOM     28  F   UNL     1       1.231  11.805  20.057  0.00  0.00    +0.000 F 
ENDBRANCH  20  22
ENDBRANCH  17  19
ENDBRANCH  16  17
ENDBRANCH   1  16
TORSDOF 5
ENDMDL
MODEL 8
REMARK VINA RESULT:      -8.0      3.857      8.221
REMARK  Name = 
REMARK  5 active torsions:
REMARK  status: ('A' for Active; 'I' for Inactive)
REMARK    1  A    between atoms: C_2  and  C_3
REMARK    2  A    between atoms: C_3  and  S_4
REMARK    3  A    between atoms: S_4  and  C_5
REMARK    4  A    between atoms: C_11  and  C_12
REMARK    5  A    between atoms: N_20  and  C_21
REMARK                            x       y       z     vdW  Elec       q    Type
REMARK                         _______ _______ _______ _____ _____    ______ ____
ROOT
ATOM      1  C   UNL     1       5.746   5.114  19.133  0.00  0.00    +0.000 A 
ATOM      2  C   UNL     1       5.711   3.641  19.325  0.00  0.00    +0.000 A 
ATOM      3  C   UNL     1       4.513   3.093  19.573  0.00  0.00    +0.000 A 
ATOM      4  C   UNL     1       3.373   3.922  19.636  0.00  0.00    +0.000 A 
ATOM      5  N   UNL     1       2.101   3.679  19.858  0.00  0.00    +0.000 NA
ATOM      6  N   UNL     1       1.431   4.884  19.811  0.00  0.00    +0.000 NA
ATOM      7  C   UNL     1       2.299   5.843  19.532  0.00  0.00    +0.000 A 
ATOM      8  N   UNL     1       3.556   5.276  19.439  0.00  0.00    +0.000 N 
ATOM      9  N   UNL     1       4.738   5.920  19.191  0.00  0.00    +0.000 NA
ENDROOT
BRANCH   7  10
ATOM     10  C   UNL     1       2.008   7.265  19.376  0.00  0.00    +0.000 A 
ATOM     11  C   UNL     1       2.220   7.908  18.154  0.00  0.00    +0.000 A 
ATOM     12  C   UNL     1       1.918   9.263  18.019  0.00  0.00    +0.000 A 
ATOM     13  C   UNL     1       1.416   9.941  19.117  0.00  0.00    +0.000 A 
ATOM     14  N   UNL     1       1.202   9.363  20.318  0.00  0.00    +0.000 NA
ATOM     15  C   UNL     1       1.515   8.049  20.419  0.00  0.00    +0.000 A 
ENDBRANCH   7  10
BRANCH   1  16
ATOM     16  S   UNL     1       7.319   5.751  18.730  0.00  0.00    +0.000 S 
BRANCH  16  17
ATOM     17  C   UNL     1       6.842   7.072  17.570  0.00  0.00    +0.000 C 
BRANCH  17  19
ATOM     18  O   UNL     1       5.253   6.826  15.797  0.00  0.00    +0.000 OA
ATOM     19  C   UNL     1       6.339   6.479  16.263  0.00  0.00    +0.000 C 
ATOM     20  N   UNL     1       7.188   5.552  15.682  0.00  0.00    +0.000 N 
ATOM     21  H   UNL     1       7.939   5.158  16.244  0.00  0.00    +0.000 HD
BRANCH  20  22
ATOM     22  C   UNL     1       7.032   4.985  14.391  0.00  0.00    +0.000 A 
ATOM     23  C   UNL     1       7.762   5.404  13.277  0.00  0.00    +0.000 A 
ATOM     24  C   UNL     1       7.606   4.774  12.038  0.00  0.00    +0.000 A 
ATOM     25  C   UNL     1       6.710   3.714  11.897  0.00  0.00    +0.000 A 
ATOM     26  C   UNL     1       5.966   3.291  12.994  0.00  0.00    +0.000 A 
ATOM     27  C   UNL     1       6.135   3.922  14.229  0.00  0.00    +0.000 A 
ATOM     28  F   UNL     1       5.401   3.505  15.271  0.00  0.00    +0.000 F 
ENDBRANCH  20  22
ENDBRANCH  17  19
ENDBRANCH  16  17
ENDBRANCH   1  16
TORSDOF 5
ENDMDL
MODEL 9
REMARK VINA RESULT:      -8.0      3.226      3.452
REMARK  Name = 
REMARK  5 active torsions:
REMARK  status: ('A' for Active; 'I' for Inactive)
REMARK    1  A    between atoms: C_2  and  C_3
REMARK    2  A    between atoms: C_3  and  S_4
REMARK    3  A    between atoms: S_4  and  C_5
REMARK    4  A    between atoms: C_11  and  C_12
REMARK    5  A    between atoms: N_20  and  C_21
REMARK                            x       y       z     vdW  Elec       q    Type
REMARK                         _______ _______ _______ _____ _____    ______ ____
ROOT
ATOM      1  C   UNL     1       2.361   6.313  19.618  0.00  0.00    +0.000 A 
ATOM      2  C   UNL     1       1.659   5.620  20.729  0.00  0.00    +0.000 A 
ATOM      3  C   UNL     1       2.008   4.347  20.963  0.00  0.00    +0.000 A 
ATOM      4  C   UNL     1       3.002   3.744  20.162  0.00  0.00    +0.000 A 
ATOM      5  N   UNL     1       3.537   2.545  20.152  0.00  0.00    +0.000 NA
ATOM      6  N   UNL     1       4.467   2.510  19.135  0.00  0.00    +0.000 NA
ATOM      7  C   UNL     1       4.507   3.699  18.555  0.00  0.00    +0.000 A 
ATOM      8  N   UNL     1       3.568   4.510  19.163  0.00  0.00    +0.000 N 
ATOM      9  N   UNL     1       3.268   5.808  18.848  0.00  0.00    +0.000 NA
ENDROOT
BRANCH   7  10
ATOM     10  C   UNL     1       5.365   4.099  17.443  0.00  0.00    +0.000 A 
ATOM     11  C   UNL     1       4.890   4.081  16.131  0.00  0.00    +0.000 A 
ATOM     12  C   UNL     1       5.719   4.484  15.084  0.00  0.00    +0.000 A 
ATOM     13  C   UNL     1       7.007   4.891  15.381  0.00  0.00    +0.000 A 
ATOM     14  N   UNL     1       7.513   4.919  16.633  0.00  0.00    +0.000 NA
ATOM     15  C   UNL     1       6.686   4.511  17.626  0.00  0.00    +0.000 A 
ENDBRANCH   7  10
BRANCH   1  16
ATOM     16  S   UNL     1       1.922   7.990  19.423  0.00  0.00    +0.000 S 
BRANCH  16  17
ATOM     17  C   UNL     1       1.179   8.319  21.054  0.00  0.00    +0.000 C 
BRANCH  17  19
ATOM     18  O   UNL     1      -0.417   9.744  19.981  0.00  0.00    +0.000 OA
ATOM     19  C   UNL     1       0.261   9.530  20.987  0.00  0.00    +0.000 C 
ATOM     20  N   UNL     1       0.269  10.327  22.119  0.00  0.00    +0.000 N 
ATOM     21  H   UNL     1       1.021  10.209  22.795  0.00  0.00    +0.000 HD
BRANCH  20  22
ATOM     22  C   UNL     1      -0.613  11.408  22.374  0.00  0.00    +0.000 A 
ATOM     23  C   UNL     1      -1.792  11.277  23.112  0.00  0.00    +0.000 A 
ATOM     24  C   UNL     1      -2.599  12.389  23.377  0.00  0.00    +0.000 A 
ATOM     25  C   UNL     1      -2.237  13.650  22.902  0.00  0.00    +0.000 A 
ATOM     26  C   UNL     1      -1.072  13.795  22.156  0.00  0.00    +0.000 A 
ATOM     27  C   UNL     1      -0.269  12.681  21.902  0.00  0.00    +0.000 A 
ATOM     28  F   UNL     1       0.845  12.842  21.172  0.00  0.00    +0.000 F 
ENDBRANCH  20  22
ENDBRANCH  17  19
ENDBRANCH  16  17
ENDBRANCH   1  16
TORSDOF 5
ENDMDL
