MODEL 1
REMARK VINA RESULT:      -7.1      0.000      0.000
REMARK  Name = 
REMARK  4 active torsions:
REMARK  status: ('A' for Active; 'I' for Inactive)
REMARK    1  A    between atoms: N_7  and  C_8
REMARK    2  A    between atoms: C_8  and  C_9
REMARK    3  A    between atoms: C_9  and  O_10
REMARK    4  A    between atoms: N_13  and  C_14
REMARK                            x       y       z     vdW  Elec       q    Type
REMARK                         _______ _______ _______ _____ _____    ______ ____
ROOT
ATOM      1  O   UNL     1       4.891   6.732  15.984  0.00  0.00    +0.000 OA
ATOM      2  C   UNL     1       4.838   5.565  16.347  0.00  0.00    +0.000 C 
ATOM      3  C   UNL     1       4.078   5.161  17.570  0.00  0.00    +0.000 C 
ATOM      4  C   UNL     1       3.991   3.626  17.537  0.00  0.00    +0.000 C 
ATOM      5  C   UNL     1       2.524   3.120  17.536  0.00  0.00    +0.000 C 
ATOM      6  C   UNL     1       2.359   2.323  18.827  0.00  0.00    +0.000 C 
ATOM      7  N   UNL     1       3.387   2.841  19.739  0.00  0.00    +0.000 NA
ATOM      8  C   UNL     1       4.548   3.037  18.845  0.00  0.00    +0.000 C 
ATOM      9  C   UNL     1       4.790   3.213  16.282  0.00  0.00    +0.000 C 
ATOM     10  N   UNL     1       5.334   4.428  15.714  0.00  0.00    +0.000 N 
ENDROOT
BRANCH  10  11
ATOM     11  C   UNL     1       6.033   4.496  14.469  0.00  0.00    +0.000 A 
ATOM     12  C   UNL     1       5.603   3.714  13.381  0.00  0.00    +0.000 A 
ATOM     13  C   UNL     1       6.322   3.654  12.182  0.00  0.00    +0.000 A 
ATOM     14  C   UNL     1       7.495   4.384  12.047  0.00  0.00    +0.000 A 
ATOM     15  C   UNL     1       7.908   5.191  13.101  0.00  0.00    +0.000 A 
ATOM     16  F   UNL     1       9.049   5.884  12.978  0.00  0.00    +0.000 F 
ATOM     17  C   UNL     1       7.182   5.275  14.294  0.00  0.00    +0.000 A 
ENDBRANCH  10  11
BRANCH   7  18
ATOM     18  C   UNL     1       2.971   4.092  20.423  0.00  0.00    +0.000 C 
BRANCH  18  19
ATOM     19  C   UNL     1       1.682   3.925  21.248  0.00  0.00    +0.000 C 
BRANCH  19  20
ATOM     20  O   UNL     1       1.861   2.933  22.252  0.00  0.00    +0.000 OA
ATOM     21  H   UNL     1       1.109   3.056  22.865  0.00  0.00    +0.000 HD
ENDBRANCH  19  20
ENDBRANCH  18  19
ENDBRANCH   7  18
TORSDOF 4
ENDMDL
MODEL 2
REMARK VINA RESULT:      -6.9      1.208      1.350
REMARK  Name = 
REMARK  4 active torsions:
REMARK  status: ('A' for Active; 'I' for Inactive)
REMARK    1  A    between atoms: N_7  and  C_8
REMARK    2  A    between atoms: C_8  and  C_9
REMARK    3  A    between atoms: C_9  and  O_10
REMARK    4  A    between atoms: N_13  and  C_14
REMARK                            x       y       z     vdW  Elec       q    Type
REMARK                         _______ _______ _______ _____ _____    ______ ____
ROOT
ATOM      1  O   UNL     1       7.308   4.480  17.183  0.00  0.00    +0.000 OA
ATOM      2  C   UNL     1       6.135   4.187  17.003  0.00  0.00    +0.000 C 
ATOM      3  C   UNL     1       5.185   4.022  18.147  0.00  0.00    +0.000 C 
ATOM      4  C   UNL     1       3.776   3.956  17.534  0.00  0.00    +0.000 C 
ATOM      5  C   UNL     1       2.846   5.073  18.075  0.00  0.00    +0.000 C 
ATOM      6  C   UNL     1       1.715   4.354  18.805  0.00  0.00    +0.000 C 
ATOM      7  N   UNL     1       2.263   3.044  19.179  0.00  0.00    +0.000 NA
ATOM      8  C   UNL     1       3.062   2.672  17.992  0.00  0.00    +0.000 C 
ATOM      9  C   UNL     1       4.007   4.025  16.009  0.00  0.00    +0.000 C 
ATOM     10  N   UNL     1       5.440   4.054  15.803  0.00  0.00    +0.000 N 
ENDROOT
BRANCH  10  11
ATOM     11  C   UNL     1       6.071   4.247  14.535  0.00  0.00    +0.000 A 
ATOM     12  C   UNL     1       5.655   3.490  13.423  0.00  0.00    +0.000 A 
ATOM     13  C   UNL     1       6.318   3.555  12.193  0.00  0.00    +0.000 A 
ATOM     14  C   UNL     1       7.420   4.387  12.050  0.00  0.00    +0.000 A 
ATOM     15  C   UNL     1       7.816   5.168  13.129  0.00  0.00    +0.000 A 
ATOM     16  F   UNL     1       8.889   5.960  12.998  0.00  0.00    +0.000 F 
ATOM     17  C   UNL     1       7.143   5.127  14.356  0.00  0.00    +0.000 A 
ENDBRANCH  10  11
BRANCH   7  18
ATOM     18  C   UNL     1       3.072   3.095  20.423  0.00  0.00    +0.000 C 
BRANCH  18  19
ATOM     19  C   UNL     1       2.266   3.570  21.645  0.00  0.00    +0.000 C 
BRANCH  19  20
ATOM     20  O   UNL     1       1.552   2.482  22.221  0.00  0.00    +0.000 OA
ATOM     21  H   UNL     1       0.634   2.584  21.901  0.00  0.00    +0.000 HD
ENDBRANCH  19  20
ENDBRANCH  18  19
ENDBRANCH   7  18
TORSDOF 4
ENDMDL
MODEL 3
REMARK VINA RESULT:      -6.9      1.739      2.041
REMARK  Name = 
REMARK  4 active torsions:
REMARK  status: ('A' for Active; 'I' for Inactive)
REMARK    1  A    between atoms: N_7  and  C_8
REMARK    2  A    between atoms: C_8  and  C_9
REMARK    3  A    between atoms: C_9  and  O_10
REMARK    4  A    between atoms: N_13  and  C_14
REMARK                            x       y       z     vdW  Elec       q    Type
REMARK                         _______ _______ _______ _____ _____    ______ ____
ROOT
ATOM      1  O   UNL     1       5.277   7.016  15.447  0.00  0.00    +0.000 OA
ATOM      2  C   UNL     1       5.058   5.957  16.019  0.00  0.00    +0.000 C 
ATOM      3  C   UNL     1       4.278   5.904  17.294  0.00  0.00    +0.000 C 
ATOM      4  C   UNL     1       3.959   4.420  17.545  0.00  0.00    +0.000 C 
ATOM      5  C   UNL     1       2.434   4.153  17.634  0.00  0.00    +0.000 C 
ATOM      6  C   UNL     1       2.184   3.641  19.050  0.00  0.00    +0.000 C 
ATOM      7  N   UNL     1       3.302   4.152  19.853  0.00  0.00    +0.000 NA
ATOM      8  C   UNL     1       4.456   4.002  18.939  0.00  0.00    +0.000 C 
ATOM      9  C   UNL     1       4.654   3.668  16.389  0.00  0.00    +0.000 C 
ATOM     10  N   UNL     1       5.360   4.661  15.607  0.00  0.00    +0.000 N 
ENDROOT
BRANCH  10  11
ATOM     11  C   UNL     1       6.028   4.393  14.372  0.00  0.00    +0.000 A 
ATOM     12  C   UNL     1       7.192   5.109  14.035  0.00  0.00    +0.000 A 
ATOM     13  C   UNL     1       7.813   4.969  12.790  0.00  0.00    +0.000 A 
ATOM     14  C   UNL     1       7.277   4.100  11.849  0.00  0.00    +0.000 A 
ATOM     15  C   UNL     1       6.151   3.358  12.185  0.00  0.00    +0.000 A 
ATOM     16  F   UNL     1       5.623   2.531  11.272  0.00  0.00    +0.000 F 
ATOM     17  C   UNL     1       5.538   3.475  13.438  0.00  0.00    +0.000 A 
ENDBRANCH  10  11
BRANCH   7  18
ATOM     18  C   UNL     1       3.098   5.556  20.293  0.00  0.00    +0.000 C 
BRANCH  18  19
ATOM     19  C   UNL     1       1.643   5.851  20.700  0.00  0.00    +0.000 C 
BRANCH  19  20
ATOM     20  O   UNL     1       1.502   7.214  21.081  0.00  0.00    +0.000 OA
ATOM     21  H   UNL     1       2.205   7.688  20.592  0.00  0.00    +0.000 HD
ENDBRANCH  19  20
ENDBRANCH  18  19
ENDBRANCH   7  18
TORSDOF 4
ENDMDL
MODEL 4
REMARK VINA RESULT:      -6.6      1.653      1.947
REMARK  Name = 
REMARK  4 active torsions:
REMARK  status: ('A' for Active; 'I' for Inactive)
REMARK    1  A    between atoms: N_7  and  C_8
REMARK    2  A    between atoms: C_8  and  C_9
REMARK    3  A    between atoms: C_9  and  O_10
REMARK    4  A    between atoms: N_13  and  C_14
REMARK                            x       y       z     vdW  Elec       q    Type
REMARK                         _______ _______ _______ _____ _____    ______ ____
ROOT
ATOM      1  O   UNL     1       7.813   4.215  16.887  0.00  0.00    +0.000 OA
ATOM      2  C   UNL     1       6.593   4.226  16.802  0.00  0.00    +0.000 C 
ATOM      3  C   UNL     1       5.724   4.217  18.019  0.00  0.00    +0.000 C 
ATOM      4  C   UNL     1       4.299   4.533  17.536  0.00  0.00    +0.000 C 
ATOM      5  C   UNL     1       3.716   5.801  18.212  0.00  0.00    +0.000 C 
ATOM      6  C   UNL     1       2.503   5.327  19.008  0.00  0.00    +0.000 C 
ATOM      7  N   UNL     1       2.740   3.901  19.269  0.00  0.00    +0.000 NA
ATOM      8  C   UNL     1       3.329   3.430  17.996  0.00  0.00    +0.000 C 
ATOM      9  C   UNL     1       4.421   4.649  16.001  0.00  0.00    +0.000 C 
ATOM     10  N   UNL     1       5.796   4.346  15.665  0.00  0.00    +0.000 N 
ENDROOT
BRANCH  10  11
ATOM     11  C   UNL     1       6.354   4.468  14.355  0.00  0.00    +0.000 A 
ATOM     12  C   UNL     1       5.929   3.602  13.330  0.00  0.00    +0.000 A 
ATOM     13  C   UNL     1       6.529   3.602  12.066  0.00  0.00    +0.000 A 
ATOM     14  C   UNL     1       7.574   4.476  11.801  0.00  0.00    +0.000 A 
ATOM     15  C   UNL     1       7.976   5.362  12.793  0.00  0.00    +0.000 A 
ATOM     16  F   UNL     1       8.995   6.196  12.544  0.00  0.00    +0.000 F 
ATOM     17  C   UNL     1       7.365   5.386  14.053  0.00  0.00    +0.000 A 
ENDBRANCH  10  11
BRANCH   7  18
ATOM     18  C   UNL     1       3.631   3.671  20.434  0.00  0.00    +0.000 C 
BRANCH  18  19
ATOM     19  C   UNL     1       3.879   2.178  20.714  0.00  0.00    +0.000 C 
BRANCH  19  20
ATOM     20  O   UNL     1       5.226   1.834  20.413  0.00  0.00    +0.000 OA
ATOM     21  H   UNL     1       5.687   2.690  20.302  0.00  0.00    +0.000 HD
ENDBRANCH  19  20
ENDBRANCH  18  19
ENDBRANCH   7  18
TORSDOF 4
ENDMDL
MODEL 5
REMARK VINA RESULT:      -6.5      1.033      1.487
REMARK  Name = 
REMARK  4 active torsions:
REMARK  status: ('A' for Active; 'I' for Inactive)
REMARK    1  A    between atoms: N_7  and  C_8
REMARK    2  A    between atoms: C_8  and  C_9
REMARK    3  A    between atoms: C_9  and  O_10
REMARK    4  A    between atoms: N_13  and  C_14
REMARK                            x       y       z     vdW  Elec       q    Type
REMARK                         _______ _______ _______ _____ _____    ______ ____
ROOT
ATOM      1  O   UNL     1       4.865   6.597  15.820  0.00  0.00    +0.000 OA
ATOM      2  C   UNL     1       4.859   5.460  16.270  0.00  0.00    +0.000 C 
ATOM      3  C   UNL     1       4.082   5.109  17.498  0.00  0.00    +0.000 C 
ATOM      4  C   UNL     1       4.074   3.573  17.581  0.00  0.00    +0.000 C 
ATOM      5  C   UNL     1       2.636   2.991  17.577  0.00  0.00    +0.000 C 
ATOM      6  C   UNL     1       2.470   2.287  18.921  0.00  0.00    +0.000 C 
ATOM      7  N   UNL     1       3.440   2.925  19.819  0.00  0.00    +0.000 NA
ATOM      8  C   UNL     1       4.618   3.115  18.945  0.00  0.00    +0.000 C 
ATOM      9  C   UNL     1       4.933   3.110  16.384  0.00  0.00    +0.000 C 
ATOM     10  N   UNL     1       5.433   4.307  15.740  0.00  0.00    +0.000 N 
ENDROOT
BRANCH  10  11
ATOM     11  C   UNL     1       6.167   4.318  14.513  0.00  0.00    +0.000 A 
ATOM     12  C   UNL     1       7.241   5.212  14.348  0.00  0.00    +0.000 A 
ATOM     13  C   UNL     1       7.913   5.344  13.128  0.00  0.00    +0.000 A 
ATOM     14  C   UNL     1       7.520   4.577  12.041  0.00  0.00    +0.000 A 
ATOM     15  C   UNL     1       6.486   3.662  12.203  0.00  0.00    +0.000 A 
ATOM     16  F   UNL     1       6.095   2.932  11.150  0.00  0.00    +0.000 F 
ATOM     17  C   UNL     1       5.825   3.506  13.427  0.00  0.00    +0.000 A 
ENDBRANCH  10  11
BRANCH   7  18
ATOM     18  C   UNL     1       2.939   4.200  20.393  0.00  0.00    +0.000 C 
BRANCH  18  19
ATOM     19  C   UNL     1       1.717   4.007  21.308  0.00  0.00    +0.000 C 
BRANCH  19  20
ATOM     20  O   UNL     1       2.005   3.052  22.323  0.00  0.00    +0.000 OA
ATOM     21  H   UNL     1       2.964   2.876  22.241  0.00  0.00    +0.000 HD
ENDBRANCH  19  20
ENDBRANCH  18  19
ENDBRANCH   7  18
TORSDOF 4
ENDMDL
MODEL 6
REMARK VINA RESULT:      -6.5      4.922      7.910
REMARK  Name = 
REMARK  4 active torsions:
REMARK  status: ('A' for Active; 'I' for Inactive)
REMARK    1  A    between atoms: N_7  and  C_8
REMARK    2  A    between atoms: C_8  and  C_9
REMARK    3  A    between atoms: C_9  and  O_10
REMARK    4  A    between atoms: N_13  and  C_14
REMARK                            x       y       z     vdW  Elec       q    Type
REMARK                         _______ _______ _______ _____ _____    ______ ____
ROOT
ATOM      1  O   UNL     1       2.619   9.328  17.610  0.00  0.00    +0.000 OA
ATOM      2  C   UNL     1       2.685   8.210  18.100  0.00  0.00    +0.000 C 
ATOM      3  C   UNL     1       3.580   7.157  17.527  0.00  0.00    +0.000 C 
ATOM      4  C   UNL     1       3.621   6.016  18.558  0.00  0.00    +0.000 C 
ATOM      5  C   UNL     1       5.062   5.721  19.051  0.00  0.00    +0.000 C 
ATOM      6  C   UNL     1       5.365   4.290  18.614  0.00  0.00    +0.000 C 
ATOM      7  N   UNL     1       4.472   4.032  17.477  0.00  0.00    +0.000 NA
ATOM      8  C   UNL     1       3.214   4.690  17.893  0.00  0.00    +0.000 C 
ATOM      9  C   UNL     1       2.661   6.466  19.681  0.00  0.00    +0.000 C 
ATOM     10  N   UNL     1       2.084   7.725  19.259  0.00  0.00    +0.000 N 
ENDROOT
BRANCH  10  11
ATOM     11  C   UNL     1       1.238   8.539  20.074  0.00  0.00    +0.000 A 
ATOM     12  C   UNL     1       0.373   9.472  19.472  0.00  0.00    +0.000 A 
ATOM     13  C   UNL     1      -0.385  10.373  20.228  0.00  0.00    +0.000 A 
ATOM     14  C   UNL     1      -0.292  10.357  21.613  0.00  0.00    +0.000 A 
ATOM     15  C   UNL     1       0.529   9.413  22.219  0.00  0.00    +0.000 A 
ATOM     16  F   UNL     1       0.632   9.407  23.555  0.00  0.00    +0.000 F 
ATOM     17  C   UNL     1       1.272   8.493  21.471  0.00  0.00    +0.000 A 
ENDBRANCH  10  11
BRANCH   7  18
ATOM     18  C   UNL     1       5.004   4.566  16.197  0.00  0.00    +0.000 C 
BRANCH  18  19
ATOM     19  C   UNL     1       6.530   4.416  16.072  0.00  0.00    +0.000 C 
BRANCH  19  20
ATOM     20  O   UNL     1       7.126   5.667  15.754  0.00  0.00    +0.000 OA
ATOM     21  H   UNL     1       7.988   5.441  15.349  0.00  0.00    +0.000 HD
ENDBRANCH  19  20
ENDBRANCH  18  19
ENDBRANCH   7  18
TORSDOF 4
ENDMDL
MODEL 7
REMARK VINA RESULT:      -6.4      1.575      1.946
REMARK  Name = 
REMARK  4 active torsions:
REMARK  status: ('A' for Active; 'I' for Inactive)
REMARK    1  A    between atoms: N_7  and  C_8
REMARK    2  A    between atoms: C_8  and  C_9
REMARK    3  A    between atoms: C_9  and  O_10
REMARK    4  A    between atoms: N_13  and  C_14
REMARK                            x       y       z     vdW  Elec       q    Type
REMARK                         _______ _______ _______ _____ _____    ______ ____
ROOT
ATOM      1  O   UNL     1       7.306   4.797  17.453  0.00  0.00    +0.000 OA
ATOM      2  C   UNL     1       6.193   4.329  17.258  0.00  0.00    +0.000 C 
ATOM      3  C   UNL     1       5.215   4.145  18.374  0.00  0.00    +0.000 C 
ATOM      4  C   UNL     1       3.862   3.826  17.717  0.00  0.00    +0.000 C 
ATOM      5  C   UNL     1       2.763   4.850  18.104  0.00  0.00    +0.000 C 
ATOM      6  C   UNL     1       1.701   4.055  18.858  0.00  0.00    +0.000 C 
ATOM      7  N   UNL     1       2.399   2.876  19.386  0.00  0.00    +0.000 NA
ATOM      8  C   UNL     1       3.302   2.505  18.275  0.00  0.00    +0.000 C 
ATOM      9  C   UNL     1       4.162   3.780  16.202  0.00  0.00    +0.000 C 
ATOM     10  N   UNL     1       5.587   3.986  16.051  0.00  0.00    +0.000 N 
ENDROOT
BRANCH  10  11
ATOM     11  C   UNL     1       6.252   4.142  14.796  0.00  0.00    +0.000 A 
ATOM     12  C   UNL     1       7.218   5.153  14.635  0.00  0.00    +0.000 A 
ATOM     13  C   UNL     1       7.809   5.422  13.396  0.00  0.00    +0.000 A 
ATOM     14  C   UNL     1       7.443   4.677  12.284  0.00  0.00    +0.000 A 
ATOM     15  C   UNL     1       6.519   3.650  12.439  0.00  0.00    +0.000 A 
ATOM     16  F   UNL     1       6.152   2.940  11.363  0.00  0.00    +0.000 F 
ATOM     17  C   UNL     1       5.941   3.358  13.680  0.00  0.00    +0.000 A 
ENDBRANCH  10  11
BRANCH   7  18
ATOM     18  C   UNL     1       3.127   3.157  20.649  0.00  0.00    +0.000 C 
BRANCH  18  19
ATOM     19  C   UNL     1       2.193   3.562  21.803  0.00  0.00    +0.000 C 
BRANCH  19  20
ATOM     20  O   UNL     1       1.429   2.444  22.238  0.00  0.00    +0.000 OA
ATOM     21  H   UNL     1       1.034   2.075  21.423  0.00  0.00    +0.000 HD
ENDBRANCH  19  20
ENDBRANCH  18  19
ENDBRANCH   7  18
TORSDOF 4
ENDMDL
MODEL 8
REMARK VINA RESULT:      -6.4      5.690      7.567
REMARK  Name = 
REMARK  4 active torsions:
REMARK  status: ('A' for Active; 'I' for Inactive)
REMARK    1  A    between atoms: N_7  and  C_8
REMARK    2  A    between atoms: C_8  and  C_9
REMARK    3  A    between atoms: C_9  and  O_10
REMARK    4  A    between atoms: N_13  and  C_14
REMARK                            x       y       z     vdW  Elec       q    Type
REMARK                         _______ _______ _______ _____ _____    ______ ____
ROOT
ATOM      1  O   UNL     1       1.323   8.282  21.253  0.00  0.00    +0.000 OA
ATOM      2  C   UNL     1       1.789   7.951  20.172  0.00  0.00    +0.000 C 
ATOM      3  C   UNL     1       2.452   6.625  19.980  0.00  0.00    +0.000 C 
ATOM      4  C   UNL     1       2.637   6.449  18.463  0.00  0.00    +0.000 C 
ATOM      5  C   UNL     1       1.926   5.178  17.928  0.00  0.00    +0.000 C 
ATOM      6  C   UNL     1       3.034   4.284  17.378  0.00  0.00    +0.000 C 
ATOM      7  N   UNL     1       4.255   4.699  18.081  0.00  0.00    +0.000 NA
ATOM      8  C   UNL     1       4.115   6.170  18.139  0.00  0.00    +0.000 C 
ATOM      9  C   UNL     1       2.105   7.762  17.847  0.00  0.00    +0.000 C 
ATOM     10  N   UNL     1       1.728   8.620  18.951  0.00  0.00    +0.000 N 
ENDROOT
BRANCH  10  11
ATOM     11  C   UNL     1       1.070   9.880  18.807  0.00  0.00    +0.000 A 
ATOM     12  C   UNL     1       1.831  11.053  18.645  0.00  0.00    +0.000 A 
ATOM     13  C   UNL     1       1.240  12.321  18.620  0.00  0.00    +0.000 A 
ATOM     14  C   UNL     1      -0.136  12.440  18.756  0.00  0.00    +0.000 A 
ATOM     15  C   UNL     1      -0.902  11.287  18.877  0.00  0.00    +0.000 A 
ATOM     16  F   UNL     1      -2.229  11.401  19.025  0.00  0.00    +0.000 F 
ATOM     17  C   UNL     1      -0.321  10.013  18.879  0.00  0.00    +0.000 A 
ENDBRANCH  10  11
BRANCH   7  18
ATOM     18  C   UNL     1       4.382   4.080  19.425  0.00  0.00    +0.000 C 
BRANCH  18  19
ATOM     19  C   UNL     1       4.094   2.568  19.419  0.00  0.00    +0.000 C 
BRANCH  19  20
ATOM     20  O   UNL     1       5.143   1.862  20.070  0.00  0.00    +0.000 OA
ATOM     21  H   UNL     1       5.947   2.395  19.907  0.00  0.00    +0.000 HD
ENDBRANCH  19  20
ENDBRANCH  18  19
ENDBRANCH   7  18
TORSDOF 4
ENDMDL
MODEL 9
REMARK VINA RESULT:      -6.3      1.895      2.352
REMARK  Name = 
REMARK  4 active torsions:
REMARK  status: ('A' for Active; 'I' for Inactive)
REMARK    1  A    between atoms: N_7  and  C_8
REMARK    2  A    between atoms: C_8  and  C_9
REMARK    3  A    between atoms: C_9  and  O_10
REMARK    4  A    between atoms: N_13  and  C_14
REMARK                            x       y       z     vdW  Elec       q    Type
REMARK                         _______ _______ _______ _____ _____    ______ ____
ROOT
ATOM      1  O   UNL     1       7.686   4.381  17.037  0.00  0.00    +0.000 OA
ATOM      2  C   UNL     1       6.476   4.290  16.884  0.00  0.00    +0.000 C 
ATOM      3  C   UNL     1       5.534   4.349  18.044  0.00  0.00    +0.000 C 
ATOM      4  C   UNL     1       4.124   4.501  17.450  0.00  0.00    +0.000 C 
ATOM      5  C   UNL     1       3.413   5.789  17.944  0.00  0.00    +0.000 C 
ATOM      6  C   UNL     1       2.188   5.315  18.720  0.00  0.00    +0.000 C 
ATOM      7  N   UNL     1       2.506   3.949  19.155  0.00  0.00    +0.000 NA
ATOM      8  C   UNL     1       3.205   3.386  17.979  0.00  0.00    +0.000 C 
ATOM      9  C   UNL     1       4.335   4.456  15.921  0.00  0.00    +0.000 C 
ATOM     10  N   UNL     1       5.746   4.224  15.699  0.00  0.00    +0.000 N 
ENDROOT
BRANCH  10  11
ATOM     11  C   UNL     1       6.377   4.242  14.416  0.00  0.00    +0.000 A 
ATOM     12  C   UNL     1       7.316   5.245  14.112  0.00  0.00    +0.000 A 
ATOM     13  C   UNL     1       7.870   5.376  12.834  0.00  0.00    +0.000 A 
ATOM     14  C   UNL     1       7.492   4.498  11.828  0.00  0.00    +0.000 A 
ATOM     15  C   UNL     1       6.595   3.480  12.127  0.00  0.00    +0.000 A 
ATOM     16  F   UNL     1       6.217   2.641  11.152  0.00  0.00    +0.000 F 
ATOM     17  C   UNL     1       6.055   3.327  13.409  0.00  0.00    +0.000 A 
ENDBRANCH  10  11
BRANCH   7  18
ATOM     18  C   UNL     1       3.335   3.916  20.386  0.00  0.00    +0.000 C 
BRANCH  18  19
ATOM     19  C   UNL     1       3.564   2.491  20.918  0.00  0.00    +0.000 C 
BRANCH  19  20
ATOM     20  O   UNL     1       4.876   2.046  20.596  0.00  0.00    +0.000 OA
ATOM     21  H   UNL     1       4.790   1.614  19.723  0.00  0.00    +0.000 HD
ENDBRANCH  19  20
ENDBRANCH  18  19
ENDBRANCH   7  18
TORSDOF 4
ENDMDL
