MODEL 1
REMARK VINA RESULT:      -8.7      0.000      0.000
REMARK  Name = 
REMARK  3 active torsions:
REMARK  status: ('A' for Active; 'I' for Inactive)
REMARK    1  A    between atoms: C_5  and  C_6
REMARK    2  A    between atoms: C_10  and  N_11
REMARK    3  A    between atoms: C_12  and  C_14
REMARK                            x       y       z     vdW  Elec       q    Type
REMARK                         _______ _______ _______ _____ _____    ______ ____
ROOT
ATOM      1  C   UNL     1       4.769   4.906  17.179  0.00  0.00    +0.000 A 
ATOM      2  C   UNL     1       5.408   4.004  16.313  0.00  0.00    +0.000 A 
ATOM      3  C   UNL     1       6.593   4.354  15.668  0.00  0.00    +0.000 A 
ATOM      4  C   UNL     1       7.173   5.603  15.882  0.00  0.00    +0.000 A 
ATOM      5  C   UNL     1       6.563   6.542  16.747  0.00  0.00    +0.000 A 
ATOM      6  C   UNL     1       5.356   6.175  17.377  0.00  0.00    +0.000 A 
ENDROOT
BRANCH   1  11
ATOM      7  N   UNL     1       0.256   3.087  20.095  0.00  0.00    +0.000 N 
ATOM      8  C   UNL     1       1.332   3.616  19.348  0.00  0.00    +0.000 A 
ATOM      9  N   UNL     1       1.490   3.266  18.047  0.00  0.00    +0.000 NA
ATOM     10  C   UNL     1       2.552   3.704  17.327  0.00  0.00    +0.000 A 
ATOM     11  C   UNL     1       3.531   4.515  17.925  0.00  0.00    +0.000 A 
ATOM     12  C   UNL     1       3.322   4.889  19.267  0.00  0.00    +0.000 A 
ATOM     13  N   UNL     1       2.235   4.436  19.942  0.00  0.00    +0.000 NA
ATOM     14  H   UNL     1      -0.391   2.412  19.664  0.00  0.00    +0.000 HD
ATOM     15  H   UNL     1       0.153   3.317  21.093  0.00  0.00    +0.000 HD
ENDBRANCH   1  11
BRANCH   5  16
ATOM     16  N   UNL     1       7.128   7.832  17.062  0.00  0.00    +0.000 N 
ATOM     17  C   UNL     1       8.013   8.118  18.072  0.00  0.00    +0.000 C 
ATOM     18  O   UNL     1       8.457   7.223  18.772  0.00  0.00    +0.000 OA
ATOM     19  H   UNL     1       6.832   8.599  16.447  0.00  0.00    +0.000 HD
BRANCH  17  20
ATOM     20  C   UNL     1       8.503   9.513  18.341  0.00  0.00    +0.000 A 
ATOM     21  C   UNL     1       9.410   9.832  19.379  0.00  0.00    +0.000 A 
ATOM     22  C   UNL     1       9.832  11.153  19.578  0.00  0.00    +0.000 A 
ATOM     23  F   UNL     1      10.704  11.443  20.575  0.00  0.00    +0.000 F 
ATOM     24  C   UNL     1       9.362  12.176  18.752  0.00  0.00    +0.000 A 
ATOM     25  C   UNL     1       8.470  11.880  17.722  0.00  0.00    +0.000 A 
ATOM     26  F   UNL     1       8.011  12.871  16.919  0.00  0.00    +0.000 F 
ATOM     27  C   UNL     1       8.047  10.566  17.516  0.00  0.00    +0.000 A 
ENDBRANCH  17  20
ENDBRANCH   5  16
TORSDOF 3
ENDMDL
MODEL 2
REMARK VINA RESULT:      -8.6      0.517      1.768
REMARK  Name = 
REMARK  3 active torsions:
REMARK  status: ('A' for Active; 'I' for Inactive)
REMARK    1  A    between atoms: C_5  and  C_6
REMARK    2  A    between atoms: C_10  and  N_11
REMARK    3  A    between atoms: C_12  and  C_14
REMARK                            x       y       z     vdW  Elec       q    Type
REMARK                         _______ _______ _______ _____ _____    ______ ____
ROOT
ATOM      1  C   UNL     1       4.903   4.918  17.429  0.00  0.00    +0.000 A 
ATOM      2  C   UNL     1       5.505   4.025  16.526  0.00  0.00    +0.000 A 
ATOM      3  C   UNL     1       6.631   4.402  15.796  0.00  0.00    +0.000 A 
ATOM      4  C   UNL     1       7.189   5.669  15.959  0.00  0.00    +0.000 A 
ATOM      5  C   UNL     1       6.614   6.599  16.858  0.00  0.00    +0.000 A 
ATOM      6  C   UNL     1       5.466   6.204  17.575  0.00  0.00    +0.000 A 
ENDROOT
BRANCH   1  11
ATOM      7  N   UNL     1       0.453   3.002  20.379  0.00  0.00    +0.000 N 
ATOM      8  C   UNL     1       1.557   3.556  19.695  0.00  0.00    +0.000 A 
ATOM      9  N   UNL     1       1.367   4.224  18.530  0.00  0.00    +0.000 NA
ATOM     10  C   UNL     1       2.416   4.706  17.818  0.00  0.00    +0.000 A 
ATOM     11  C   UNL     1       3.732   4.499  18.263  0.00  0.00    +0.000 A 
ATOM     12  C   UNL     1       3.896   3.832  19.492  0.00  0.00    +0.000 A 
ATOM     13  N   UNL     1       2.814   3.380  20.176  0.00  0.00    +0.000 NA
ATOM     14  H   UNL     1      -0.493   3.076  19.980  0.00  0.00    +0.000 HD
ATOM     15  H   UNL     1       0.595   2.459  21.243  0.00  0.00    +0.000 HD
ENDBRANCH   1  11
BRANCH   5  16
ATOM     16  N   UNL     1       7.163   7.907  17.123  0.00  0.00    +0.000 N 
ATOM     17  C   UNL     1       8.060   8.239  18.108  0.00  0.00    +0.000 C 
ATOM     18  O   UNL     1       8.530   7.374  18.828  0.00  0.00    +0.000 OA
ATOM     19  H   UNL     1       6.845   8.649  16.489  0.00  0.00    +0.000 HD
BRANCH  17  20
ATOM     20  C   UNL     1       8.532   9.650  18.325  0.00  0.00    +0.000 A 
ATOM     21  C   UNL     1       8.121  10.740  17.522  0.00  0.00    +0.000 A 
ATOM     22  C   UNL     1       8.595  12.033  17.777  0.00  0.00    +0.000 A 
ATOM     23  F   UNL     1       8.191  13.068  17.001  0.00  0.00    +0.000 F 
ATOM     24  C   UNL     1       9.482  12.264  18.831  0.00  0.00    +0.000 A 
ATOM     25  C   UNL     1       9.895  11.203  19.634  0.00  0.00    +0.000 A 
ATOM     26  F   UNL     1      10.757  11.425  20.658  0.00  0.00    +0.000 F 
ATOM     27  C   UNL     1       9.424   9.912  19.389  0.00  0.00    +0.000 A 
ENDBRANCH  17  20
ENDBRANCH   5  16
TORSDOF 3
ENDMDL
MODEL 3
REMARK VINA RESULT:      -8.5      1.051      1.999
REMARK  Name = 
REMARK  3 active torsions:
REMARK  status: ('A' for Active; 'I' for Inactive)
REMARK    1  A    between atoms: C_5  and  C_6
REMARK    2  A    between atoms: C_10  and  N_11
REMARK    3  A    between atoms: C_12  and  C_14
REMARK                            x       y       z     vdW  Elec       q    Type
REMARK                         _______ _______ _______ _____ _____    ______ ____
ROOT
ATOM      1  C   UNL     1       5.047   4.758  17.811  0.00  0.00    +0.000 A 
ATOM      2  C   UNL     1       5.453   3.939  16.743  0.00  0.00    +0.000 A 
ATOM      3  C   UNL     1       6.378   4.398  15.807  0.00  0.00    +0.000 A 
ATOM      4  C   UNL     1       6.929   5.673  15.921  0.00  0.00    +0.000 A 
ATOM      5  C   UNL     1       6.549   6.529  16.981  0.00  0.00    +0.000 A 
ATOM      6  C   UNL     1       5.599   6.053  17.909  0.00  0.00    +0.000 A 
ENDROOT
BRANCH   1  11
ATOM      7  N   UNL     1       1.774   2.812  22.014  0.00  0.00    +0.000 N 
ATOM      8  C   UNL     1       2.514   3.296  20.914  0.00  0.00    +0.000 A 
ATOM      9  N   UNL     1       3.181   2.430  20.111  0.00  0.00    +0.000 NA
ATOM     10  C   UNL     1       3.955   2.873  19.090  0.00  0.00    +0.000 A 
ATOM     11  C   UNL     1       4.103   4.250  18.856  0.00  0.00    +0.000 A 
ATOM     12  C   UNL     1       3.371   5.124  19.684  0.00  0.00    +0.000 A 
ATOM     13  N   UNL     1       2.598   4.631  20.685  0.00  0.00    +0.000 NA
ATOM     14  H   UNL     1       1.764   1.805  22.229  0.00  0.00    +0.000 HD
ATOM     15  H   UNL     1       1.298   3.467  22.651  0.00  0.00    +0.000 HD
ENDBRANCH   1  11
BRANCH   5  16
ATOM     16  N   UNL     1       7.112   7.840  17.199  0.00  0.00    +0.000 N 
ATOM     17  C   UNL     1       8.037   8.190  18.151  0.00  0.00    +0.000 C 
ATOM     18  O   UNL     1       8.521   7.340  18.880  0.00  0.00    +0.000 OA
ATOM     19  H   UNL     1       6.781   8.568  16.556  0.00  0.00    +0.000 HD
BRANCH  17  20
ATOM     20  C   UNL     1       8.523   9.602  18.321  0.00  0.00    +0.000 A 
ATOM     21  C   UNL     1       8.097  10.675  17.503  0.00  0.00    +0.000 A 
ATOM     22  C   UNL     1       8.586  11.971  17.713  0.00  0.00    +0.000 A 
ATOM     23  F   UNL     1       8.167  12.989  16.923  0.00  0.00    +0.000 F 
ATOM     24  C   UNL     1       9.502  12.222  18.737  0.00  0.00    +0.000 A 
ATOM     25  C   UNL     1       9.930  11.178  19.555  0.00  0.00    +0.000 A 
ATOM     26  F   UNL     1      10.820  11.419  20.550  0.00  0.00    +0.000 F 
ATOM     27  C   UNL     1       9.445   9.884  19.354  0.00  0.00    +0.000 A 
ENDBRANCH  17  20
ENDBRANCH   5  16
TORSDOF 3
ENDMDL
MODEL 4
REMARK VINA RESULT:      -8.3      4.951      7.216
REMARK  Name = 
REMARK  3 active torsions:
REMARK  status: ('A' for Active; 'I' for Inactive)
REMARK    1  A    between atoms: C_5  and  C_6
REMARK    2  A    between atoms: C_10  and  N_11
REMARK    3  A    between atoms: C_12  and  C_14
REMARK                            x       y       z     vdW  Elec       q    Type
REMARK                         _______ _______ _______ _____ _____    ______ ____
ROOT
ATOM      1  C   UNL     1       4.371   4.194  18.719  0.00  0.00    +0.000 A 
ATOM      2  C   UNL     1       4.125   2.918  19.253  0.00  0.00    +0.000 A 
ATOM      3  C   UNL     1       3.211   2.745  20.291  0.00  0.00    +0.000 A 
ATOM      4  C   UNL     1       2.513   3.834  20.809  0.00  0.00    +0.000 A 
ATOM      5  C   UNL     1       2.730   5.136  20.299  0.00  0.00    +0.000 A 
ATOM      6  C   UNL     1       3.671   5.293  19.260  0.00  0.00    +0.000 A 
ENDROOT
BRANCH   1  11
ATOM      7  N   UNL     1       7.782   5.267  14.316  0.00  0.00    +0.000 N 
ATOM      8  C   UNL     1       6.963   4.913  15.410  0.00  0.00    +0.000 A 
ATOM      9  N   UNL     1       5.672   4.553  15.201  0.00  0.00    +0.000 NA
ATOM     10  C   UNL     1       4.844   4.276  16.239  0.00  0.00    +0.000 A 
ATOM     11  C   UNL     1       5.304   4.379  17.562  0.00  0.00    +0.000 A 
ATOM     12  C   UNL     1       6.658   4.721  17.746  0.00  0.00    +0.000 A 
ATOM     13  N   UNL     1       7.451   4.976  16.674  0.00  0.00    +0.000 NA
ATOM     14  H   UNL     1       7.394   5.285  13.362  0.00  0.00    +0.000 HD
ATOM     15  H   UNL     1       8.751   5.579  14.471  0.00  0.00    +0.000 HD
ENDBRANCH   1  11
BRANCH   5  16
ATOM     16  N   UNL     1       2.009   6.305  20.743  0.00  0.00    +0.000 N 
ATOM     17  C   UNL     1       1.873   7.494  20.070  0.00  0.00    +0.000 C 
ATOM     18  O   UNL     1       2.331   7.619  18.947  0.00  0.00    +0.000 OA
ATOM     19  H   UNL     1       1.548   6.211  21.656  0.00  0.00    +0.000 HD
BRANCH  17  20
ATOM     20  C   UNL     1       1.136   8.668  20.650  0.00  0.00    +0.000 A 
ATOM     21  C   UNL     1       0.742   9.793  19.888  0.00  0.00    +0.000 A 
ATOM     22  C   UNL     1       0.055  10.856  20.487  0.00  0.00    +0.000 A 
ATOM     23  F   UNL     1      -0.319  11.926  19.743  0.00  0.00    +0.000 F 
ATOM     24  C   UNL     1      -0.254  10.819  21.848  0.00  0.00    +0.000 A 
ATOM     25  C   UNL     1       0.124   9.718  22.615  0.00  0.00    +0.000 A 
ATOM     26  F   UNL     1      -0.173   9.680  23.937  0.00  0.00    +0.000 F 
ATOM     27  C   UNL     1       0.807   8.653  22.024  0.00  0.00    +0.000 A 
ENDBRANCH  17  20
ENDBRANCH   5  16
TORSDOF 3
ENDMDL
MODEL 5
REMARK VINA RESULT:      -8.2      5.126      6.770
REMARK  Name = 
REMARK  3 active torsions:
REMARK  status: ('A' for Active; 'I' for Inactive)
REMARK    1  A    between atoms: C_5  and  C_6
REMARK    2  A    between atoms: C_10  and  N_11
REMARK    3  A    between atoms: C_12  and  C_14
REMARK                            x       y       z     vdW  Elec       q    Type
REMARK                         _______ _______ _______ _____ _____    ______ ____
ROOT
ATOM      1  C   UNL     1       2.636   5.792  19.346  0.00  0.00    +0.000 A 
ATOM      2  C   UNL     1       2.677   4.761  20.300  0.00  0.00    +0.000 A 
ATOM      3  C   UNL     1       3.249   3.528  19.993  0.00  0.00    +0.000 A 
ATOM      4  C   UNL     1       3.804   3.299  18.735  0.00  0.00    +0.000 A 
ATOM      5  C   UNL     1       3.785   4.310  17.745  0.00  0.00    +0.000 A 
ATOM      6  C   UNL     1       3.186   5.545  18.070  0.00  0.00    +0.000 A 
ENDROOT
BRANCH   1  11
ATOM      7  N   UNL     1       0.197  10.785  20.481  0.00  0.00    +0.000 N 
ATOM      8  C   UNL     1       0.882   9.575  20.235  0.00  0.00    +0.000 A 
ATOM      9  N   UNL     1       1.458   9.356  19.027  0.00  0.00    +0.000 NA
ATOM     10  C   UNL     1       2.061   8.176  18.741  0.00  0.00    +0.000 A 
ATOM     11  C   UNL     1       2.081   7.139  19.688  0.00  0.00    +0.000 A 
ATOM     12  C   UNL     1       1.505   7.409  20.945  0.00  0.00    +0.000 A 
ATOM     13  N   UNL     1       0.925   8.611  21.189  0.00  0.00    +0.000 NA
ATOM     14  H   UNL     1       0.105  11.489  19.735  0.00  0.00    +0.000 HD
ATOM     15  H   UNL     1      -0.277  10.941  21.382  0.00  0.00    +0.000 HD
ENDBRANCH   1  11
BRANCH   5  16
ATOM     16  N   UNL     1       4.386   4.169  16.440  0.00  0.00    +0.000 N 
ATOM     17  C   UNL     1       5.653   4.549  16.072  0.00  0.00    +0.000 C 
ATOM     18  O   UNL     1       6.425   4.999  16.903  0.00  0.00    +0.000 OA
ATOM     19  H   UNL     1       3.790   3.727  15.731  0.00  0.00    +0.000 HD
BRANCH  17  20
ATOM     20  C   UNL     1       6.163   4.398  14.666  0.00  0.00    +0.000 A 
ATOM     21  C   UNL     1       5.623   3.478  13.737  0.00  0.00    +0.000 A 
ATOM     22  C   UNL     1       6.141   3.387  12.440  0.00  0.00    +0.000 A 
ATOM     23  F   UNL     1       5.612   2.503  11.559  0.00  0.00    +0.000 F 
ATOM     24  C   UNL     1       7.200   4.206  12.043  0.00  0.00    +0.000 A 
ATOM     25  C   UNL     1       7.743   5.121  12.945  0.00  0.00    +0.000 A 
ATOM     26  F   UNL     1       8.773   5.917  12.563  0.00  0.00    +0.000 F 
ATOM     27  C   UNL     1       7.230   5.220  14.239  0.00  0.00    +0.000 A 
ENDBRANCH  17  20
ENDBRANCH   5  16
TORSDOF 3
ENDMDL
MODEL 6
REMARK VINA RESULT:      -8.2      5.026      7.125
REMARK  Name = 
REMARK  3 active torsions:
REMARK  status: ('A' for Active; 'I' for Inactive)
REMARK    1  A    between atoms: C_5  and  C_6
REMARK    2  A    between atoms: C_10  and  N_11
REMARK    3  A    between atoms: C_12  and  C_14
REMARK                            x       y       z     vdW  Elec       q    Type
REMARK                         _______ _______ _______ _____ _____    ______ ____
ROOT
ATOM      1  C   UNL     1       4.572   4.599  18.442  0.00  0.00    +0.000 A 
ATOM      2  C   UNL     1       4.383   3.280  18.887  0.00  0.00    +0.000 A 
ATOM      3  C   UNL     1       3.483   2.998  19.914  0.00  0.00    +0.000 A 
ATOM      4  C   UNL     1       2.744   4.019  20.509  0.00  0.00    +0.000 A 
ATOM      5  C   UNL     1       2.903   5.361  20.090  0.00  0.00    +0.000 A 
ATOM      6  C   UNL     1       3.831   5.628  19.061  0.00  0.00    +0.000 A 
ENDROOT
BRANCH   1  11
ATOM      7  N   UNL     1       7.954   5.400  13.960  0.00  0.00    +0.000 N 
ATOM      8  C   UNL     1       7.140   5.283  15.107  0.00  0.00    +0.000 A 
ATOM      9  N   UNL     1       7.600   4.624  16.200  0.00  0.00    +0.000 NA
ATOM     10  C   UNL     1       6.814   4.436  17.289  0.00  0.00    +0.000 A 
ATOM     11  C   UNL     1       5.489   4.903  17.298  0.00  0.00    +0.000 A 
ATOM     12  C   UNL     1       5.051   5.613  16.163  0.00  0.00    +0.000 A 
ATOM     13  N   UNL     1       5.880   5.787  15.102  0.00  0.00    +0.000 NA
ATOM     14  H   UNL     1       8.885   4.960  13.937  0.00  0.00    +0.000 HD
ATOM     15  H   UNL     1       7.596   5.864  13.113  0.00  0.00    +0.000 HD
ENDBRANCH   1  11
BRANCH   5  16
ATOM     16  N   UNL     1       2.137   6.464  20.617  0.00  0.00    +0.000 N 
ATOM     17  C   UNL     1       1.874   7.657  19.990  0.00  0.00    +0.000 C 
ATOM     18  O   UNL     1       2.242   7.842  18.842  0.00  0.00    +0.000 OA
ATOM     19  H   UNL     1       1.750   6.317  21.556  0.00  0.00    +0.000 HD
BRANCH  17  20
ATOM     20  C   UNL     1       1.101   8.763  20.654  0.00  0.00    +0.000 A 
ATOM     21  C   UNL     1       0.738   8.746  22.021  0.00  0.00    +0.000 A 
ATOM     22  C   UNL     1       0.019   9.809  22.581  0.00  0.00    +0.000 A 
ATOM     23  F   UNL     1      -0.319   9.780  23.894  0.00  0.00    +0.000 F 
ATOM     24  C   UNL     1      -0.350  10.903  21.796  0.00  0.00    +0.000 A 
ATOM     25  C   UNL     1       0.001  10.938  20.448  0.00  0.00    +0.000 A 
ATOM     26  F   UNL     1      -0.357  11.999  19.682  0.00  0.00    +0.000 F 
ATOM     27  C   UNL     1       0.721   9.884  19.882  0.00  0.00    +0.000 A 
ENDBRANCH  17  20
ENDBRANCH   5  16
TORSDOF 3
ENDMDL
MODEL 7
REMARK VINA RESULT:      -8.2      5.095      6.757
REMARK  Name = 
REMARK  3 active torsions:
REMARK  status: ('A' for Active; 'I' for Inactive)
REMARK    1  A    between atoms: C_5  and  C_6
REMARK    2  A    between atoms: C_10  and  N_11
REMARK    3  A    between atoms: C_12  and  C_14
REMARK                            x       y       z     vdW  Elec       q    Type
REMARK                         _______ _______ _______ _____ _____    ______ ____
ROOT
ATOM      1  C   UNL     1       2.503   6.184  19.338  0.00  0.00    +0.000 A 
ATOM      2  C   UNL     1       2.508   5.146  20.285  0.00  0.00    +0.000 A 
ATOM      3  C   UNL     1       3.067   3.906  19.980  0.00  0.00    +0.000 A 
ATOM      4  C   UNL     1       3.646   3.677  18.733  0.00  0.00    +0.000 A 
ATOM      5  C   UNL     1       3.664   4.695  17.751  0.00  0.00    +0.000 A 
ATOM      6  C   UNL     1       3.078   5.937  18.072  0.00  0.00    +0.000 A 
ENDROOT
BRANCH   1  11
ATOM      7  N   UNL     1       0.108  11.194  20.488  0.00  0.00    +0.000 N 
ATOM      8  C   UNL     1       0.784   9.981  20.233  0.00  0.00    +0.000 A 
ATOM      9  N   UNL     1       1.292   9.735  19.000  0.00  0.00    +0.000 NA
ATOM     10  C   UNL     1       1.885   8.550  18.709  0.00  0.00    +0.000 A 
ATOM     11  C   UNL     1       1.962   7.537  19.679  0.00  0.00    +0.000 A 
ATOM     12  C   UNL     1       1.456   7.835  20.959  0.00  0.00    +0.000 A 
ATOM     13  N   UNL     1       0.884   9.041  21.206  0.00  0.00    +0.000 NA
ATOM     14  H   UNL     1      -0.029  11.880  19.732  0.00  0.00    +0.000 HD
ATOM     15  H   UNL     1      -0.316  11.371  21.410  0.00  0.00    +0.000 HD
ENDBRANCH   1  11
BRANCH   5  16
ATOM     16  N   UNL     1       4.291   4.555  16.458  0.00  0.00    +0.000 N 
ATOM     17  C   UNL     1       5.635   4.616  16.184  0.00  0.00    +0.000 C 
ATOM     18  O   UNL     1       6.442   4.734  17.092  0.00  0.00    +0.000 OA
ATOM     19  H   UNL     1       3.647   4.382  15.678  0.00  0.00    +0.000 HD
BRANCH  17  20
ATOM     20  C   UNL     1       6.178   4.503  14.788  0.00  0.00    +0.000 A 
ATOM     21  C   UNL     1       7.276   5.261  14.317  0.00  0.00    +0.000 A 
ATOM     22  C   UNL     1       7.737   5.108  13.003  0.00  0.00    +0.000 A 
ATOM     23  F   UNL     1       8.792   5.839  12.567  0.00  0.00    +0.000 F 
ATOM     24  C   UNL     1       7.119   4.203  12.138  0.00  0.00    +0.000 A 
ATOM     25  C   UNL     1       6.037   3.446  12.586  0.00  0.00    +0.000 A 
ATOM     26  F   UNL     1       5.434   2.567  11.748  0.00  0.00    +0.000 F 
ATOM     27  C   UNL     1       5.574   3.590  13.895  0.00  0.00    +0.000 A 
ENDBRANCH  17  20
ENDBRANCH   5  16
TORSDOF 3
ENDMDL
MODEL 8
REMARK VINA RESULT:      -8.1      5.121      6.867
REMARK  Name = 
REMARK  3 active torsions:
REMARK  status: ('A' for Active; 'I' for Inactive)
REMARK    1  A    between atoms: C_5  and  C_6
REMARK    2  A    between atoms: C_10  and  N_11
REMARK    3  A    between atoms: C_12  and  C_14
REMARK                            x       y       z     vdW  Elec       q    Type
REMARK                         _______ _______ _______ _____ _____    ______ ____
ROOT
ATOM      1  C   UNL     1       2.560   6.083  19.278  0.00  0.00    +0.000 A 
ATOM      2  C   UNL     1       2.650   5.108  20.287  0.00  0.00    +0.000 A 
ATOM      3  C   UNL     1       3.267   3.883  20.040  0.00  0.00    +0.000 A 
ATOM      4  C   UNL     1       3.820   3.607  18.791  0.00  0.00    +0.000 A 
ATOM      5  C   UNL     1       3.753   4.561  17.748  0.00  0.00    +0.000 A 
ATOM      6  C   UNL     1       3.109   5.788  18.012  0.00  0.00    +0.000 A 
ENDROOT
BRANCH   1  11
ATOM      7  N   UNL     1       0.618  11.279  20.457  0.00  0.00    +0.000 N 
ATOM      8  C   UNL     1       1.017   9.964  20.136  0.00  0.00    +0.000 A 
ATOM      9  N   UNL     1       1.030   9.006  21.096  0.00  0.00    +0.000 NA
ATOM     10  C   UNL     1       1.474   7.752  20.831  0.00  0.00    +0.000 A 
ATOM     11  C   UNL     1       1.956   7.424  19.553  0.00  0.00    +0.000 A 
ATOM     12  C   UNL     1       1.898   8.429  18.568  0.00  0.00    +0.000 A 
ATOM     13  N   UNL     1       1.432   9.666  18.879  0.00  0.00    +0.000 NA
ATOM     14  H   UNL     1       0.368  11.523  21.426  0.00  0.00    +0.000 HD
ATOM     15  H   UNL     1       0.644  12.020  19.742  0.00  0.00    +0.000 HD
ENDBRANCH   1  11
BRANCH   5  16
ATOM     16  N   UNL     1       4.348   4.372  16.446  0.00  0.00    +0.000 N 
ATOM     17  C   UNL     1       5.635   4.679  16.078  0.00  0.00    +0.000 C 
ATOM     18  O   UNL     1       6.428   5.096  16.905  0.00  0.00    +0.000 OA
ATOM     19  H   UNL     1       3.730   3.955  15.741  0.00  0.00    +0.000 HD
BRANCH  17  20
ATOM     20  C   UNL     1       6.138   4.484  14.675  0.00  0.00    +0.000 A 
ATOM     21  C   UNL     1       5.547   3.588  13.753  0.00  0.00    +0.000 A 
ATOM     22  C   UNL     1       6.063   3.453  12.458  0.00  0.00    +0.000 A 
ATOM     23  F   UNL     1       5.484   2.593  11.585  0.00  0.00    +0.000 F 
ATOM     24  C   UNL     1       7.169   4.205  12.057  0.00  0.00    +0.000 A 
ATOM     25  C   UNL     1       7.762   5.096  12.951  0.00  0.00    +0.000 A 
ATOM     26  F   UNL     1       8.838   5.826  12.564  0.00  0.00    +0.000 F 
ATOM     27  C   UNL     1       7.253   5.237  14.242  0.00  0.00    +0.000 A 
ENDBRANCH  17  20
ENDBRANCH   5  16
TORSDOF 3
ENDMDL
MODEL 9
REMARK VINA RESULT:      -8.1      4.728      7.223
REMARK  Name = 
REMARK  3 active torsions:
REMARK  status: ('A' for Active; 'I' for Inactive)
REMARK    1  A    between atoms: C_5  and  C_6
REMARK    2  A    between atoms: C_10  and  N_11
REMARK    3  A    between atoms: C_12  and  C_14
REMARK                            x       y       z     vdW  Elec       q    Type
REMARK                         _______ _______ _______ _____ _____    ______ ____
ROOT
ATOM      1  C   UNL     1       4.544   4.578  18.118  0.00  0.00    +0.000 A 
ATOM      2  C   UNL     1       4.348   3.262  18.571  0.00  0.00    +0.000 A 
ATOM      3  C   UNL     1       3.502   2.998  19.647  0.00  0.00    +0.000 A 
ATOM      4  C   UNL     1       2.825   4.035  20.286  0.00  0.00    +0.000 A 
ATOM      5  C   UNL     1       2.993   5.374  19.862  0.00  0.00    +0.000 A 
ATOM      6  C   UNL     1       3.866   5.623  18.782  0.00  0.00    +0.000 A 
ENDROOT
BRANCH   1  11
ATOM      7  N   UNL     1       8.050   5.409  13.737  0.00  0.00    +0.000 N 
ATOM      8  C   UNL     1       7.121   5.264  14.791  0.00  0.00    +0.000 A 
ATOM      9  N   UNL     1       7.277   5.977  15.934  0.00  0.00    +0.000 NA
ATOM     10  C   UNL     1       6.439   5.807  16.987  0.00  0.00    +0.000 A 
ATOM     11  C   UNL     1       5.400   4.863  16.924  0.00  0.00    +0.000 A 
ATOM     12  C   UNL     1       5.243   4.163  15.712  0.00  0.00    +0.000 A 
ATOM     13  N   UNL     1       6.099   4.379  14.681  0.00  0.00    +0.000 NA
ATOM     14  H   UNL     1       8.864   6.030  13.846  0.00  0.00    +0.000 HD
ATOM     15  H   UNL     1       7.960   4.841  12.883  0.00  0.00    +0.000 HD
ENDBRANCH   1  11
BRANCH   5  16
ATOM     16  N   UNL     1       2.287   6.495  20.436  0.00  0.00    +0.000 N 
ATOM     17  C   UNL     1       1.926   7.655  19.796  0.00  0.00    +0.000 C 
ATOM     18  O   UNL     1       2.137   7.789  18.602  0.00  0.00    +0.000 OA
ATOM     19  H   UNL     1       2.029   6.388  21.423  0.00  0.00    +0.000 HD
BRANCH  17  20
ATOM     20  C   UNL     1       1.231   8.783  20.505  0.00  0.00    +0.000 A 
ATOM     21  C   UNL     1       0.854   9.988  19.867  0.00  0.00    +0.000 A 
ATOM     22  C   UNL     1       0.206  11.002  20.584  0.00  0.00    +0.000 A 
ATOM     23  F   UNL     1      -0.151  12.151  19.958  0.00  0.00    +0.000 F 
ATOM     24  C   UNL     1      -0.078  10.837  21.941  0.00  0.00    +0.000 A 
ATOM     25  C   UNL     1       0.283   9.655  22.585  0.00  0.00    +0.000 A 
ATOM     26  F   UNL     1       0.009   9.492  23.903  0.00  0.00    +0.000 F 
ATOM     27  C   UNL     1       0.926   8.638  21.878  0.00  0.00    +0.000 A 
ENDBRANCH  17  20
ENDBRANCH   5  16
TORSDOF 3
ENDMDL
