MODEL 1
REMARK VINA RESULT:      -6.9      0.000      0.000
REMARK  Name = 
REMARK  5 active torsions:
REMARK  status: ('A' for Active; 'I' for Inactive)
REMARK    1  A    between atoms: C_1  and  C_2
REMARK    2  A    between atoms: C_2  and  C_3
REMARK    3  A    between atoms: C_6  and  C_7
REMARK    4  A    between atoms: C_9  and  C_10
REMARK    5  A    between atoms: C_10  and  C_11
REMARK                            x       y       z     vdW  Elec       q    Type
REMARK                         _______ _______ _______ _____ _____    ______ ____
ROOT
ATOM      1  C   UNL     1       4.248   4.650  17.158  0.00  0.00    +0.000 A 
ATOM      2  C   UNL     1       4.828   4.257  15.967  0.00  0.00    +0.000 A 
ATOM      3  C   UNL     1       5.986   5.034  15.606  0.00  0.00    +0.000 A 
ATOM      4  C   UNL     1       6.237   5.984  16.576  0.00  0.00    +0.000 A 
ATOM      5  S   UNL     1       5.096   5.959  17.853  0.00  0.00    +0.000 S 
ENDROOT
BRANCH   1   9
ATOM      6  C   UNL     1       1.665   3.507  19.215  0.00  0.00    +0.000 A 
ATOM      7  N   UNL     1       1.143   3.046  18.073  0.00  0.00    +0.000 NA
ATOM      8  O   UNL     1       2.096   3.414  17.121  0.00  0.00    +0.000 OA
ATOM      9  C   UNL     1       3.104   4.065  17.791  0.00  0.00    +0.000 A 
ATOM     10  N   UNL     1       2.881   4.123  19.089  0.00  0.00    +0.000 NA
BRANCH   6  12
ATOM     11  C   UNL     1       1.844   2.887  21.607  0.00  0.00    +0.000 C 
ATOM     12  C   UNL     1       0.947   3.438  20.508  0.00  0.00    +0.000 C 
ENDBRANCH   6  12
ENDBRANCH   1   9
BRANCH   3  13
ATOM     13  C   UNL     1       6.764   4.812  14.379  0.00  0.00    +0.000 C 
ATOM     14  C   UNL     1       6.307   3.823  13.337  0.00  0.00    +0.000 C 
ATOM     15  O   UNL     1       7.814   5.431  14.192  0.00  0.00    +0.000 OA
ENDBRANCH   3  13
TORSDOF 3
ENDMDL
MODEL 2
REMARK VINA RESULT:      -6.8      2.457      6.329
REMARK  Name = 
REMARK  5 active torsions:
REMARK  status: ('A' for Active; 'I' for Inactive)
REMARK    1  A    between atoms: C_1  and  C_2
REMARK    2  A    between atoms: C_2  and  C_3
REMARK    3  A    between atoms: C_6  and  C_7
REMARK    4  A    between atoms: C_9  and  C_10
REMARK    5  A    between atoms: C_10  and  C_11
REMARK                            x       y       z     vdW  Elec       q    Type
REMARK                         _______ _______ _______ _____ _____    ______ ____
ROOT
ATOM      1  C   UNL     1       5.207   4.569  17.026  0.00  0.00    +0.000 A 
ATOM      2  C   UNL     1       3.856   4.281  17.053  0.00  0.00    +0.000 A 
ATOM      3  C   UNL     1       3.298   4.263  18.381  0.00  0.00    +0.000 A 
ATOM      4  C   UNL     1       4.276   4.564  19.308  0.00  0.00    +0.000 A 
ATOM      5  S   UNL     1       5.815   4.821  18.601  0.00  0.00    +0.000 S 
ENDROOT
BRANCH   1   9
ATOM      6  C   UNL     1       6.816   4.466  13.926  0.00  0.00    +0.000 A 
ATOM      7  N   UNL     1       7.616   5.394  14.462  0.00  0.00    +0.000 NA
ATOM      8  O   UNL     1       7.105   5.541  15.753  0.00  0.00    +0.000 OA
ATOM      9  C   UNL     1       6.039   4.679  15.864  0.00  0.00    +0.000 A 
ATOM     10  N   UNL     1       5.845   3.984  14.761  0.00  0.00    +0.000 NA
BRANCH   6  12
ATOM     11  C   UNL     1       5.740   3.162  12.114  0.00  0.00    +0.000 C 
ATOM     12  C   UNL     1       6.912   4.050  12.508  0.00  0.00    +0.000 C 
ENDBRANCH   6  12
ENDBRANCH   1   9
BRANCH   3  13
ATOM     13  C   UNL     1       1.886   3.970  18.666  0.00  0.00    +0.000 C 
ATOM     14  C   UNL     1       1.319   4.148  20.052  0.00  0.00    +0.000 C 
ATOM     15  O   UNL     1       1.145   3.563  17.768  0.00  0.00    +0.000 OA
ENDBRANCH   3  13
TORSDOF 3
ENDMDL
MODEL 3
REMARK VINA RESULT:      -6.7      1.539      1.838
REMARK  Name = 
REMARK  5 active torsions:
REMARK  status: ('A' for Active; 'I' for Inactive)
REMARK    1  A    between atoms: C_1  and  C_2
REMARK    2  A    between atoms: C_2  and  C_3
REMARK    3  A    between atoms: C_6  and  C_7
REMARK    4  A    between atoms: C_9  and  C_10
REMARK    5  A    between atoms: C_10  and  C_11
REMARK                            x       y       z     vdW  Elec       q    Type
REMARK                         _______ _______ _______ _____ _____    ______ ____
ROOT
ATOM      1  C   UNL     1       4.864   4.528  17.674  0.00  0.00    +0.000 A 
ATOM      2  C   UNL     1       5.657   4.085  16.633  0.00  0.00    +0.000 A 
ATOM      3  C   UNL     1       5.865   5.074  15.606  0.00  0.00    +0.000 A 
ATOM      4  C   UNL     1       5.219   6.247  15.944  0.00  0.00    +0.000 A 
ATOM      5  S   UNL     1       4.365   6.142  17.425  0.00  0.00    +0.000 S 
ENDROOT
BRANCH   1   9
ATOM      6  C   UNL     1       3.411   3.015  20.469  0.00  0.00    +0.000 A 
ATOM      7  N   UNL     1       4.534   2.290  20.491  0.00  0.00    +0.000 NA
ATOM      8  O   UNL     1       5.260   2.801  19.414  0.00  0.00    +0.000 OA
ATOM      9  C   UNL     1       4.493   3.791  18.846  0.00  0.00    +0.000 A 
ATOM     10  N   UNL     1       3.353   3.964  19.484  0.00  0.00    +0.000 NA
BRANCH   6  12
ATOM     11  C   UNL     1       0.949   3.136  20.731  0.00  0.00    +0.000 C 
ATOM     12  C   UNL     1       2.273   2.757  21.381  0.00  0.00    +0.000 C 
ENDBRANCH   6  12
ENDBRANCH   1   9
BRANCH   3  13
ATOM     13  C   UNL     1       6.663   4.834  14.396  0.00  0.00    +0.000 C 
ATOM     14  C   UNL     1       6.219   3.834  13.358  0.00  0.00    +0.000 C 
ATOM     15  O   UNL     1       7.718   5.447  14.218  0.00  0.00    +0.000 OA
ENDBRANCH   3  13
TORSDOF 3
ENDMDL
MODEL 4
REMARK VINA RESULT:      -6.6      1.604      1.726
REMARK  Name = 
REMARK  5 active torsions:
REMARK  status: ('A' for Active; 'I' for Inactive)
REMARK    1  A    between atoms: C_1  and  C_2
REMARK    2  A    between atoms: C_2  and  C_3
REMARK    3  A    between atoms: C_6  and  C_7
REMARK    4  A    between atoms: C_9  and  C_10
REMARK    5  A    between atoms: C_10  and  C_11
REMARK                            x       y       z     vdW  Elec       q    Type
REMARK                         _______ _______ _______ _____ _____    ______ ____
ROOT
ATOM      1  C   UNL     1       5.532   4.488  18.033  0.00  0.00    +0.000 A 
ATOM      2  C   UNL     1       5.611   4.212  16.682  0.00  0.00    +0.000 A 
ATOM      3  C   UNL     1       6.635   4.961  15.999  0.00  0.00    +0.000 A 
ATOM      4  C   UNL     1       7.304   5.769  16.896  0.00  0.00    +0.000 A 
ATOM      5  S   UNL     1       6.693   5.652  18.493  0.00  0.00    +0.000 S 
ENDROOT
BRANCH   1   9
ATOM      6  C   UNL     1       2.922   3.422  20.097  0.00  0.00    +0.000 A 
ATOM      7  N   UNL     1       3.801   2.499  20.503  0.00  0.00    +0.000 NA
ATOM      8  O   UNL     1       4.944   2.808  19.765  0.00  0.00    +0.000 OA
ATOM      9  C   UNL     1       4.636   3.895  18.981  0.00  0.00    +0.000 A 
ATOM     10  N   UNL     1       3.401   4.314  19.176  0.00  0.00    +0.000 NA
BRANCH   6  12
ATOM     11  C   UNL     1       1.309   2.548  21.763  0.00  0.00    +0.000 C 
ATOM     12  C   UNL     1       1.508   3.431  20.540  0.00  0.00    +0.000 C 
ENDBRANCH   6  12
ENDBRANCH   1   9
BRANCH   3  13
ATOM     13  C   UNL     1       6.902   4.847  14.559  0.00  0.00    +0.000 C 
ATOM     14  C   UNL     1       6.114   3.895  13.695  0.00  0.00    +0.000 C 
ATOM     15  O   UNL     1       7.789   5.528  14.038  0.00  0.00    +0.000 OA
ENDBRANCH   3  13
TORSDOF 3
ENDMDL
MODEL 5
REMARK VINA RESULT:      -6.6      0.900      1.010
REMARK  Name = 
REMARK  5 active torsions:
REMARK  status: ('A' for Active; 'I' for Inactive)
REMARK    1  A    between atoms: C_1  and  C_2
REMARK    2  A    between atoms: C_2  and  C_3
REMARK    3  A    between atoms: C_6  and  C_7
REMARK    4  A    between atoms: C_9  and  C_10
REMARK    5  A    between atoms: C_10  and  C_11
REMARK                            x       y       z     vdW  Elec       q    Type
REMARK                         _______ _______ _______ _____ _____    ______ ____
ROOT
ATOM      1  C   UNL     1       4.771   4.193  17.000  0.00  0.00    +0.000 A 
ATOM      2  C   UNL     1       5.067   4.245  15.652  0.00  0.00    +0.000 A 
ATOM      3  C   UNL     1       6.444   4.563  15.376  0.00  0.00    +0.000 A 
ATOM      4  C   UNL     1       7.138   4.719  16.560  0.00  0.00    +0.000 A 
ATOM      5  S   UNL     1       6.152   4.525  17.947  0.00  0.00    +0.000 S 
ENDROOT
BRANCH   1   9
ATOM      6  C   UNL     1       1.906   3.720  18.945  0.00  0.00    +0.000 A 
ATOM      7  N   UNL     1       1.371   3.273  17.804  0.00  0.00    +0.000 NA
ATOM      8  O   UNL     1       2.427   3.378  16.898  0.00  0.00    +0.000 OA
ATOM      9  C   UNL     1       3.502   3.884  17.591  0.00  0.00    +0.000 A 
ATOM     10  N   UNL     1       3.222   4.088  18.863  0.00  0.00    +0.000 NA
BRANCH   6  12
ATOM     11  C   UNL     1       1.317   5.280  20.778  0.00  0.00    +0.000 C 
ATOM     12  C   UNL     1       1.117   3.892  20.186  0.00  0.00    +0.000 C 
ENDBRANCH   6  12
ENDBRANCH   1   9
BRANCH   3  13
ATOM     13  C   UNL     1       6.994   4.686  14.019  0.00  0.00    +0.000 C 
ATOM     14  C   UNL     1       6.505   3.804  12.899  0.00  0.00    +0.000 C 
ATOM     15  O   UNL     1       7.878   5.513  13.782  0.00  0.00    +0.000 OA
ENDBRANCH   3  13
TORSDOF 3
ENDMDL
MODEL 6
REMARK VINA RESULT:      -6.6      2.943      6.295
REMARK  Name = 
REMARK  5 active torsions:
REMARK  status: ('A' for Active; 'I' for Inactive)
REMARK    1  A    between atoms: C_1  and  C_2
REMARK    2  A    between atoms: C_2  and  C_3
REMARK    3  A    between atoms: C_6  and  C_7
REMARK    4  A    between atoms: C_9  and  C_10
REMARK    5  A    between atoms: C_10  and  C_11
REMARK                            x       y       z     vdW  Elec       q    Type
REMARK                         _______ _______ _______ _____ _____    ______ ____
ROOT
ATOM      1  C   UNL     1       6.148   4.795  16.829  0.00  0.00    +0.000 A 
ATOM      2  C   UNL     1       4.879   4.641  17.351  0.00  0.00    +0.000 A 
ATOM      3  C   UNL     1       4.813   4.841  18.776  0.00  0.00    +0.000 A 
ATOM      4  C   UNL     1       6.063   5.164  19.265  0.00  0.00    +0.000 A 
ATOM      5  S   UNL     1       7.274   5.186  18.053  0.00  0.00    +0.000 S 
ENDROOT
BRANCH   1   9
ATOM      6  C   UNL     1       6.640   4.083  13.444  0.00  0.00    +0.000 A 
ATOM      7  N   UNL     1       7.474   5.128  13.485  0.00  0.00    +0.000 NA
ATOM      8  O   UNL     1       7.408   5.531  14.820  0.00  0.00    +0.000 OA
ATOM      9  C   UNL     1       6.532   4.680  15.454  0.00  0.00    +0.000 A 
ATOM     10  N   UNL     1       6.055   3.761  14.639  0.00  0.00    +0.000 NA
BRANCH   6  12
ATOM     11  C   UNL     1       4.799   3.374  11.944  0.00  0.00    +0.000 C 
ATOM     12  C   UNL     1       6.301   3.377  12.187  0.00  0.00    +0.000 C 
ENDBRANCH   6  12
ENDBRANCH   1   9
BRANCH   3  13
ATOM     13  C   UNL     1       3.575   4.720  19.558  0.00  0.00    +0.000 C 
ATOM     14  C   UNL     1       2.645   5.894  19.730  0.00  0.00    +0.000 C 
ATOM     15  O   UNL     1       3.285   3.648  20.096  0.00  0.00    +0.000 OA
ENDBRANCH   3  13
TORSDOF 3
ENDMDL
MODEL 7
REMARK VINA RESULT:      -6.5      1.054      1.140
REMARK  Name = 
REMARK  5 active torsions:
REMARK  status: ('A' for Active; 'I' for Inactive)
REMARK    1  A    between atoms: C_1  and  C_2
REMARK    2  A    between atoms: C_2  and  C_3
REMARK    3  A    between atoms: C_6  and  C_7
REMARK    4  A    between atoms: C_9  and  C_10
REMARK    5  A    between atoms: C_10  and  C_11
REMARK                            x       y       z     vdW  Elec       q    Type
REMARK                         _______ _______ _______ _____ _____    ______ ____
ROOT
ATOM      1  C   UNL     1       4.488   4.340  17.208  0.00  0.00    +0.000 A 
ATOM      2  C   UNL     1       5.290   3.917  16.165  0.00  0.00    +0.000 A 
ATOM      3  C   UNL     1       5.837   4.996  15.384  0.00  0.00    +0.000 A 
ATOM      4  C   UNL     1       5.425   6.208  15.902  0.00  0.00    +0.000 A 
ATOM      5  S   UNL     1       4.389   6.044  17.256  0.00  0.00    +0.000 S 
ENDROOT
BRANCH   1   9
ATOM      6  C   UNL     1       3.070   2.735  19.968  0.00  0.00    +0.000 A 
ATOM      7  N   UNL     1       2.487   1.960  19.047  0.00  0.00    +0.000 NA
ATOM      8  O   UNL     1       2.982   2.472  17.847  0.00  0.00    +0.000 OA
ATOM      9  C   UNL     1       3.820   3.514  18.169  0.00  0.00    +0.000 A 
ATOM     10  N   UNL     1       3.914   3.691  19.472  0.00  0.00    +0.000 NA
BRANCH   6  12
ATOM     11  C   UNL     1       1.264   2.721  21.666  0.00  0.00    +0.000 C 
ATOM     12  C   UNL     1       2.763   2.630  21.413  0.00  0.00    +0.000 C 
ENDBRANCH   6  12
ENDBRANCH   1   9
BRANCH   3  13
ATOM     13  C   UNL     1       6.709   4.796  14.219  0.00  0.00    +0.000 C 
ATOM     14  C   UNL     1       6.344   3.815  13.133  0.00  0.00    +0.000 C 
ATOM     15  O   UNL     1       7.764   5.427  14.119  0.00  0.00    +0.000 OA
ENDBRANCH   3  13
TORSDOF 3
ENDMDL
MODEL 8
REMARK VINA RESULT:      -6.5      2.983      6.290
REMARK  Name = 
REMARK  5 active torsions:
REMARK  status: ('A' for Active; 'I' for Inactive)
REMARK    1  A    between atoms: C_1  and  C_2
REMARK    2  A    between atoms: C_2  and  C_3
REMARK    3  A    between atoms: C_6  and  C_7
REMARK    4  A    between atoms: C_9  and  C_10
REMARK    5  A    between atoms: C_10  and  C_11
REMARK                            x       y       z     vdW  Elec       q    Type
REMARK                         _______ _______ _______ _____ _____    ______ ____
ROOT
ATOM      1  C   UNL     1       6.278   4.777  16.842  0.00  0.00    +0.000 A 
ATOM      2  C   UNL     1       5.172   4.199  17.435  0.00  0.00    +0.000 A 
ATOM      3  C   UNL     1       5.059   4.482  18.843  0.00  0.00    +0.000 A 
ATOM      4  C   UNL     1       6.100   5.294  19.246  0.00  0.00    +0.000 A 
ATOM      5  S   UNL     1       7.190   5.669  17.978  0.00  0.00    +0.000 S 
ENDROOT
BRANCH   1   9
ATOM      6  C   UNL     1       6.748   4.154  13.436  0.00  0.00    +0.000 A 
ATOM      7  N   UNL     1       7.583   5.197  13.500  0.00  0.00    +0.000 NA
ATOM      8  O   UNL     1       7.526   5.564  14.845  0.00  0.00    +0.000 OA
ATOM      9  C   UNL     1       6.653   4.698  15.462  0.00  0.00    +0.000 A 
ATOM     10  N   UNL     1       6.169   3.802  14.626  0.00  0.00    +0.000 NA
BRANCH   6  12
ATOM     11  C   UNL     1       4.893   3.350  12.003  0.00  0.00    +0.000 C 
ATOM     12  C   UNL     1       6.401   3.483  12.163  0.00  0.00    +0.000 C 
ENDBRANCH   6  12
ENDBRANCH   1   9
BRANCH   3  13
ATOM     13  C   UNL     1       3.974   3.969  19.691  0.00  0.00    +0.000 C 
ATOM     14  C   UNL     1       3.853   2.496  19.993  0.00  0.00    +0.000 C 
ATOM     15  O   UNL     1       3.137   4.743  20.161  0.00  0.00    +0.000 OA
ENDBRANCH   3  13
TORSDOF 3
ENDMDL
MODEL 9
REMARK VINA RESULT:      -6.4      3.217      6.357
REMARK  Name = 
REMARK  5 active torsions:
REMARK  status: ('A' for Active; 'I' for Inactive)
REMARK    1  A    between atoms: C_1  and  C_2
REMARK    2  A    between atoms: C_2  and  C_3
REMARK    3  A    between atoms: C_6  and  C_7
REMARK    4  A    between atoms: C_9  and  C_10
REMARK    5  A    between atoms: C_10  and  C_11
REMARK                            x       y       z     vdW  Elec       q    Type
REMARK                         _______ _______ _______ _____ _____    ______ ____
ROOT
ATOM      1  C   UNL     1       4.677   5.334  16.680  0.00  0.00    +0.000 A 
ATOM      2  C   UNL     1       4.142   6.544  17.077  0.00  0.00    +0.000 A 
ATOM      3  C   UNL     1       3.167   6.425  18.131  0.00  0.00    +0.000 A 
ATOM      4  C   UNL     1       3.029   5.102  18.498  0.00  0.00    +0.000 A 
ATOM      5  S   UNL     1       4.012   4.042  17.578  0.00  0.00    +0.000 S 
ENDROOT
BRANCH   1   9
ATOM      6  C   UNL     1       6.667   4.515  13.927  0.00  0.00    +0.000 A 
ATOM      7  N   UNL     1       7.565   5.317  14.509  0.00  0.00    +0.000 NA
ATOM      8  O   UNL     1       6.913   5.726  15.674  0.00  0.00    +0.000 OA
ATOM      9  C   UNL     1       5.677   5.124  15.675  0.00  0.00    +0.000 A 
ATOM     10  N   UNL     1       5.499   4.352  14.621  0.00  0.00    +0.000 NA
BRANCH   6  12
ATOM     11  C   UNL     1       5.624   3.202  12.102  0.00  0.00    +0.000 C 
ATOM     12  C   UNL     1       6.878   3.914  12.590  0.00  0.00    +0.000 C 
ENDBRANCH   6  12
ENDBRANCH   1   9
BRANCH   3  13
ATOM     13  C   UNL     1       2.453   7.571  18.710  0.00  0.00    +0.000 C 
ATOM     14  C   UNL     1       2.030   8.738  17.854  0.00  0.00    +0.000 C 
ATOM     15  O   UNL     1       2.197   7.595  19.917  0.00  0.00    +0.000 OA
ENDBRANCH   3  13
TORSDOF 3
ENDMDL
