MODEL 1
REMARK VINA RESULT:      -6.6      0.000      0.000
REMARK  Name = 
REMARK  7 active torsions:
REMARK  status: ('A' for Active; 'I' for Inactive)
REMARK    1  A    between atoms: C_1  and  C_2
REMARK    2  A    between atoms: C_6  and  N_7
REMARK    3  A    between atoms: C_8  and  O_10
REMARK    4  A    between atoms: O_10  and  C_11
REMARK    5  A    between atoms: C_11  and  C_12
REMARK    6  A    between atoms: C_11  and  C_13
REMARK    7  A    between atoms: C_11  and  C_14
REMARK                            x       y       z     vdW  Elec       q    Type
REMARK                         _______ _______ _______ _____ _____    ______ ____
ROOT
ATOM      1  N   UNL     1       5.060   3.739  17.991  0.00  0.00    +0.000 N 
ATOM      2  C   UNL     1       4.261   4.146  19.012  0.00  0.00    +0.000 C 
ATOM      3  O   UNL     1       4.401   5.229  19.567  0.00  0.00    +0.000 OA
ATOM      4  H   UNL     1       4.859   2.828  17.591  0.00  0.00    +0.000 HD
ENDROOT
BRANCH   1  10
ATOM      5  C   UNL     1       6.815   4.981  14.864  0.00  0.00    +0.000 C 
ATOM      6  C   UNL     1       6.755   4.136  16.121  0.00  0.00    +0.000 C 
ATOM      7  O   UNL     1       8.009   4.222  16.857  0.00  0.00    +0.000 OA
ATOM      8  C   UNL     1       7.412   4.780  17.940  0.00  0.00    +0.000 C 
ATOM      9  O   UNL     1       7.917   5.130  18.982  0.00  0.00    +0.000 OA
ATOM     10  C   UNL     1       5.987   4.700  17.340  0.00  0.00    +0.000 C 
ENDBRANCH   1  10
BRANCH   2  11
ATOM     11  O   UNL     1       3.298   3.231  19.267  0.00  0.00    +0.000 OA
BRANCH  11  12
ATOM     12  C   UNL     1       1.909   3.597  19.046  0.00  0.00    +0.000 C 
ATOM     13  C   UNL     1       1.747   4.501  17.815  0.00  0.00    +0.000 C 
ATOM     14  C   UNL     1       1.158   2.285  18.764  0.00  0.00    +0.000 C 
ATOM     15  C   UNL     1       1.317   4.227  20.314  0.00  0.00    +0.000 C 
ENDBRANCH  11  12
ENDBRANCH   2  11
TORSDOF 3
ENDMDL
MODEL 2
REMARK VINA RESULT:      -6.1      0.949      1.074
REMARK  Name = 
REMARK  7 active torsions:
REMARK  status: ('A' for Active; 'I' for Inactive)
REMARK    1  A    between atoms: C_1  and  C_2
REMARK    2  A    between atoms: C_6  and  N_7
REMARK    3  A    between atoms: C_8  and  O_10
REMARK    4  A    between atoms: O_10  and  C_11
REMARK    5  A    between atoms: C_11  and  C_12
REMARK    6  A    between atoms: C_11  and  C_13
REMARK    7  A    between atoms: C_11  and  C_14
REMARK                            x       y       z     vdW  Elec       q    Type
REMARK                         _______ _______ _______ _____ _____    ______ ____
ROOT
ATOM      1  N   UNL     1       5.012   3.950  18.251  0.00  0.00    +0.000 N 
ATOM      2  C   UNL     1       4.132   4.318  19.220  0.00  0.00    +0.000 C 
ATOM      3  O   UNL     1       4.099   5.451  19.684  0.00  0.00    +0.000 OA
ATOM      4  H   UNL     1       4.956   2.990  17.926  0.00  0.00    +0.000 HD
ENDROOT
BRANCH   1  10
ATOM      5  C   UNL     1       5.298   6.522  15.476  0.00  0.00    +0.000 C 
ATOM      6  C   UNL     1       5.486   5.125  16.033  0.00  0.00    +0.000 C 
ATOM      7  O   UNL     1       6.803   4.608  15.687  0.00  0.00    +0.000 OA
ATOM      8  C   UNL     1       7.180   4.515  16.987  0.00  0.00    +0.000 C 
ATOM      9  O   UNL     1       8.235   4.132  17.439  0.00  0.00    +0.000 OA
ATOM     10  C   UNL     1       5.811   4.980  17.539  0.00  0.00    +0.000 C 
ENDBRANCH   1  10
BRANCH   2  11
ATOM     11  O   UNL     1       3.303   3.296  19.534  0.00  0.00    +0.000 OA
BRANCH  11  12
ATOM     12  C   UNL     1       1.894   3.413  19.200  0.00  0.00    +0.000 C 
ATOM     13  C   UNL     1       1.678   4.217  17.910  0.00  0.00    +0.000 C 
ATOM     14  C   UNL     1       1.392   1.981  18.948  0.00  0.00    +0.000 C 
ATOM     15  C   UNL     1       1.113   3.994  20.387  0.00  0.00    +0.000 C 
ENDBRANCH  11  12
ENDBRANCH   2  11
TORSDOF 3
ENDMDL
MODEL 3
REMARK VINA RESULT:      -6.0      1.329      1.592
REMARK  Name = 
REMARK  7 active torsions:
REMARK  status: ('A' for Active; 'I' for Inactive)
REMARK    1  A    between atoms: C_1  and  C_2
REMARK    2  A    between atoms: C_6  and  N_7
REMARK    3  A    between atoms: C_8  and  O_10
REMARK    4  A    between atoms: O_10  and  C_11
REMARK    5  A    between atoms: C_11  and  C_12
REMARK    6  A    between atoms: C_11  and  C_13
REMARK    7  A    between atoms: C_11  and  C_14
REMARK                            x       y       z     vdW  Elec       q    Type
REMARK                         _______ _______ _______ _____ _____    ______ ____
ROOT
ATOM      1  N   UNL     1       4.881   4.429  19.263  0.00  0.00    +0.000 N 
ATOM      2  C   UNL     1       3.638   4.348  18.719  0.00  0.00    +0.000 C 
ATOM      3  O   UNL     1       3.260   5.096  17.826  0.00  0.00    +0.000 OA
ATOM      4  H   UNL     1       5.103   3.760  19.993  0.00  0.00    +0.000 HD
ENDROOT
BRANCH   1  10
ATOM      5  C   UNL     1       6.844   5.418  16.170  0.00  0.00    +0.000 C 
ATOM      6  C   UNL     1       6.660   4.611  17.439  0.00  0.00    +0.000 C 
ATOM      7  O   UNL     1       7.895   4.581  18.211  0.00  0.00    +0.000 OA
ATOM      8  C   UNL     1       7.329   5.220  19.266  0.00  0.00    +0.000 C 
ATOM      9  O   UNL     1       7.839   5.536  20.316  0.00  0.00    +0.000 OA
ATOM     10  C   UNL     1       5.921   5.276  18.625  0.00  0.00    +0.000 C 
ENDBRANCH   1  10
BRANCH   2  11
ATOM     11  O   UNL     1       2.940   3.322  19.257  0.00  0.00    +0.000 OA
BRANCH  11  12
ATOM     12  C   UNL     1       1.993   3.604  20.323  0.00  0.00    +0.000 C 
ATOM     13  C   UNL     1       1.887   5.110  20.607  0.00  0.00    +0.000 C 
ATOM     14  C   UNL     1       0.622   3.126  19.817  0.00  0.00    +0.000 C 
ATOM     15  C   UNL     1       2.350   2.797  21.578  0.00  0.00    +0.000 C 
ENDBRANCH  11  12
ENDBRANCH   2  11
TORSDOF 3
ENDMDL
MODEL 4
REMARK VINA RESULT:      -6.0      1.779      2.238
REMARK  Name = 
REMARK  7 active torsions:
REMARK  status: ('A' for Active; 'I' for Inactive)
REMARK    1  A    between atoms: C_1  and  C_2
REMARK    2  A    between atoms: C_6  and  N_7
REMARK    3  A    between atoms: C_8  and  O_10
REMARK    4  A    between atoms: O_10  and  C_11
REMARK    5  A    between atoms: C_11  and  C_12
REMARK    6  A    between atoms: C_11  and  C_13
REMARK    7  A    between atoms: C_11  and  C_14
REMARK                            x       y       z     vdW  Elec       q    Type
REMARK                         _______ _______ _______ _____ _____    ______ ____
ROOT
ATOM      1  N   UNL     1       5.215   5.638  18.288  0.00  0.00    +0.000 N 
ATOM      2  C   UNL     1       4.856   4.555  19.028  0.00  0.00    +0.000 C 
ATOM      3  O   UNL     1       5.673   3.747  19.451  0.00  0.00    +0.000 OA
ATOM      4  H   UNL     1       4.466   6.254  17.990  0.00  0.00    +0.000 HD
ENDROOT
BRANCH   1  10
ATOM      5  C   UNL     1       7.852   8.319  17.780  0.00  0.00    +0.000 C 
ATOM      6  C   UNL     1       6.916   7.245  17.263  0.00  0.00    +0.000 C 
ATOM      7  O   UNL     1       7.597   6.394  16.296  0.00  0.00    +0.000 OA
ATOM      8  C   UNL     1       7.452   5.287  17.067  0.00  0.00    +0.000 C 
ATOM      9  O   UNL     1       7.822   4.158  16.841  0.00  0.00    +0.000 OA
ATOM     10  C   UNL     1       6.645   6.018  18.168  0.00  0.00    +0.000 C 
ENDBRANCH   1  10
BRANCH   2  11
ATOM     11  O   UNL     1       3.523   4.546  19.258  0.00  0.00    +0.000 OA
BRANCH  11  12
ATOM     12  C   UNL     1       2.700   3.578  18.554  0.00  0.00    +0.000 C 
ATOM     13  C   UNL     1       1.487   4.240  17.883  0.00  0.00    +0.000 C 
ATOM     14  C   UNL     1       3.584   2.988  17.442  0.00  0.00    +0.000 C 
ATOM     15  C   UNL     1       2.293   2.439  19.499  0.00  0.00    +0.000 C 
ENDBRANCH  11  12
ENDBRANCH   2  11
TORSDOF 3
ENDMDL
MODEL 5
REMARK VINA RESULT:      -5.9      1.167      1.475
REMARK  Name = 
REMARK  7 active torsions:
REMARK  status: ('A' for Active; 'I' for Inactive)
REMARK    1  A    between atoms: C_1  and  C_2
REMARK    2  A    between atoms: C_6  and  N_7
REMARK    3  A    between atoms: C_8  and  O_10
REMARK    4  A    between atoms: O_10  and  C_11
REMARK    5  A    between atoms: C_11  and  C_12
REMARK    6  A    between atoms: C_11  and  C_13
REMARK    7  A    between atoms: C_11  and  C_14
REMARK                            x       y       z     vdW  Elec       q    Type
REMARK                         _______ _______ _______ _____ _____    ______ ____
ROOT
ATOM      1  N   UNL     1       5.043   4.479  18.629  0.00  0.00    +0.000 N 
ATOM      2  C   UNL     1       3.758   4.057  18.488  0.00  0.00    +0.000 C 
ATOM      3  O   UNL     1       3.064   4.367  17.528  0.00  0.00    +0.000 OA
ATOM      4  H   UNL     1       5.538   4.162  19.456  0.00  0.00    +0.000 HD
ENDROOT
BRANCH   1  10
ATOM      5  C   UNL     1       6.143   4.432  14.998  0.00  0.00    +0.000 C 
ATOM      6  C   UNL     1       6.375   4.166  16.472  0.00  0.00    +0.000 C 
ATOM      7  O   UNL     1       7.707   4.602  16.868  0.00  0.00    +0.000 OA
ATOM      8  C   UNL     1       7.219   5.522  17.739  0.00  0.00    +0.000 C 
ATOM      9  O   UNL     1       7.832   6.287  18.448  0.00  0.00    +0.000 OA
ATOM     10  C   UNL     1       5.739   5.138  17.495  0.00  0.00    +0.000 C 
ENDBRANCH   1  10
BRANCH   2  11
ATOM     11  O   UNL     1       3.405   3.234  19.503  0.00  0.00    +0.000 OA
BRANCH  11  12
ATOM     12  C   UNL     1       2.209   3.542  20.268  0.00  0.00    +0.000 C 
ATOM     13  C   UNL     1       0.937   3.058  19.557  0.00  0.00    +0.000 C 
ATOM     14  C   UNL     1       2.331   2.763  21.589  0.00  0.00    +0.000 C 
ATOM     15  C   UNL     1       2.159   5.040  20.596  0.00  0.00    +0.000 C 
ENDBRANCH  11  12
ENDBRANCH   2  11
TORSDOF 3
ENDMDL
MODEL 6
REMARK VINA RESULT:      -5.9      1.543      2.250
REMARK  Name = 
REMARK  7 active torsions:
REMARK  status: ('A' for Active; 'I' for Inactive)
REMARK    1  A    between atoms: C_1  and  C_2
REMARK    2  A    between atoms: C_6  and  N_7
REMARK    3  A    between atoms: C_8  and  O_10
REMARK    4  A    between atoms: O_10  and  C_11
REMARK    5  A    between atoms: C_11  and  C_12
REMARK    6  A    between atoms: C_11  and  C_13
REMARK    7  A    between atoms: C_11  and  C_14
REMARK                            x       y       z     vdW  Elec       q    Type
REMARK                         _______ _______ _______ _____ _____    ______ ____
ROOT
ATOM      1  N   UNL     1       4.712   4.960  18.085  0.00  0.00    +0.000 N 
ATOM      2  C   UNL     1       4.447   4.078  19.086  0.00  0.00    +0.000 C 
ATOM      3  O   UNL     1       5.297   3.323  19.541  0.00  0.00    +0.000 OA
ATOM      4  H   UNL     1       3.942   5.548  17.781  0.00  0.00    +0.000 HD
ENDROOT
BRANCH   1  10
ATOM      5  C   UNL     1       7.610   7.374  17.670  0.00  0.00    +0.000 C 
ATOM      6  C   UNL     1       6.385   6.648  17.149  0.00  0.00    +0.000 C 
ATOM      7  O   UNL     1       6.627   6.129  15.810  0.00  0.00    +0.000 OA
ATOM      8  C   UNL     1       6.465   4.842  16.207  0.00  0.00    +0.000 C 
ATOM      9  O   UNL     1       6.542   3.833  15.543  0.00  0.00    +0.000 OA
ATOM     10  C   UNL     1       6.114   5.215  17.668  0.00  0.00    +0.000 C 
ENDBRANCH   1  10
BRANCH   2  11
ATOM     11  O   UNL     1       3.170   4.202  19.514  0.00  0.00    +0.000 OA
BRANCH  11  12
ATOM     12  C   UNL     1       2.129   3.446  18.838  0.00  0.00    +0.000 C 
ATOM     13  C   UNL     1       2.652   2.101  18.312  0.00  0.00    +0.000 C 
ATOM     14  C   UNL     1       1.056   3.148  19.898  0.00  0.00    +0.000 C 
ATOM     15  C   UNL     1       1.490   4.295  17.731  0.00  0.00    +0.000 C 
ENDBRANCH  11  12
ENDBRANCH   2  11
TORSDOF 3
ENDMDL
MODEL 7
REMARK VINA RESULT:      -5.9      1.552      2.252
REMARK  Name = 
REMARK  7 active torsions:
REMARK  status: ('A' for Active; 'I' for Inactive)
REMARK    1  A    between atoms: C_1  and  C_2
REMARK    2  A    between atoms: C_6  and  N_7
REMARK    3  A    between atoms: C_8  and  O_10
REMARK    4  A    between atoms: O_10  and  C_11
REMARK    5  A    between atoms: C_11  and  C_12
REMARK    6  A    between atoms: C_11  and  C_13
REMARK    7  A    between atoms: C_11  and  C_14
REMARK                            x       y       z     vdW  Elec       q    Type
REMARK                         _______ _______ _______ _____ _____    ______ ____
ROOT
ATOM      1  N   UNL     1       5.120   3.820  17.287  0.00  0.00    +0.000 N 
ATOM      2  C   UNL     1       4.814   3.774  18.611  0.00  0.00    +0.000 C 
ATOM      3  O   UNL     1       5.608   4.107  19.482  0.00  0.00    +0.000 OA
ATOM      4  H   UNL     1       4.392   3.531  16.642  0.00  0.00    +0.000 HD
ENDROOT
BRANCH   1  10
ATOM      5  C   UNL     1       7.389   6.861  17.384  0.00  0.00    +0.000 C 
ATOM      6  C   UNL     1       6.252   6.055  16.788  0.00  0.00    +0.000 C 
ATOM      7  O   UNL     1       6.347   6.033  15.334  0.00  0.00    +0.000 OA
ATOM      8  C   UNL     1       6.505   4.686  15.300  0.00  0.00    +0.000 C 
ATOM      9  O   UNL     1       6.653   3.969  14.336  0.00  0.00    +0.000 OA
ATOM     10  C   UNL     1       6.352   4.512  16.830  0.00  0.00    +0.000 C 
ENDBRANCH   1  10
BRANCH   2  11
ATOM     11  O   UNL     1       3.536   3.374  18.799  0.00  0.00    +0.000 OA
BRANCH  11  12
ATOM     12  C   UNL     1       2.507   4.384  18.980  0.00  0.00    +0.000 C 
ATOM     13  C   UNL     1       3.096   5.803  18.984  0.00  0.00    +0.000 C 
ATOM     14  C   UNL     1       1.573   4.270  17.763  0.00  0.00    +0.000 C 
ATOM     15  C   UNL     1       1.689   4.089  20.243  0.00  0.00    +0.000 C 
ENDBRANCH  11  12
ENDBRANCH   2  11
TORSDOF 3
ENDMDL
MODEL 8
REMARK VINA RESULT:      -5.9      1.323      1.384
REMARK  Name = 
REMARK  7 active torsions:
REMARK  status: ('A' for Active; 'I' for Inactive)
REMARK    1  A    between atoms: C_1  and  C_2
REMARK    2  A    between atoms: C_6  and  N_7
REMARK    3  A    between atoms: C_8  and  O_10
REMARK    4  A    between atoms: O_10  and  C_11
REMARK    5  A    between atoms: C_11  and  C_12
REMARK    6  A    between atoms: C_11  and  C_13
REMARK    7  A    between atoms: C_11  and  C_14
REMARK                            x       y       z     vdW  Elec       q    Type
REMARK                         _______ _______ _______ _____ _____    ______ ____
ROOT
ATOM      1  N   UNL     1       5.104   4.117  17.339  0.00  0.00    +0.000 N 
ATOM      2  C   UNL     1       4.313   4.789  18.217  0.00  0.00    +0.000 C 
ATOM      3  O   UNL     1       4.112   5.993  18.133  0.00  0.00    +0.000 OA
ATOM      4  H   UNL     1       5.204   3.117  17.488  0.00  0.00    +0.000 HD
ENDROOT
BRANCH   1  10
ATOM      5  C   UNL     1       5.953   3.900  13.647  0.00  0.00    +0.000 C 
ATOM      6  C   UNL     1       6.332   3.857  15.113  0.00  0.00    +0.000 C 
ATOM      7  O   UNL     1       7.556   4.612  15.349  0.00  0.00    +0.000 OA
ATOM      8  C   UNL     1       6.932   5.496  16.167  0.00  0.00    +0.000 C 
ATOM      9  O   UNL     1       7.403   6.450  16.744  0.00  0.00    +0.000 OA
ATOM     10  C   UNL     1       5.562   4.778  16.091  0.00  0.00    +0.000 C 
ENDBRANCH   1  10
BRANCH   2  11
ATOM     11  O   UNL     1       3.768   3.943  19.121  0.00  0.00    +0.000 OA
BRANCH  11  12
ATOM     12  C   UNL     1       2.358   3.611  19.005  0.00  0.00    +0.000 C 
ATOM     13  C   UNL     1       1.747   4.164  17.709  0.00  0.00    +0.000 C 
ATOM     14  C   UNL     1       2.282   2.076  18.940  0.00  0.00    +0.000 C 
ATOM     15  C   UNL     1       1.598   4.077  20.254  0.00  0.00    +0.000 C 
ENDBRANCH  11  12
ENDBRANCH   2  11
TORSDOF 3
ENDMDL
MODEL 9
REMARK VINA RESULT:      -5.9      1.836      2.269
REMARK  Name = 
REMARK  7 active torsions:
REMARK  status: ('A' for Active; 'I' for Inactive)
REMARK    1  A    between atoms: C_1  and  C_2
REMARK    2  A    between atoms: C_6  and  N_7
REMARK    3  A    between atoms: C_8  and  O_10
REMARK    4  A    between atoms: O_10  and  C_11
REMARK    5  A    between atoms: C_11  and  C_12
REMARK    6  A    between atoms: C_11  and  C_13
REMARK    7  A    between atoms: C_11  and  C_14
REMARK                            x       y       z     vdW  Elec       q    Type
REMARK                         _______ _______ _______ _____ _____    ______ ____
ROOT
ATOM      1  N   UNL     1       5.188   5.652  18.137  0.00  0.00    +0.000 N 
ATOM      2  C   UNL     1       4.793   4.631  18.943  0.00  0.00    +0.000 C 
ATOM      3  O   UNL     1       5.588   3.878  19.490  0.00  0.00    +0.000 OA
ATOM      4  H   UNL     1       4.453   6.226  17.736  0.00  0.00    +0.000 HD
ENDROOT
BRANCH   1  10
ATOM      5  C   UNL     1       7.817   8.361  17.752  0.00  0.00    +0.000 C 
ATOM      6  C   UNL     1       6.917   7.278  17.192  0.00  0.00    +0.000 C 
ATOM      7  O   UNL     1       7.650   6.436  16.256  0.00  0.00    +0.000 OA
ATOM      8  C   UNL     1       7.482   5.327  17.019  0.00  0.00    +0.000 C 
ATOM      9  O   UNL     1       7.874   4.201  16.809  0.00  0.00    +0.000 OA
ATOM     10  C   UNL     1       6.618   6.048  18.083  0.00  0.00    +0.000 C 
ENDBRANCH   1  10
BRANCH   2  11
ATOM     11  O   UNL     1       3.447   4.617  19.081  0.00  0.00    +0.000 OA
BRANCH  11  12
ATOM     12  C   UNL     1       2.732   3.377  18.828  0.00  0.00    +0.000 C 
ATOM     13  C   UNL     1       3.443   2.514  17.775  0.00  0.00    +0.000 C 
ATOM     14  C   UNL     1       2.739   2.598  20.154  0.00  0.00    +0.000 C 
ATOM     15  C   UNL     1       1.274   3.672  18.452  0.00  0.00    +0.000 C 
ENDBRANCH  11  12
ENDBRANCH   2  11
TORSDOF 3
ENDMDL
