MODEL 1
REMARK VINA RESULT:      -6.9      0.000      0.000
REMARK  Name = 
REMARK  5 active torsions:
REMARK  status: ('A' for Active; 'I' for Inactive)
REMARK    1  A    between atoms: C_1  and  N_2
REMARK    2  A    between atoms: N_2  and  C_3
REMARK    3  A    between atoms: N_2  and  C_10
REMARK    4  A    between atoms: C_3  and  C_4
REMARK    5  A    between atoms: C_10  and  C_11
REMARK                            x       y       z     vdW  Elec       q    Type
REMARK                         _______ _______ _______ _____ _____    ______ ____
ROOT
ATOM      1  C   UNL     1       4.319   4.313  19.035  0.00  0.00    +0.000 C 
ENDROOT
BRANCH   1   2
ATOM      2  C   UNL     1       5.515   4.864  18.348  0.00  0.00    +0.000 A 
ATOM      3  C   UNL     1       6.596   5.544  18.873  0.00  0.00    +0.000 A 
ATOM      4  N   UNL     1       7.508   5.860  17.907  0.00  0.00    +0.000 NA
ATOM      5  C   UNL     1       7.023   5.380  16.780  0.00  0.00    +0.000 A 
ATOM      6  N   UNL     1       7.573   5.434  15.531  0.00  0.00    +0.000 NA
ATOM      7  C   UNL     1       6.891   4.868  14.584  0.00  0.00    +0.000 A 
ATOM      8  C   UNL     1       5.583   4.170  14.728  0.00  0.00    +0.000 A 
ATOM      9  C   UNL     1       5.085   4.146  15.971  0.00  0.00    +0.000 A 
ATOM     10  N   UNL     1       5.796   4.748  17.004  0.00  0.00    +0.000 N 
ENDBRANCH   1   2
BRANCH   1  12
ATOM     11  C   UNL     1       2.013   4.038  18.498  0.00  0.00    +0.000 C 
ATOM     12  N   UNL     1       3.064   5.039  18.753  0.00  0.00    +0.000 NA
BRANCH  12  13
ATOM     13  C   UNL     1       2.681   5.919  19.880  0.00  0.00    +0.000 C 
BRANCH  13  14
ATOM     14  C   UNL     1       2.205   7.290  19.465  0.00  0.00    +0.000 A 
ATOM     15  C   UNL     1       2.376   7.757  18.158  0.00  0.00    +0.000 A 
ATOM     16  C   UNL     1       1.897   9.016  17.805  0.00  0.00    +0.000 A 
ATOM     17  C   UNL     1       1.258   9.771  18.773  0.00  0.00    +0.000 A 
ATOM     18  N   UNL     1       1.074   9.359  20.045  0.00  0.00    +0.000 NA
ATOM     19  C   UNL     1       1.547   8.130  20.360  0.00  0.00    +0.000 A 
ENDBRANCH  13  14
ENDBRANCH  12  13
ENDBRANCH   1  12
TORSDOF 4
ENDMDL
MODEL 2
REMARK VINA RESULT:      -6.6      1.130      1.634
REMARK  Name = 
REMARK  5 active torsions:
REMARK  status: ('A' for Active; 'I' for Inactive)
REMARK    1  A    between atoms: C_1  and  N_2
REMARK    2  A    between atoms: N_2  and  C_3
REMARK    3  A    between atoms: N_2  and  C_10
REMARK    4  A    between atoms: C_3  and  C_4
REMARK    5  A    between atoms: C_10  and  C_11
REMARK                            x       y       z     vdW  Elec       q    Type
REMARK                         _______ _______ _______ _____ _____    ______ ____
ROOT
ATOM      1  C   UNL     1       4.508   3.269  18.893  0.00  0.00    +0.000 C 
ENDROOT
BRANCH   1   2
ATOM      2  C   UNL     1       5.470   4.271  18.367  0.00  0.00    +0.000 A 
ATOM      3  C   UNL     1       6.167   5.258  19.035  0.00  0.00    +0.000 A 
ATOM      4  N   UNL     1       6.979   5.959  18.191  0.00  0.00    +0.000 NA
ATOM      5  C   UNL     1       6.813   5.422  16.999  0.00  0.00    +0.000 A 
ATOM      6  N   UNL     1       7.414   5.769  15.823  0.00  0.00    +0.000 NA
ATOM      7  C   UNL     1       7.082   5.066  14.785  0.00  0.00    +0.000 A 
ATOM      8  C   UNL     1       6.121   3.929  14.754  0.00  0.00    +0.000 A 
ATOM      9  C   UNL     1       5.557   3.629  15.931  0.00  0.00    +0.000 A 
ATOM     10  N   UNL     1       5.895   4.370  17.059  0.00  0.00    +0.000 N 
ENDBRANCH   1   2
BRANCH   1  12
ATOM     11  C   UNL     1       2.471   2.254  18.188  0.00  0.00    +0.000 C 
ATOM     12  N   UNL     1       3.097   3.538  18.550  0.00  0.00    +0.000 NA
BRANCH  12  13
ATOM     13  C   UNL     1       2.375   4.170  19.677  0.00  0.00    +0.000 C 
BRANCH  13  14
ATOM     14  C   UNL     1       2.184   5.660  19.535  0.00  0.00    +0.000 A 
ATOM     15  C   UNL     1       1.758   6.448  20.609  0.00  0.00    +0.000 A 
ATOM     16  C   UNL     1       1.621   7.824  20.447  0.00  0.00    +0.000 A 
ATOM     17  C   UNL     1       1.916   8.373  19.212  0.00  0.00    +0.000 A 
ATOM     18  N   UNL     1       2.328   7.649  18.149  0.00  0.00    +0.000 NA
ATOM     19  C   UNL     1       2.455   6.314  18.335  0.00  0.00    +0.000 A 
ENDBRANCH  13  14
ENDBRANCH  12  13
ENDBRANCH   1  12
TORSDOF 4
ENDMDL
MODEL 3
REMARK VINA RESULT:      -6.6      1.707      3.401
REMARK  Name = 
REMARK  5 active torsions:
REMARK  status: ('A' for Active; 'I' for Inactive)
REMARK    1  A    between atoms: C_1  and  N_2
REMARK    2  A    between atoms: N_2  and  C_3
REMARK    3  A    between atoms: N_2  and  C_10
REMARK    4  A    between atoms: C_3  and  C_4
REMARK    5  A    between atoms: C_10  and  C_11
REMARK                            x       y       z     vdW  Elec       q    Type
REMARK                         _______ _______ _______ _____ _____    ______ ____
ROOT
ATOM      1  C   UNL     1       3.516   5.277  18.590  0.00  0.00    +0.000 C 
ENDROOT
BRANCH   1   2
ATOM      2  C   UNL     1       4.967   5.119  18.317  0.00  0.00    +0.000 A 
ATOM      3  C   UNL     1       6.028   5.071  19.200  0.00  0.00    +0.000 A 
ATOM      4  N   UNL     1       7.214   4.886  18.550  0.00  0.00    +0.000 NA
ATOM      5  C   UNL     1       6.917   4.807  17.269  0.00  0.00    +0.000 A 
ATOM      6  N   UNL     1       7.763   4.616  16.214  0.00  0.00    +0.000 NA
ATOM      7  C   UNL     1       7.209   4.563  15.042  0.00  0.00    +0.000 A 
ATOM      8  C   UNL     1       5.756   4.687  14.742  0.00  0.00    +0.000 A 
ATOM      9  C   UNL     1       4.969   4.875  15.809  0.00  0.00    +0.000 A 
ATOM     10  N   UNL     1       5.539   4.937  17.076  0.00  0.00    +0.000 N 
ENDBRANCH   1   2
BRANCH   1  12
ATOM     11  C   UNL     1       2.694   7.473  18.165  0.00  0.00    +0.000 C 
ATOM     12  N   UNL     1       3.149   6.558  19.226  0.00  0.00    +0.000 NA
BRANCH  12  13
ATOM     13  C   UNL     1       2.090   6.375  20.244  0.00  0.00    +0.000 C 
BRANCH  13  14
ATOM     14  C   UNL     1       1.848   4.938  20.638  0.00  0.00    +0.000 A 
ATOM     15  C   UNL     1       0.925   4.139  19.956  0.00  0.00    +0.000 A 
ATOM     16  C   UNL     1       0.750   2.810  20.330  0.00  0.00    +0.000 A 
ATOM     17  C   UNL     1       1.508   2.317  21.378  0.00  0.00    +0.000 A 
ATOM     18  N   UNL     1       2.409   3.053  22.062  0.00  0.00    +0.000 NA
ATOM     19  C   UNL     1       2.560   4.342  21.676  0.00  0.00    +0.000 A 
ENDBRANCH  13  14
ENDBRANCH  12  13
ENDBRANCH   1  12
TORSDOF 4
ENDMDL
MODEL 4
REMARK VINA RESULT:      -6.6      0.884      1.267
REMARK  Name = 
REMARK  5 active torsions:
REMARK  status: ('A' for Active; 'I' for Inactive)
REMARK    1  A    between atoms: C_1  and  N_2
REMARK    2  A    between atoms: N_2  and  C_3
REMARK    3  A    between atoms: N_2  and  C_10
REMARK    4  A    between atoms: C_3  and  C_4
REMARK    5  A    between atoms: C_10  and  C_11
REMARK                            x       y       z     vdW  Elec       q    Type
REMARK                         _______ _______ _______ _____ _____    ______ ____
ROOT
ATOM      1  C   UNL     1       4.860   4.832  18.801  0.00  0.00    +0.000 C 
ENDROOT
BRANCH   1   2
ATOM      2  C   UNL     1       5.849   5.393  17.845  0.00  0.00    +0.000 A 
ATOM      3  C   UNL     1       6.784   6.391  18.031  0.00  0.00    +0.000 A 
ATOM      4  N   UNL     1       7.530   6.596  16.905  0.00  0.00    +0.000 NA
ATOM      5  C   UNL     1       7.085   5.734  16.014  0.00  0.00    +0.000 A 
ATOM      6  N   UNL     1       7.517   5.543  14.732  0.00  0.00    +0.000 NA
ATOM      7  C   UNL     1       6.913   4.612  14.061  0.00  0.00    +0.000 A 
ATOM      8  C   UNL     1       5.809   3.740  14.550  0.00  0.00    +0.000 A 
ATOM      9  C   UNL     1       5.421   3.968  15.811  0.00  0.00    +0.000 A 
ATOM     10  N   UNL     1       6.051   4.962  16.551  0.00  0.00    +0.000 N 
ENDBRANCH   1   2
BRANCH   1  12
ATOM     11  C   UNL     1       2.669   4.071  18.256  0.00  0.00    +0.000 C 
ATOM     12  N   UNL     1       3.468   5.269  18.567  0.00  0.00    +0.000 NA
BRANCH  12  13
ATOM     13  C   UNL     1       2.914   5.972  19.746  0.00  0.00    +0.000 C 
BRANCH  13  14
ATOM     14  C   UNL     1       2.266   7.298  19.430  0.00  0.00    +0.000 A 
ATOM     15  C   UNL     1       1.578   8.025  20.406  0.00  0.00    +0.000 A 
ATOM     16  C   UNL     1       1.017   9.259  20.084  0.00  0.00    +0.000 A 
ATOM     17  C   UNL     1       1.165   9.729  18.791  0.00  0.00    +0.000 A 
ATOM     18  N   UNL     1       1.820   9.059  17.819  0.00  0.00    +0.000 NA
ATOM     19  C   UNL     1       2.356   7.864  18.161  0.00  0.00    +0.000 A 
ENDBRANCH  13  14
ENDBRANCH  12  13
ENDBRANCH   1  12
TORSDOF 4
ENDMDL
MODEL 5
REMARK VINA RESULT:      -6.5      1.567      3.405
REMARK  Name = 
REMARK  5 active torsions:
REMARK  status: ('A' for Active; 'I' for Inactive)
REMARK    1  A    between atoms: C_1  and  N_2
REMARK    2  A    between atoms: N_2  and  C_3
REMARK    3  A    between atoms: N_2  and  C_10
REMARK    4  A    between atoms: C_3  and  C_4
REMARK    5  A    between atoms: C_10  and  C_11
REMARK                            x       y       z     vdW  Elec       q    Type
REMARK                         _______ _______ _______ _____ _____    ______ ____
ROOT
ATOM      1  C   UNL     1       4.389   5.295  18.843  0.00  0.00    +0.000 C 
ENDROOT
BRANCH   1   2
ATOM      2  C   UNL     1       5.619   5.546  18.049  0.00  0.00    +0.000 A 
ATOM      3  C   UNL     1       6.798   6.158  18.424  0.00  0.00    +0.000 A 
ATOM      4  N   UNL     1       7.705   6.168  17.403  0.00  0.00    +0.000 NA
ATOM      5  C   UNL     1       7.118   5.561  16.391  0.00  0.00    +0.000 A 
ATOM      6  N   UNL     1       7.621   5.314  15.146  0.00  0.00    +0.000 NA
ATOM      7  C   UNL     1       6.835   4.683  14.330  0.00  0.00    +0.000 A 
ATOM      8  C   UNL     1       5.455   4.206  14.619  0.00  0.00    +0.000 A 
ATOM      9  C   UNL     1       5.007   4.474  15.852  0.00  0.00    +0.000 A 
ATOM     10  N   UNL     1       5.830   5.152  16.745  0.00  0.00    +0.000 N 
ENDBRANCH   1   2
BRANCH   1  12
ATOM     11  C   UNL     1       3.361   7.202  17.850  0.00  0.00    +0.000 C 
ATOM     12  N   UNL     1       3.587   6.503  19.127  0.00  0.00    +0.000 NA
BRANCH  12  13
ATOM     13  C   UNL     1       2.297   6.160  19.767  0.00  0.00    +0.000 C 
BRANCH  13  14
ATOM     14  C   UNL     1       1.891   4.714  19.613  0.00  0.00    +0.000 A 
ATOM     15  C   UNL     1       1.851   3.846  20.709  0.00  0.00    +0.000 A 
ATOM     16  C   UNL     1       1.444   2.527  20.532  0.00  0.00    +0.000 A 
ATOM     17  C   UNL     1       1.086   2.115  19.260  0.00  0.00    +0.000 A 
ATOM     18  N   UNL     1       1.111   2.919  18.176  0.00  0.00    +0.000 NA
ATOM     19  C   UNL     1       1.509   4.198  18.377  0.00  0.00    +0.000 A 
ENDBRANCH  13  14
ENDBRANCH  12  13
ENDBRANCH   1  12
TORSDOF 4
ENDMDL
MODEL 6
REMARK VINA RESULT:      -6.4      1.158      1.437
REMARK  Name = 
REMARK  5 active torsions:
REMARK  status: ('A' for Active; 'I' for Inactive)
REMARK    1  A    between atoms: C_1  and  N_2
REMARK    2  A    between atoms: N_2  and  C_3
REMARK    3  A    between atoms: N_2  and  C_10
REMARK    4  A    between atoms: C_3  and  C_4
REMARK    5  A    between atoms: C_10  and  C_11
REMARK                            x       y       z     vdW  Elec       q    Type
REMARK                         _______ _______ _______ _____ _____    ______ ____
ROOT
ATOM      1  C   UNL     1       4.572   3.811  17.266  0.00  0.00    +0.000 C 
ENDROOT
BRANCH   1   2
ATOM      2  C   UNL     1       5.672   4.590  16.642  0.00  0.00    +0.000 A 
ATOM      3  C   UNL     1       6.524   5.517  17.208  0.00  0.00    +0.000 A 
ATOM      4  N   UNL     1       7.425   5.992  16.298  0.00  0.00    +0.000 NA
ATOM      5  C   UNL     1       7.159   5.371  15.167  0.00  0.00    +0.000 A 
ATOM      6  N   UNL     1       7.790   5.499  13.962  0.00  0.00    +0.000 NA
ATOM      7  C   UNL     1       7.336   4.756  13.001  0.00  0.00    +0.000 A 
ATOM      8  C   UNL     1       6.208   3.788  13.084  0.00  0.00    +0.000 A 
ATOM      9  C   UNL     1       5.621   3.701  14.285  0.00  0.00    +0.000 A 
ATOM     10  N   UNL     1       6.088   4.488  15.332  0.00  0.00    +0.000 N 
ENDBRANCH   1   2
BRANCH   1  12
ATOM     11  C   UNL     1       2.206   3.667  17.516  0.00  0.00    +0.000 C 
ATOM     12  N   UNL     1       3.351   4.594  17.546  0.00  0.00    +0.000 NA
BRANCH  12  13
ATOM     13  C   UNL     1       3.433   5.277  18.857  0.00  0.00    +0.000 C 
BRANCH  13  14
ATOM     14  C   UNL     1       2.800   6.647  18.884  0.00  0.00    +0.000 A 
ATOM     15  C   UNL     1       2.837   7.491  17.769  0.00  0.00    +0.000 A 
ATOM     16  C   UNL     1       2.217   8.737  17.823  0.00  0.00    +0.000 A 
ATOM     17  C   UNL     1       1.575   9.101  18.994  0.00  0.00    +0.000 A 
ATOM     18  N   UNL     1       1.517   8.318  20.092  0.00  0.00    +0.000 NA
ATOM     19  C   UNL     1       2.126   7.111  20.011  0.00  0.00    +0.000 A 
ENDBRANCH  13  14
ENDBRANCH  12  13
ENDBRANCH   1  12
TORSDOF 4
ENDMDL
MODEL 7
REMARK VINA RESULT:      -6.4      2.551      6.489
REMARK  Name = 
REMARK  5 active torsions:
REMARK  status: ('A' for Active; 'I' for Inactive)
REMARK    1  A    between atoms: C_1  and  N_2
REMARK    2  A    between atoms: N_2  and  C_3
REMARK    3  A    between atoms: N_2  and  C_10
REMARK    4  A    between atoms: C_3  and  C_4
REMARK    5  A    between atoms: C_10  and  C_11
REMARK                            x       y       z     vdW  Elec       q    Type
REMARK                         _______ _______ _______ _____ _____    ______ ____
ROOT
ATOM      1  C   UNL     1       3.866   5.659  17.700  0.00  0.00    +0.000 C 
ENDROOT
BRANCH   1   2
ATOM      2  C   UNL     1       3.067   4.429  17.937  0.00  0.00    +0.000 A 
ATOM      3  C   UNL     1       2.683   3.445  17.047  0.00  0.00    +0.000 A 
ATOM      4  N   UNL     1       1.974   2.457  17.668  0.00  0.00    +0.000 NA
ATOM      5  C   UNL     1       1.914   2.797  18.939  0.00  0.00    +0.000 A 
ATOM      6  N   UNL     1       1.317   2.125  19.968  0.00  0.00    +0.000 NA
ATOM      7  C   UNL     1       1.414   2.676  21.138  0.00  0.00    +0.000 A 
ATOM      8  C   UNL     1       2.107   3.953  21.464  0.00  0.00    +0.000 A 
ATOM      9  C   UNL     1       2.674   4.574  20.421  0.00  0.00    +0.000 A 
ATOM     10  N   UNL     1       2.582   4.005  19.155  0.00  0.00    +0.000 N 
ENDBRANCH   1   2
BRANCH   1  12
ATOM     11  C   UNL     1       5.736   5.453  19.163  0.00  0.00    +0.000 C 
ATOM     12  N   UNL     1       5.328   5.456  17.747  0.00  0.00    +0.000 NA
BRANCH  12  13
ATOM     13  C   UNL     1       5.722   4.190  17.090  0.00  0.00    +0.000 C 
BRANCH  13  14
ATOM     14  C   UNL     1       6.251   4.356  15.686  0.00  0.00    +0.000 A 
ATOM     15  C   UNL     1       5.695   3.659  14.609  0.00  0.00    +0.000 A 
ATOM     16  C   UNL     1       6.191   3.860  13.323  0.00  0.00    +0.000 A 
ATOM     17  C   UNL     1       7.231   4.758  13.154  0.00  0.00    +0.000 A 
ATOM     18  N   UNL     1       7.796   5.450  14.166  0.00  0.00    +0.000 NA
ATOM     19  C   UNL     1       7.293   5.236  15.405  0.00  0.00    +0.000 A 
ENDBRANCH  13  14
ENDBRANCH  12  13
ENDBRANCH   1  12
TORSDOF 4
ENDMDL
MODEL 8
REMARK VINA RESULT:      -6.4      1.250      2.201
REMARK  Name = 
REMARK  5 active torsions:
REMARK  status: ('A' for Active; 'I' for Inactive)
REMARK    1  A    between atoms: C_1  and  N_2
REMARK    2  A    between atoms: N_2  and  C_3
REMARK    3  A    between atoms: N_2  and  C_10
REMARK    4  A    between atoms: C_3  and  C_4
REMARK    5  A    between atoms: C_10  and  C_11
REMARK                            x       y       z     vdW  Elec       q    Type
REMARK                         _______ _______ _______ _____ _____    ______ ____
ROOT
ATOM      1  C   UNL     1       3.398   3.494  19.257  0.00  0.00    +0.000 C 
ENDROOT
BRANCH   1   2
ATOM      2  C   UNL     1       4.220   3.931  18.099  0.00  0.00    +0.000 A 
ATOM      3  C   UNL     1       3.999   3.758  16.748  0.00  0.00    +0.000 A 
ATOM      4  N   UNL     1       4.983   4.338  15.999  0.00  0.00    +0.000 NA
ATOM      5  C   UNL     1       5.817   4.885  16.859  0.00  0.00    +0.000 A 
ATOM      6  N   UNL     1       6.959   5.589  16.600  0.00  0.00    +0.000 NA
ATOM      7  C   UNL     1       7.599   6.036  17.636  0.00  0.00    +0.000 A 
ATOM      8  C   UNL     1       7.212   5.858  19.063  0.00  0.00    +0.000 A 
ATOM      9  C   UNL     1       6.087   5.158  19.264  0.00  0.00    +0.000 A 
ATOM     10  N   UNL     1       5.383   4.667  18.170  0.00  0.00    +0.000 N 
ENDBRANCH   1   2
BRANCH   1  12
ATOM     11  C   UNL     1       1.195   3.482  20.166  0.00  0.00    +0.000 C 
ATOM     12  N   UNL     1       2.207   4.330  19.512  0.00  0.00    +0.000 NA
BRANCH  12  13
ATOM     13  C   UNL     1       2.535   5.497  20.361  0.00  0.00    +0.000 C 
BRANCH  13  14
ATOM     14  C   UNL     1       2.220   6.832  19.731  0.00  0.00    +0.000 A 
ATOM     15  C   UNL     1       2.556   7.111  18.403  0.00  0.00    +0.000 A 
ATOM     16  C   UNL     1       2.223   8.344  17.848  0.00  0.00    +0.000 A 
ATOM     17  C   UNL     1       1.559   9.263  18.642  0.00  0.00    +0.000 A 
ATOM     18  N   UNL     1       1.216   9.034  19.928  0.00  0.00    +0.000 NA
ATOM     19  C   UNL     1       1.551   7.827  20.440  0.00  0.00    +0.000 A 
ENDBRANCH  13  14
ENDBRANCH  12  13
ENDBRANCH   1  12
TORSDOF 4
ENDMDL
MODEL 9
REMARK VINA RESULT:      -6.4      3.004      6.144
REMARK  Name = 
REMARK  5 active torsions:
REMARK  status: ('A' for Active; 'I' for Inactive)
REMARK    1  A    between atoms: C_1  and  N_2
REMARK    2  A    between atoms: N_2  and  C_3
REMARK    3  A    between atoms: N_2  and  C_10
REMARK    4  A    between atoms: C_3  and  C_4
REMARK    5  A    between atoms: C_10  and  C_11
REMARK                            x       y       z     vdW  Elec       q    Type
REMARK                         _______ _______ _______ _____ _____    ______ ____
ROOT
ATOM      1  C   UNL     1       5.115   6.413  17.086  0.00  0.00    +0.000 C 
ENDROOT
BRANCH   1   2
ATOM      2  C   UNL     1       5.107   5.292  18.061  0.00  0.00    +0.000 A 
ATOM      3  C   UNL     1       5.873   5.106  19.194  0.00  0.00    +0.000 A 
ATOM      4  N   UNL     1       5.540   3.951  19.841  0.00  0.00    +0.000 NA
ATOM      5  C   UNL     1       4.566   3.409  19.138  0.00  0.00    +0.000 A 
ATOM      6  N   UNL     1       3.891   2.247  19.383  0.00  0.00    +0.000 NA
ATOM      7  C   UNL     1       2.958   1.943  18.534  0.00  0.00    +0.000 A 
ATOM      8  C   UNL     1       2.558   2.729  17.335  0.00  0.00    +0.000 A 
ATOM      9  C   UNL     1       3.252   3.858  17.138  0.00  0.00    +0.000 A 
ATOM     10  N   UNL     1       4.259   4.206  18.032  0.00  0.00    +0.000 N 
ENDBRANCH   1   2
BRANCH   1  12
ATOM     11  C   UNL     1       7.254   7.455  17.215  0.00  0.00    +0.000 C 
ATOM     12  N   UNL     1       6.398   6.598  16.377  0.00  0.00    +0.000 NA
BRANCH  12  13
ATOM     13  C   UNL     1       7.061   5.302  16.110  0.00  0.00    +0.000 C 
BRANCH  13  14
ATOM     14  C   UNL     1       6.905   4.804  14.694  0.00  0.00    +0.000 A 
ATOM     15  C   UNL     1       5.908   3.886  14.348  0.00  0.00    +0.000 A 
ATOM     16  C   UNL     1       5.777   3.472  13.025  0.00  0.00    +0.000 A 
ATOM     17  C   UNL     1       6.650   3.992  12.085  0.00  0.00    +0.000 A 
ATOM     18  N   UNL     1       7.626   4.878  12.376  0.00  0.00    +0.000 NA
ATOM     19  C   UNL     1       7.729   5.265  13.670  0.00  0.00    +0.000 A 
ENDBRANCH  13  14
ENDBRANCH  12  13
ENDBRANCH   1  12
TORSDOF 4
ENDMDL
