MODEL 1
REMARK VINA RESULT:      -7.6      0.000      0.000
REMARK  Name = 
REMARK  5 active torsions:
REMARK  status: ('A' for Active; 'I' for Inactive)
REMARK    1  A    between atoms: C_1  and  O_2
REMARK    2  A    between atoms: O_2  and  N_3
REMARK    3  A    between atoms: N_5  and  C_6
REMARK    4  A    between atoms: C_6  and  C_7
REMARK    5  A    between atoms: C_21  and  C_23
REMARK                            x       y       z     vdW  Elec       q    Type
REMARK                         _______ _______ _______ _____ _____    ______ ____
ROOT
ATOM      1  N   UNL     1       3.377   5.890  19.311  0.00  0.00    +0.000 N 
ATOM      2  C   UNL     1       3.848   6.416  18.135  0.00  0.00    +0.000 A 
ATOM      3  N   UNL     1       4.740   5.669  17.328  0.00  0.00    +0.000 N 
ATOM      4  N   UNL     1       3.395   7.618  17.697  0.00  0.00    +0.000 NA
ATOM      5  C   UNL     1       2.432   8.303  18.358  0.00  0.00    +0.000 A 
ATOM      6  C   UNL     1       1.885   7.774  19.545  0.00  0.00    +0.000 A 
ATOM      7  C   UNL     1       2.382   6.545  20.005  0.00  0.00    +0.000 A 
ATOM      8  O   UNL     1       1.956   6.069  21.046  0.00  0.00    +0.000 OA
ATOM      9  C   UNL     1       0.816   8.530  20.310  0.00  0.00    +0.000 C 
ATOM     10  N   UNL     1       0.759   9.929  19.860  0.00  0.00    +0.000 N 
ATOM     11  C   UNL     1       0.785  10.973  20.765  0.00  0.00    +0.000 C 
ATOM     12  O   UNL     1       0.701  10.715  21.962  0.00  0.00    +0.000 OA
ATOM     13  C   UNL     1       0.650  10.073  18.421  0.00  0.00    +0.000 C 
ATOM     14  C   UNL     1       1.968   9.616  17.788  0.00  0.00    +0.000 C 
ATOM     15  H   UNL     1       4.678   4.643  17.369  0.00  0.00    +0.000 HD
ENDROOT
BRANCH  11  16
ATOM     16  C   UNL     1       0.888  12.436  20.411  0.00  0.00    +0.000 A 
ATOM     17  C   UNL     1       2.146  13.065  20.493  0.00  0.00    +0.000 A 
ATOM     18  C   UNL     1       2.299  14.419  20.171  0.00  0.00    +0.000 A 
ATOM     19  C   UNL     1       1.200  15.167  19.747  0.00  0.00    +0.000 A 
ATOM     20 CL   UNL     1       1.380  16.865  19.350  0.00  0.00    +0.000 Cl
ATOM     21  C   UNL     1      -0.046  14.556  19.626  0.00  0.00    +0.000 A 
ATOM     22  C   UNL     1      -0.200  13.209  19.946  0.00  0.00    +0.000 A 
ENDBRANCH  11  16
BRANCH   1  24
ATOM     23  C   UNL     1       3.470   3.487  19.577  0.00  0.00    +0.000 C 
ATOM     24  O   UNL     1       3.900   4.782  19.864  0.00  0.00    +0.000 OA
ENDBRANCH   1  24
BRANCH   3  25
ATOM     25  C   UNL     1       5.735   6.253  16.463  0.00  0.00    +0.000 C 
BRANCH  25  26
ATOM     26  C   UNL     1       5.960   5.383  15.262  0.00  0.00    +0.000 A 
ATOM     27  C   UNL     1       7.204   5.380  14.616  0.00  0.00    +0.000 A 
ATOM     28  C   UNL     1       7.415   4.561  13.504  0.00  0.00    +0.000 A 
ATOM     29  C   UNL     1       6.383   3.744  13.026  0.00  0.00    +0.000 A 
ATOM     30 CL   UNL     1       6.648   2.721  11.628  0.00  0.00    +0.000 Cl
ATOM     31  C   UNL     1       5.141   3.742  13.668  0.00  0.00    +0.000 A 
ATOM     32  C   UNL     1       4.930   4.553  14.783  0.00  0.00    +0.000 A 
ENDBRANCH  25  26
ENDBRANCH   3  25
TORSDOF 4
ENDMDL
MODEL 2
REMARK VINA RESULT:      -7.6      4.216      6.264
REMARK  Name = 
REMARK  5 active torsions:
REMARK  status: ('A' for Active; 'I' for Inactive)
REMARK    1  A    between atoms: C_1  and  O_2
REMARK    2  A    between atoms: O_2  and  N_3
REMARK    3  A    between atoms: N_5  and  C_6
REMARK    4  A    between atoms: C_6  and  C_7
REMARK    5  A    between atoms: C_21  and  C_23
REMARK                            x       y       z     vdW  Elec       q    Type
REMARK                         _______ _______ _______ _____ _____    ______ ____
ROOT
ATOM      1  N   UNL     1       1.585   9.781  19.567  0.00  0.00    +0.000 N 
ATOM      2  C   UNL     1       1.226   8.877  20.535  0.00  0.00    +0.000 A 
ATOM      3  N   UNL     1       1.815   7.590  20.561  0.00  0.00    +0.000 N 
ATOM      4  N   UNL     1       0.368   9.242  21.521  0.00  0.00    +0.000 NA
ATOM      5  C   UNL     1      -0.109  10.505  21.623  0.00  0.00    +0.000 A 
ATOM      6  C   UNL     1       0.276  11.478  20.678  0.00  0.00    +0.000 A 
ATOM      7  C   UNL     1       1.140  11.083  19.645  0.00  0.00    +0.000 A 
ATOM      8  O   UNL     1       1.471  11.888  18.789  0.00  0.00    +0.000 OA
ATOM      9  C   UNL     1      -0.256  12.896  20.764  0.00  0.00    +0.000 C 
ATOM     10  N   UNL     1      -1.418  12.952  21.663  0.00  0.00    +0.000 N 
ATOM     11  C   UNL     1      -2.596  13.559  21.272  0.00  0.00    +0.000 C 
ATOM     12  O   UNL     1      -2.610  14.190  20.219  0.00  0.00    +0.000 OA
ATOM     13  C   UNL     1      -1.181  12.344  22.958  0.00  0.00    +0.000 C 
ATOM     14  C   UNL     1      -1.035  10.831  22.764  0.00  0.00    +0.000 C 
ATOM     15  H   UNL     1       2.767   7.492  20.187  0.00  0.00    +0.000 HD
ENDROOT
BRANCH  11  16
ATOM     16  C   UNL     1      -3.891  13.537  22.045  0.00  0.00    +0.000 A 
ATOM     17  C   UNL     1      -4.045  14.419  23.134  0.00  0.00    +0.000 A 
ATOM     18  C   UNL     1      -5.228  14.443  23.882  0.00  0.00    +0.000 A 
ATOM     19  C   UNL     1      -6.286  13.597  23.547  0.00  0.00    +0.000 A 
ATOM     20 CL   UNL     1      -7.769  13.614  24.484  0.00  0.00    +0.000 Cl
ATOM     21  C   UNL     1      -6.169  12.742  22.454  0.00  0.00    +0.000 A 
ATOM     22  C   UNL     1      -4.992  12.717  21.708  0.00  0.00    +0.000 A 
ENDBRANCH  11  16
BRANCH   1  24
ATOM     23  C   UNL     1       1.914   8.469  17.561  0.00  0.00    +0.000 C 
ATOM     24  O   UNL     1       2.309   9.431  18.489  0.00  0.00    +0.000 OA
ENDBRANCH   1  24
BRANCH   3  25
ATOM     25  C   UNL     1       1.161   6.409  21.069  0.00  0.00    +0.000 C 
BRANCH  25  26
ATOM     26  C   UNL     1       1.741   5.178  20.437  0.00  0.00    +0.000 A 
ATOM     27  C   UNL     1       1.006   3.986  20.408  0.00  0.00    +0.000 A 
ATOM     28  C   UNL     1       1.543   2.844  19.810  0.00  0.00    +0.000 A 
ATOM     29  C   UNL     1       2.822   2.883  19.241  0.00  0.00    +0.000 A 
ATOM     30 CL   UNL     1       3.497   1.448  18.495  0.00  0.00    +0.000 Cl
ATOM     31  C   UNL     1       3.560   4.071  19.264  0.00  0.00    +0.000 A 
ATOM     32  C   UNL     1       3.022   5.215  19.855  0.00  0.00    +0.000 A 
ENDBRANCH  25  26
ENDBRANCH   3  25
TORSDOF 4
ENDMDL
MODEL 3
REMARK VINA RESULT:      -7.6      0.166      1.229
REMARK  Name = 
REMARK  5 active torsions:
REMARK  status: ('A' for Active; 'I' for Inactive)
REMARK    1  A    between atoms: C_1  and  O_2
REMARK    2  A    between atoms: O_2  and  N_3
REMARK    3  A    between atoms: N_5  and  C_6
REMARK    4  A    between atoms: C_6  and  C_7
REMARK    5  A    between atoms: C_21  and  C_23
REMARK                            x       y       z     vdW  Elec       q    Type
REMARK                         _______ _______ _______ _____ _____    ______ ____
ROOT
ATOM      1  N   UNL     1       3.287   5.919  19.290  0.00  0.00    +0.000 N 
ATOM      2  C   UNL     1       3.792   6.453  18.133  0.00  0.00    +0.000 A 
ATOM      3  N   UNL     1       4.677   5.697  17.326  0.00  0.00    +0.000 N 
ATOM      4  N   UNL     1       3.380   7.676  17.711  0.00  0.00    +0.000 NA
ATOM      5  C   UNL     1       2.426   8.375  18.371  0.00  0.00    +0.000 A 
ATOM      6  C   UNL     1       1.845   7.839  19.538  0.00  0.00    +0.000 A 
ATOM      7  C   UNL     1       2.300   6.588  19.982  0.00  0.00    +0.000 A 
ATOM      8  O   UNL     1       1.843   6.104  21.006  0.00  0.00    +0.000 OA
ATOM      9  C   UNL     1       0.785   8.610  20.301  0.00  0.00    +0.000 C 
ATOM     10  N   UNL     1       0.774  10.018  19.878  0.00  0.00    +0.000 N 
ATOM     11  C   UNL     1       0.815  11.044  20.803  0.00  0.00    +0.000 C 
ATOM     12  O   UNL     1       0.704  10.765  21.993  0.00  0.00    +0.000 OA
ATOM     13  C   UNL     1       0.694  10.193  18.440  0.00  0.00    +0.000 C 
ATOM     14  C   UNL     1       2.009   9.711  17.819  0.00  0.00    +0.000 C 
ATOM     15  H   UNL     1       4.585   4.673  17.345  0.00  0.00    +0.000 HD
ENDROOT
BRANCH  11  16
ATOM     16  C   UNL     1       0.965  12.509  20.480  0.00  0.00    +0.000 A 
ATOM     17  C   UNL     1      -0.196  13.293  20.327  0.00  0.00    +0.000 A 
ATOM     18  C   UNL     1      -0.113  14.658  20.032  0.00  0.00    +0.000 A 
ATOM     19  C   UNL     1       1.134  15.272  19.898  0.00  0.00    +0.000 A 
ATOM     20 CL   UNL     1       1.248  16.980  19.521  0.00  0.00    +0.000 Cl
ATOM     21  C   UNL     1       2.295  14.524  20.079  0.00  0.00    +0.000 A 
ATOM     22  C   UNL     1       2.213  13.164  20.373  0.00  0.00    +0.000 A 
ENDBRANCH  11  16
BRANCH   1  24
ATOM     23  C   UNL     1       3.290   3.511  19.531  0.00  0.00    +0.000 C 
ATOM     24  O   UNL     1       3.770   4.785  19.830  0.00  0.00    +0.000 OA
ENDBRANCH   1  24
BRANCH   3  25
ATOM     25  C   UNL     1       5.702   6.270  16.489  0.00  0.00    +0.000 C 
BRANCH  25  26
ATOM     26  C   UNL     1       5.960   5.390  15.302  0.00  0.00    +0.000 A 
ATOM     27  C   UNL     1       5.025   4.415  14.928  0.00  0.00    +0.000 A 
ATOM     28  C   UNL     1       5.262   3.604  13.816  0.00  0.00    +0.000 A 
ATOM     29  C   UNL     1       6.438   3.757  13.072  0.00  0.00    +0.000 A 
ATOM     30 CL   UNL     1       6.736   2.735  11.680  0.00  0.00    +0.000 Cl
ATOM     31  C   UNL     1       7.373   4.729  13.438  0.00  0.00    +0.000 A 
ATOM     32  C   UNL     1       7.136   5.546  14.545  0.00  0.00    +0.000 A 
ENDBRANCH  25  26
ENDBRANCH   3  25
TORSDOF 4
ENDMDL
MODEL 4
REMARK VINA RESULT:      -7.5      4.159      6.047
REMARK  Name = 
REMARK  5 active torsions:
REMARK  status: ('A' for Active; 'I' for Inactive)
REMARK    1  A    between atoms: C_1  and  O_2
REMARK    2  A    between atoms: O_2  and  N_3
REMARK    3  A    between atoms: N_5  and  C_6
REMARK    4  A    between atoms: C_6  and  C_7
REMARK    5  A    between atoms: C_21  and  C_23
REMARK                            x       y       z     vdW  Elec       q    Type
REMARK                         _______ _______ _______ _____ _____    ______ ____
ROOT
ATOM      1  N   UNL     1       1.712   9.390  19.433  0.00  0.00    +0.000 N 
ATOM      2  C   UNL     1       1.373   8.495  20.415  0.00  0.00    +0.000 A 
ATOM      3  N   UNL     1       1.971   7.212  20.447  0.00  0.00    +0.000 N 
ATOM      4  N   UNL     1       0.527   8.865  21.410  0.00  0.00    +0.000 NA
ATOM      5  C   UNL     1       0.043  10.126  21.505  0.00  0.00    +0.000 A 
ATOM      6  C   UNL     1       0.408  11.091  20.544  0.00  0.00    +0.000 A 
ATOM      7  C   UNL     1       1.259  10.690  19.502  0.00  0.00    +0.000 A 
ATOM      8  O   UNL     1       1.572  11.488  18.633  0.00  0.00    +0.000 OA
ATOM      9  C   UNL     1      -0.132  12.506  20.622  0.00  0.00    +0.000 C 
ATOM     10  N   UNL     1      -1.281  12.564  21.538  0.00  0.00    +0.000 N 
ATOM     11  C   UNL     1      -2.469  13.159  21.158  0.00  0.00    +0.000 C 
ATOM     12  O   UNL     1      -2.503  13.778  20.099  0.00  0.00    +0.000 OA
ATOM     13  C   UNL     1      -1.021  11.972  22.836  0.00  0.00    +0.000 C 
ATOM     14  C   UNL     1      -0.867  10.458  22.656  0.00  0.00    +0.000 C 
ATOM     15  H   UNL     1       2.919   7.117  20.060  0.00  0.00    +0.000 HD
ENDROOT
BRANCH  11  16
ATOM     16  C   UNL     1      -3.752  13.138  21.951  0.00  0.00    +0.000 A 
ATOM     17  C   UNL     1      -4.955  12.827  21.286  0.00  0.00    +0.000 A 
ATOM     18  C   UNL     1      -6.172  12.788  21.975  0.00  0.00    +0.000 A 
ATOM     19  C   UNL     1      -6.210  13.045  23.346  0.00  0.00    +0.000 A 
ATOM     20 CL   UNL     1      -7.732  13.006  24.216  0.00  0.00    +0.000 Cl
ATOM     21  C   UNL     1      -5.029  13.320  24.030  0.00  0.00    +0.000 A 
ATOM     22  C   UNL     1      -3.816  13.359  23.346  0.00  0.00    +0.000 A 
ENDBRANCH  11  16
BRANCH   1  24
ATOM     23  C   UNL     1       2.132   7.925  17.553  0.00  0.00    +0.000 C 
ATOM     24  O   UNL     1       2.422   9.033  18.348  0.00  0.00    +0.000 OA
ENDBRANCH   1  24
BRANCH   3  25
ATOM     25  C   UNL     1       1.333   6.032  20.976  0.00  0.00    +0.000 C 
BRANCH  25  26
ATOM     26  C   UNL     1       1.919   4.798  20.357  0.00  0.00    +0.000 A 
ATOM     27  C   UNL     1       3.181   4.844  19.749  0.00  0.00    +0.000 A 
ATOM     28  C   UNL     1       3.729   3.691  19.182  0.00  0.00    +0.000 A 
ATOM     29  C   UNL     1       3.018   2.485  19.213  0.00  0.00    +0.000 A 
ATOM     30 CL   UNL     1       3.706   1.041  18.497  0.00  0.00    +0.000 Cl
ATOM     31  C   UNL     1       1.760   2.433  19.820  0.00  0.00    +0.000 A 
ATOM     32  C   UNL     1       1.213   3.582  20.394  0.00  0.00    +0.000 A 
ENDBRANCH  25  26
ENDBRANCH   3  25
TORSDOF 4
ENDMDL
MODEL 5
REMARK VINA RESULT:      -7.3      2.388      3.094
REMARK  Name = 
REMARK  5 active torsions:
REMARK  status: ('A' for Active; 'I' for Inactive)
REMARK    1  A    between atoms: C_1  and  O_2
REMARK    2  A    between atoms: O_2  and  N_3
REMARK    3  A    between atoms: N_5  and  C_6
REMARK    4  A    between atoms: C_6  and  C_7
REMARK    5  A    between atoms: C_21  and  C_23
REMARK                            x       y       z     vdW  Elec       q    Type
REMARK                         _______ _______ _______ _____ _____    ______ ____
ROOT
ATOM      1  N   UNL     1       3.234   5.294  19.586  0.00  0.00    +0.000 N 
ATOM      2  C   UNL     1       3.731   5.601  18.345  0.00  0.00    +0.000 A 
ATOM      3  N   UNL     1       4.529   4.664  17.645  0.00  0.00    +0.000 N 
ATOM      4  N   UNL     1       3.391   6.770  17.746  0.00  0.00    +0.000 NA
ATOM      5  C   UNL     1       2.514   7.635  18.311  0.00  0.00    +0.000 A 
ATOM      6  C   UNL     1       1.941   7.333  19.563  0.00  0.00    +0.000 A 
ATOM      7  C   UNL     1       2.324   6.136  20.188  0.00  0.00    +0.000 A 
ATOM      8  O   UNL     1       1.873   5.855  21.288  0.00  0.00    +0.000 OA
ATOM      9  C   UNL     1       0.968   8.292  20.222  0.00  0.00    +0.000 C 
ATOM     10  N   UNL     1       1.041   9.613  19.581  0.00  0.00    +0.000 N 
ATOM     11  C   UNL     1       1.188  10.765  20.330  0.00  0.00    +0.000 C 
ATOM     12  O   UNL     1       1.104  10.685  21.552  0.00  0.00    +0.000 OA
ATOM     13  C   UNL     1       0.918   9.566  18.137  0.00  0.00    +0.000 C 
ATOM     14  C   UNL     1       2.171   8.896  17.565  0.00  0.00    +0.000 C 
ATOM     15  H   UNL     1       4.366   3.665  17.830  0.00  0.00    +0.000 HD
ENDROOT
BRANCH  11  16
ATOM     16  C   UNL     1       1.429  12.146  19.774  0.00  0.00    +0.000 A 
ATOM     17  C   UNL     1       0.839  13.250  20.421  0.00  0.00    +0.000 A 
ATOM     18  C   UNL     1       1.035  14.553  19.950  0.00  0.00    +0.000 A 
ATOM     19  C   UNL     1       1.836  14.781  18.831  0.00  0.00    +0.000 A 
ATOM     20 CL   UNL     1       2.080  16.410  18.228  0.00  0.00    +0.000 Cl
ATOM     21  C   UNL     1       2.458  13.708  18.196  0.00  0.00    +0.000 A 
ATOM     22  C   UNL     1       2.264  12.410  18.664  0.00  0.00    +0.000 A 
ENDBRANCH  11  16
BRANCH   1  24
ATOM     23  C   UNL     1       3.064   2.965  20.221  0.00  0.00    +0.000 C 
ATOM     24  O   UNL     1       3.656   4.226  20.286  0.00  0.00    +0.000 OA
ENDBRANCH   1  24
BRANCH   3  25
ATOM     25  C   UNL     1       5.559   5.019  16.701  0.00  0.00    +0.000 C 
BRANCH  25  26
ATOM     26  C   UNL     1       6.465   6.063  17.284  0.00  0.00    +0.000 A 
ATOM     27  C   UNL     1       6.441   7.374  16.790  0.00  0.00    +0.000 A 
ATOM     28  C   UNL     1       7.278   8.347  17.341  0.00  0.00    +0.000 A 
ATOM     29  C   UNL     1       8.149   8.015  18.386  0.00  0.00    +0.000 A 
ATOM     30 CL   UNL     1       9.202   9.237  19.074  0.00  0.00    +0.000 Cl
ATOM     31  C   UNL     1       8.176   6.709  18.885  0.00  0.00    +0.000 A 
ATOM     32  C   UNL     1       7.336   5.737  18.340  0.00  0.00    +0.000 A 
ENDBRANCH  25  26
ENDBRANCH   3  25
TORSDOF 4
ENDMDL
MODEL 6
REMARK VINA RESULT:      -7.2      5.441      8.527
REMARK  Name = 
REMARK  5 active torsions:
REMARK  status: ('A' for Active; 'I' for Inactive)
REMARK    1  A    between atoms: C_1  and  O_2
REMARK    2  A    between atoms: O_2  and  N_3
REMARK    3  A    between atoms: N_5  and  C_6
REMARK    4  A    between atoms: C_6  and  C_7
REMARK    5  A    between atoms: C_21  and  C_23
REMARK                            x       y       z     vdW  Elec       q    Type
REMARK                         _______ _______ _______ _____ _____    ______ ____
ROOT
ATOM      1  N   UNL     1       1.734  13.749  21.103  0.00  0.00    +0.000 N 
ATOM      2  C   UNL     1       1.578  13.330  19.807  0.00  0.00    +0.000 A 
ATOM      3  N   UNL     1       0.364  12.730  19.394  0.00  0.00    +0.000 N 
ATOM      4  N   UNL     1       2.553  13.567  18.893  0.00  0.00    +0.000 NA
ATOM      5  C   UNL     1       3.670  14.267  19.204  0.00  0.00    +0.000 A 
ATOM      6  C   UNL     1       3.846  14.759  20.513  0.00  0.00    +0.000 A 
ATOM      7  C   UNL     1       2.846  14.482  21.458  0.00  0.00    +0.000 A 
ATOM      8  O   UNL     1       2.978  14.864  22.611  0.00  0.00    +0.000 OA
ATOM      9  C   UNL     1       5.096  15.534  20.889  0.00  0.00    +0.000 C 
ATOM     10  N   UNL     1       6.138  15.346  19.870  0.00  0.00    +0.000 N 
ATOM     11  C   UNL     1       7.424  14.981  20.220  0.00  0.00    +0.000 C 
ATOM     12  O   UNL     1       7.726  14.965  21.410  0.00  0.00    +0.000 OA
ATOM     13  C   UNL     1       5.682  15.605  18.517  0.00  0.00    +0.000 C 
ATOM     14  C   UNL     1       4.688  14.507  18.123  0.00  0.00    +0.000 C 
ATOM     15  H   UNL     1      -0.497  13.006  19.884  0.00  0.00    +0.000 HD
ENDROOT
BRANCH  11  16
ATOM     16  C   UNL     1       8.523  14.612  19.255  0.00  0.00    +0.000 A 
ATOM     17  C   UNL     1       8.579  13.292  18.764  0.00  0.00    +0.000 A 
ATOM     18  C   UNL     1       9.575  12.898  17.863  0.00  0.00    +0.000 A 
ATOM     19  C   UNL     1      10.527  13.819  17.424  0.00  0.00    +0.000 A 
ATOM     20 CL   UNL     1      11.783  13.332  16.302  0.00  0.00    +0.000 Cl
ATOM     21  C   UNL     1      10.470  15.137  17.870  0.00  0.00    +0.000 A 
ATOM     22  C   UNL     1       9.479  15.531  18.767  0.00  0.00    +0.000 A 
ENDBRANCH  11  16
BRANCH   1  24
ATOM     23  C   UNL     1      -0.266  14.145  22.406  0.00  0.00    +0.000 C 
ATOM     24  O   UNL     1       0.872  13.410  22.078  0.00  0.00    +0.000 OA
ENDBRANCH   1  24
BRANCH   3  25
ATOM     25  C   UNL     1       0.260  11.752  18.339  0.00  0.00    +0.000 C 
BRANCH  25  26
ATOM     26  C   UNL     1       0.804  10.431  18.796  0.00  0.00    +0.000 A 
ATOM     27  C   UNL     1       1.577   9.648  17.929  0.00  0.00    +0.000 A 
ATOM     28  C   UNL     1       2.092   8.423  18.359  0.00  0.00    +0.000 A 
ATOM     29  C   UNL     1       1.834   7.969  19.658  0.00  0.00    +0.000 A 
ATOM     30 CL   UNL     1       2.478   6.429  20.195  0.00  0.00    +0.000 Cl
ATOM     31  C   UNL     1       1.065   8.747  20.529  0.00  0.00    +0.000 A 
ATOM     32  C   UNL     1       0.556   9.974  20.104  0.00  0.00    +0.000 A 
ENDBRANCH  25  26
ENDBRANCH   3  25
TORSDOF 4
ENDMDL
MODEL 7
REMARK VINA RESULT:      -7.2      5.618      8.721
REMARK  Name = 
REMARK  5 active torsions:
REMARK  status: ('A' for Active; 'I' for Inactive)
REMARK    1  A    between atoms: C_1  and  O_2
REMARK    2  A    between atoms: O_2  and  N_3
REMARK    3  A    between atoms: N_5  and  C_6
REMARK    4  A    between atoms: C_6  and  C_7
REMARK    5  A    between atoms: C_21  and  C_23
REMARK                            x       y       z     vdW  Elec       q    Type
REMARK                         _______ _______ _______ _____ _____    ______ ____
ROOT
ATOM      1  N   UNL     1       1.793  13.991  21.235  0.00  0.00    +0.000 N 
ATOM      2  C   UNL     1       1.592  13.580  19.942  0.00  0.00    +0.000 A 
ATOM      3  N   UNL     1       0.340  13.046  19.552  0.00  0.00    +0.000 N 
ATOM      4  N   UNL     1       2.562  13.762  19.011  0.00  0.00    +0.000 NA
ATOM      5  C   UNL     1       3.721  14.402  19.301  0.00  0.00    +0.000 A 
ATOM      6  C   UNL     1       3.946  14.885  20.606  0.00  0.00    +0.000 A 
ATOM      7  C   UNL     1       2.949  14.664  21.569  0.00  0.00    +0.000 A 
ATOM      8  O   UNL     1       3.121  15.040  22.718  0.00  0.00    +0.000 OA
ATOM      9  C   UNL     1       5.242  15.592  20.958  0.00  0.00    +0.000 C 
ATOM     10  N   UNL     1       6.255  15.347  19.921  0.00  0.00    +0.000 N 
ATOM     11  C   UNL     1       7.525  14.913  20.250  0.00  0.00    +0.000 C 
ATOM     12  O   UNL     1       7.846  14.882  21.434  0.00  0.00    +0.000 OA
ATOM     13  C   UNL     1       5.790  15.627  18.576  0.00  0.00    +0.000 C 
ATOM     14  C   UNL     1       4.731  14.585  18.202  0.00  0.00    +0.000 C 
ATOM     15  H   UNL     1      -0.496  13.368  20.056  0.00  0.00    +0.000 HD
ENDROOT
BRANCH  11  16
ATOM     16  C   UNL     1       8.585  14.483  19.267  0.00  0.00    +0.000 A 
ATOM     17  C   UNL     1       9.635  15.375  18.970  0.00  0.00    +0.000 A 
ATOM     18  C   UNL     1      10.648  15.024  18.069  0.00  0.00    +0.000 A 
ATOM     19  C   UNL     1      10.639  13.770  17.458  0.00  0.00    +0.000 A 
ATOM     20 CL   UNL     1      11.898  13.325  16.322  0.00  0.00    +0.000 Cl
ATOM     21  C   UNL     1       9.629  12.860  17.764  0.00  0.00    +0.000 A 
ATOM     22  C   UNL     1       8.621  13.207  18.660  0.00  0.00    +0.000 A 
ENDBRANCH  11  16
BRANCH   1  24
ATOM     23  C   UNL     1      -0.176  14.482  22.553  0.00  0.00    +0.000 C 
ATOM     24  O   UNL     1       0.931  13.701  22.225  0.00  0.00    +0.000 OA
ENDBRANCH   1  24
BRANCH   3  25
ATOM     25  C   UNL     1       0.165  12.073  18.502  0.00  0.00    +0.000 C 
BRANCH  25  26
ATOM     26  C   UNL     1       0.677  10.732  18.940  0.00  0.00    +0.000 A 
ATOM     27  C   UNL     1       0.401  10.258  20.229  0.00  0.00    +0.000 A 
ATOM     28  C   UNL     1       0.870   9.006  20.632  0.00  0.00    +0.000 A 
ATOM     29  C   UNL     1       1.621   8.219  19.750  0.00  0.00    +0.000 A 
ATOM     30 CL   UNL     1       2.212   6.649  20.258  0.00  0.00    +0.000 Cl
ATOM     31  C   UNL     1       1.897   8.686  18.461  0.00  0.00    +0.000 A 
ATOM     32  C   UNL     1       1.424   9.934  18.055  0.00  0.00    +0.000 A 
ENDBRANCH  25  26
ENDBRANCH   3  25
TORSDOF 4
ENDMDL
MODEL 8
REMARK VINA RESULT:      -7.1      4.901      7.913
REMARK  Name = 
REMARK  5 active torsions:
REMARK  status: ('A' for Active; 'I' for Inactive)
REMARK    1  A    between atoms: C_1  and  O_2
REMARK    2  A    between atoms: O_2  and  N_3
REMARK    3  A    between atoms: N_5  and  C_6
REMARK    4  A    between atoms: C_6  and  C_7
REMARK    5  A    between atoms: C_21  and  C_23
REMARK                            x       y       z     vdW  Elec       q    Type
REMARK                         _______ _______ _______ _____ _____    ______ ____
ROOT
ATOM      1  N   UNL     1       1.439  12.944  20.774  0.00  0.00    +0.000 N 
ATOM      2  C   UNL     1       1.566  12.446  19.502  0.00  0.00    +0.000 A 
ATOM      3  N   UNL     1       0.705  11.416  19.052  0.00  0.00    +0.000 N 
ATOM      4  N   UNL     1       2.458  12.997  18.641  0.00  0.00    +0.000 NA
ATOM      5  C   UNL     1       3.201  14.079  18.977  0.00  0.00    +0.000 A 
ATOM      6  C   UNL     1       3.065  14.652  20.258  0.00  0.00    +0.000 A 
ATOM      7  C   UNL     1       2.160  14.056  21.150  0.00  0.00    +0.000 A 
ATOM      8  O   UNL     1       2.037  14.505  22.279  0.00  0.00    +0.000 OA
ATOM      9  C   UNL     1       3.896  15.856  20.661  0.00  0.00    +0.000 C 
ATOM     10  N   UNL     1       5.019  16.036  19.730  0.00  0.00    +0.000 N 
ATOM     11  C   UNL     1       6.312  16.198  20.190  0.00  0.00    +0.000 C 
ATOM     12  O   UNL     1       6.491  16.343  21.396  0.00  0.00    +0.000 OA
ATOM     13  C   UNL     1       4.621  16.049  18.335  0.00  0.00    +0.000 C 
ATOM     14  C   UNL     1       4.147  14.643  17.953  0.00  0.00    +0.000 C 
ATOM     15  H   UNL     1      -0.236  11.365  19.462  0.00  0.00    +0.000 HD
ENDROOT
BRANCH  11  16
ATOM     16  C   UNL     1       7.550  16.233  19.330  0.00  0.00    +0.000 A 
ATOM     17  C   UNL     1       8.148  15.014  18.953  0.00  0.00    +0.000 A 
ATOM     18  C   UNL     1       9.295  14.990  18.151  0.00  0.00    +0.000 A 
ATOM     19  C   UNL     1       9.859  16.184  17.699  0.00  0.00    +0.000 A 
ATOM     20 CL   UNL     1      11.301  16.164  16.701  0.00  0.00    +0.000 Cl
ATOM     21  C   UNL     1       9.264  17.398  18.031  0.00  0.00    +0.000 A 
ATOM     22  C   UNL     1       8.122  17.424  18.829  0.00  0.00    +0.000 A 
ENDBRANCH  11  16
BRANCH   1  24
ATOM     23  C   UNL     1      -0.664  12.629  21.929  0.00  0.00    +0.000 C 
ATOM     24  O   UNL     1       0.683  12.343  21.710  0.00  0.00    +0.000 OA
ENDBRANCH   1  24
BRANCH   3  25
ATOM     25  C   UNL     1       1.067  10.430  18.064  0.00  0.00    +0.000 C 
BRANCH  25  26
ATOM     26  C   UNL     1       1.466   9.145  18.728  0.00  0.00    +0.000 A 
ATOM     27  C   UNL     1       1.089   8.889  20.053  0.00  0.00    +0.000 A 
ATOM     28  C   UNL     1       1.453   7.688  20.667  0.00  0.00    +0.000 A 
ATOM     29  C   UNL     1       2.200   6.736  19.963  0.00  0.00    +0.000 A 
ATOM     30 CL   UNL     1       2.659   5.232  20.736  0.00  0.00    +0.000 Cl
ATOM     31  C   UNL     1       2.577   6.986  18.639  0.00  0.00    +0.000 A 
ATOM     32  C   UNL     1       2.209   8.182  18.022  0.00  0.00    +0.000 A 
ENDBRANCH  25  26
ENDBRANCH   3  25
TORSDOF 4
ENDMDL
MODEL 9
REMARK VINA RESULT:      -7.1      2.381      3.032
REMARK  Name = 
REMARK  5 active torsions:
REMARK  status: ('A' for Active; 'I' for Inactive)
REMARK    1  A    between atoms: C_1  and  O_2
REMARK    2  A    between atoms: O_2  and  N_3
REMARK    3  A    between atoms: N_5  and  C_6
REMARK    4  A    between atoms: C_6  and  C_7
REMARK    5  A    between atoms: C_21  and  C_23
REMARK                            x       y       z     vdW  Elec       q    Type
REMARK                         _______ _______ _______ _____ _____    ______ ____
ROOT
ATOM      1  N   UNL     1       3.202   5.437  19.575  0.00  0.00    +0.000 N 
ATOM      2  C   UNL     1       3.681   5.774  18.334  0.00  0.00    +0.000 A 
ATOM      3  N   UNL     1       4.481   4.859  17.607  0.00  0.00    +0.000 N 
ATOM      4  N   UNL     1       3.320   6.950  17.762  0.00  0.00    +0.000 NA
ATOM      5  C   UNL     1       2.440   7.793  18.353  0.00  0.00    +0.000 A 
ATOM      6  C   UNL     1       1.886   7.460  19.606  0.00  0.00    +0.000 A 
ATOM      7  C   UNL     1       2.289   6.256  20.204  0.00  0.00    +0.000 A 
ATOM      8  O   UNL     1       1.855   5.948  21.303  0.00  0.00    +0.000 OA
ATOM      9  C   UNL     1       0.909   8.395  20.295  0.00  0.00    +0.000 C 
ATOM     10  N   UNL     1       0.959   9.729  19.679  0.00  0.00    +0.000 N 
ATOM     11  C   UNL     1       1.102  10.868  20.448  0.00  0.00    +0.000 C 
ATOM     12  O   UNL     1       1.033  10.763  21.669  0.00  0.00    +0.000 OA
ATOM     13  C   UNL     1       0.819   9.708  18.235  0.00  0.00    +0.000 C 
ATOM     14  C   UNL     1       2.074   9.064  17.636  0.00  0.00    +0.000 C 
ATOM     15  H   UNL     1       4.332   3.855  17.774  0.00  0.00    +0.000 HD
ENDROOT
BRANCH  11  16
ATOM     16  C   UNL     1       1.320  12.262  19.917  0.00  0.00    +0.000 A 
ATOM     17  C   UNL     1       2.251  12.453  18.876  0.00  0.00    +0.000 A 
ATOM     18  C   UNL     1       2.488  13.725  18.343  0.00  0.00    +0.000 A 
ATOM     19  C   UNL     1       1.789  14.831  18.830  0.00  0.00    +0.000 A 
ATOM     20 CL   UNL     1       2.086  16.430  18.174  0.00  0.00    +0.000 Cl
ATOM     21  C   UNL     1       0.840  14.660  19.834  0.00  0.00    +0.000 A 
ATOM     22  C   UNL     1       0.602  13.394  20.366  0.00  0.00    +0.000 A 
ENDBRANCH  11  16
BRANCH   1  24
ATOM     23  C   UNL     1       3.097   3.084  20.131  0.00  0.00    +0.000 C 
ATOM     24  O   UNL     1       3.644   4.361  20.249  0.00  0.00    +0.000 OA
ENDBRANCH   1  24
BRANCH   3  25
ATOM     25  C   UNL     1       5.496   5.244  16.658  0.00  0.00    +0.000 C 
BRANCH  25  26
ATOM     26  C   UNL     1       6.424   6.254  17.267  0.00  0.00    +0.000 A 
ATOM     27  C   UNL     1       7.334   5.868  18.260  0.00  0.00    +0.000 A 
ATOM     28  C   UNL     1       8.205   6.806  18.818  0.00  0.00    +0.000 A 
ATOM     29  C   UNL     1       8.170   8.139  18.390  0.00  0.00    +0.000 A 
ATOM     30 CL   UNL     1       9.260   9.317  19.094  0.00  0.00    +0.000 Cl
ATOM     31  C   UNL     1       7.266   8.530  17.397  0.00  0.00    +0.000 A 
ATOM     32  C   UNL     1       6.400   7.592  16.834  0.00  0.00    +0.000 A 
ENDBRANCH  25  26
ENDBRANCH   3  25
TORSDOF 4
ENDMDL
