MODEL 1
REMARK VINA RESULT:      -5.4      0.000      0.000
REMARK  Name = 
REMARK  6 active torsions:
REMARK  status: ('A' for Active; 'I' for Inactive)
REMARK    1  A    between atoms: C_1  and  C_2
REMARK    2  A    between atoms: N_4  and  C_5
REMARK    3  A    between atoms: C_5  and  CA_6
REMARK    4  A    between atoms: CA_6  and  N_7
REMARK    5  A    between atoms: CA_6  and  C_8
REMARK    6  A    between atoms: C_8  and  OXT_10
REMARK                            x       y       z     vdW  Elec       q    Type
REMARK                         _______ _______ _______ _____ _____    ______ ____
ROOT
ATOM      1  CA  UNL     1       6.922   4.831  17.674  0.00  0.00    +0.000 C 
ENDROOT
BRANCH   1   2
ATOM      2  N   UNL     1       8.233   4.111  17.629  0.00  0.00    +0.000 NA
ATOM      3  H1  UNL     1       8.648   4.286  16.706  0.00  0.00    +0.000 HD
ATOM      4  H2  UNL     1       8.032   3.106  17.591  0.00  0.00    +0.000 HD
ENDBRANCH   1   2
BRANCH   1   5
ATOM      5  C   UNL     1       6.295   4.633  19.066  0.00  0.00    +0.000 C 
ATOM      6  O   UNL     1       6.586   5.335  20.033  0.00  0.00    +0.000 OA
BRANCH   5   7
ATOM      7  OXT UNL     1       5.399   3.630  19.165  0.00  0.00    +0.000 OA
ATOM      8  HXT UNL     1       4.449   3.905  19.173  0.00  0.00    +0.000 HD
ENDBRANCH   5   7
ENDBRANCH   1   5
BRANCH   1   9
ATOM      9  C   UNL     1       6.013   4.277  16.572  0.00  0.00    +0.000 C 
BRANCH   9  13
ATOM     10  C   UNL     1       7.100   3.961  11.734  0.00  0.00    +0.000 C 
ATOM     11  C   UNL     1       6.916   4.400  13.128  0.00  0.00    +0.000 A 
ATOM     12  C   UNL     1       6.018   3.962  14.076  0.00  0.00    +0.000 A 
ATOM     13  N   UNL     1       6.428   4.581  15.219  0.00  0.00    +0.000 N 
ATOM     14  N   UNL     1       7.430   5.445  14.972  0.00  0.00    +0.000 NA
ATOM     15  N   UNL     1       7.738   5.341  13.689  0.00  0.00    +0.000 NA
ENDBRANCH   9  13
ENDBRANCH   1   9
TORSDOF 5
ENDMDL
MODEL 2
REMARK VINA RESULT:      -5.4      3.585      5.859
REMARK  Name = 
REMARK  6 active torsions:
REMARK  status: ('A' for Active; 'I' for Inactive)
REMARK    1  A    between atoms: C_1  and  C_2
REMARK    2  A    between atoms: N_4  and  C_5
REMARK    3  A    between atoms: C_5  and  CA_6
REMARK    4  A    between atoms: CA_6  and  N_7
REMARK    5  A    between atoms: CA_6  and  C_8
REMARK    6  A    between atoms: C_8  and  OXT_10
REMARK                            x       y       z     vdW  Elec       q    Type
REMARK                         _______ _______ _______ _____ _____    ______ ____
ROOT
ATOM      1  CA  UNL     1       5.762   4.723  17.208  0.00  0.00    +0.000 C 
ENDROOT
BRANCH   1   2
ATOM      2  N   UNL     1       5.239   3.388  16.780  0.00  0.00    +0.000 NA
ATOM      3  H1  UNL     1       4.216   3.419  16.857  0.00  0.00    +0.000 HD
ATOM      4  H2  UNL     1       5.493   2.710  17.506  0.00  0.00    +0.000 HD
ENDBRANCH   1   2
BRANCH   1   5
ATOM      5  C   UNL     1       7.236   4.840  16.778  0.00  0.00    +0.000 C 
ATOM      6  O   UNL     1       8.138   4.193  17.309  0.00  0.00    +0.000 OA
BRANCH   5   7
ATOM      7  OXT UNL     1       7.484   5.709  15.777  0.00  0.00    +0.000 OA
ATOM      8  HXT UNL     1       7.824   5.308  14.939  0.00  0.00    +0.000 HD
ENDBRANCH   5   7
ENDBRANCH   1   5
BRANCH   1   9
ATOM      9  C   UNL     1       5.616   4.849  18.728  0.00  0.00    +0.000 C 
BRANCH   9  13
ATOM     10  C   UNL     1       1.681   3.210  21.281  0.00  0.00    +0.000 C 
ATOM     11  C   UNL     1       2.900   3.330  20.462  0.00  0.00    +0.000 A 
ATOM     12  C   UNL     1       3.338   4.383  19.689  0.00  0.00    +0.000 A 
ATOM     13  N   UNL     1       4.596   4.010  19.321  0.00  0.00    +0.000 N 
ATOM     14  N   UNL     1       4.871   2.756  19.727  0.00  0.00    +0.000 NA
ATOM     15  N   UNL     1       3.834   2.329  20.429  0.00  0.00    +0.000 NA
ENDBRANCH   9  13
ENDBRANCH   1   9
TORSDOF 5
ENDMDL
MODEL 3
REMARK VINA RESULT:      -5.3      1.542      1.752
REMARK  Name = 
REMARK  6 active torsions:
REMARK  status: ('A' for Active; 'I' for Inactive)
REMARK    1  A    between atoms: C_1  and  C_2
REMARK    2  A    between atoms: N_4  and  C_5
REMARK    3  A    between atoms: C_5  and  CA_6
REMARK    4  A    between atoms: CA_6  and  N_7
REMARK    5  A    between atoms: CA_6  and  C_8
REMARK    6  A    between atoms: C_8  and  OXT_10
REMARK                            x       y       z     vdW  Elec       q    Type
REMARK                         _______ _______ _______ _____ _____    ______ ____
ROOT
ATOM      1  CA  UNL     1       6.839   5.650  18.543  0.00  0.00    +0.000 C 
ENDROOT
BRANCH   1   2
ATOM      2  N   UNL     1       7.414   5.468  19.913  0.00  0.00    +0.000 NA
ATOM      3  H1  UNL     1       8.389   5.791  19.883  0.00  0.00    +0.000 HD
ATOM      4  H2  UNL     1       7.523   4.460  20.071  0.00  0.00    +0.000 HD
ENDBRANCH   1   2
BRANCH   1   5
ATOM      5  C   UNL     1       5.304   5.568  18.634  0.00  0.00    +0.000 C 
ATOM      6  O   UNL     1       4.723   4.792  19.390  0.00  0.00    +0.000 OA
BRANCH   5   7
ATOM      7  OXT UNL     1       4.627   6.406  17.822  0.00  0.00    +0.000 OA
ATOM      8  HXT UNL     1       5.183   7.025  17.288  0.00  0.00    +0.000 HD
ENDBRANCH   5   7
ENDBRANCH   1   5
BRANCH   1   9
ATOM      9  C   UNL     1       7.399   4.562  17.621  0.00  0.00    +0.000 C 
BRANCH   9  13
ATOM     10  C   UNL     1       6.060   3.605  12.933  0.00  0.00    +0.000 C 
ATOM     11  C   UNL     1       6.486   4.239  14.193  0.00  0.00    +0.000 A 
ATOM     12  C   UNL     1       6.264   3.844  15.494  0.00  0.00    +0.000 A 
ATOM     13  N   UNL     1       7.041   4.693  16.225  0.00  0.00    +0.000 N 
ATOM     14  N   UNL     1       7.604   5.633  15.443  0.00  0.00    +0.000 NA
ATOM     15  N   UNL     1       7.269   5.362  14.192  0.00  0.00    +0.000 NA
ENDBRANCH   9  13
ENDBRANCH   1   9
TORSDOF 5
ENDMDL
MODEL 4
REMARK VINA RESULT:      -5.3      1.829      2.119
REMARK  Name = 
REMARK  6 active torsions:
REMARK  status: ('A' for Active; 'I' for Inactive)
REMARK    1  A    between atoms: C_1  and  C_2
REMARK    2  A    between atoms: N_4  and  C_5
REMARK    3  A    between atoms: C_5  and  CA_6
REMARK    4  A    between atoms: CA_6  and  N_7
REMARK    5  A    between atoms: CA_6  and  C_8
REMARK    6  A    between atoms: C_8  and  OXT_10
REMARK                            x       y       z     vdW  Elec       q    Type
REMARK                         _______ _______ _______ _____ _____    ______ ____
ROOT
ATOM      1  CA  UNL     1       5.215   4.955  18.532  0.00  0.00    +0.000 C 
ENDROOT
BRANCH   1   2
ATOM      2  N   UNL     1       6.466   4.134  18.535  0.00  0.00    +0.000 NA
ATOM      3  H1  UNL     1       6.327   3.365  19.202  0.00  0.00    +0.000 HD
ATOM      4  H2  UNL     1       7.198   4.689  18.991  0.00  0.00    +0.000 HD
ENDBRANCH   1   2
BRANCH   1   5
ATOM      5  C   UNL     1       4.029   4.051  18.146  0.00  0.00    +0.000 C 
ATOM      6  O   UNL     1       2.860   4.429  18.199  0.00  0.00    +0.000 OA
BRANCH   5   7
ATOM      7  OXT UNL     1       4.352   2.804  17.746  0.00  0.00    +0.000 OA
ATOM      8  HXT UNL     1       3.875   2.071  18.207  0.00  0.00    +0.000 HD
ENDBRANCH   5   7
ENDBRANCH   1   5
BRANCH   1   9
ATOM      9  C   UNL     1       5.380   6.108  17.537  0.00  0.00    +0.000 C 
BRANCH   9  13
ATOM     10  C   UNL     1       6.444   3.908  13.210  0.00  0.00    +0.000 C 
ATOM     11  C   UNL     1       6.440   4.754  14.416  0.00  0.00    +0.000 A 
ATOM     12  C   UNL     1       5.386   5.142  15.214  0.00  0.00    +0.000 A 
ATOM     13  N   UNL     1       5.990   5.750  16.274  0.00  0.00    +0.000 N 
ATOM     14  N   UNL     1       7.319   5.849  16.085  0.00  0.00    +0.000 NA
ATOM     15  N   UNL     1       7.606   5.240  14.946  0.00  0.00    +0.000 NA
ENDBRANCH   9  13
ENDBRANCH   1   9
TORSDOF 5
ENDMDL
MODEL 5
REMARK VINA RESULT:      -5.2      3.635      5.874
REMARK  Name = 
REMARK  6 active torsions:
REMARK  status: ('A' for Active; 'I' for Inactive)
REMARK    1  A    between atoms: C_1  and  C_2
REMARK    2  A    between atoms: N_4  and  C_5
REMARK    3  A    between atoms: C_5  and  CA_6
REMARK    4  A    between atoms: CA_6  and  N_7
REMARK    5  A    between atoms: CA_6  and  C_8
REMARK    6  A    between atoms: C_8  and  OXT_10
REMARK                            x       y       z     vdW  Elec       q    Type
REMARK                         _______ _______ _______ _____ _____    ______ ____
ROOT
ATOM      1  CA  UNL     1       5.993   4.857  17.472  0.00  0.00    +0.000 C 
ENDROOT
BRANCH   1   2
ATOM      2  N   UNL     1       7.275   4.340  18.046  0.00  0.00    +0.000 NA
ATOM      3  H1  UNL     1       7.706   3.733  17.338  0.00  0.00    +0.000 HD
ATOM      4  H2  UNL     1       7.035   3.674  18.788  0.00  0.00    +0.000 HD
ENDBRANCH   1   2
BRANCH   1   5
ATOM      5  C   UNL     1       6.311   6.020  16.514  0.00  0.00    +0.000 C 
ATOM      6  O   UNL     1       5.467   6.522  15.775  0.00  0.00    +0.000 OA
BRANCH   5   7
ATOM      7  OXT UNL     1       7.587   6.458  16.531  0.00  0.00    +0.000 OA
ATOM      8  HXT UNL     1       7.907   6.871  15.692  0.00  0.00    +0.000 HD
ENDBRANCH   5   7
ENDBRANCH   1   5
BRANCH   1   9
ATOM      9  C   UNL     1       5.085   5.314  18.618  0.00  0.00    +0.000 C 
BRANCH   9  13
ATOM     10  C   UNL     1       1.860   2.810  21.450  0.00  0.00    +0.000 C 
ATOM     11  C   UNL     1       2.934   3.207  20.523  0.00  0.00    +0.000 A 
ATOM     12  C   UNL     1       3.066   4.354  19.771  0.00  0.00    +0.000 A 
ATOM     13  N   UNL     1       4.326   4.262  19.261  0.00  0.00    +0.000 N 
ATOM     14  N   UNL     1       4.890   3.079  19.566  0.00  0.00    +0.000 NA
ATOM     15  N   UNL     1       4.041   2.423  20.342  0.00  0.00    +0.000 NA
ENDBRANCH   9  13
ENDBRANCH   1   9
TORSDOF 5
ENDMDL
MODEL 6
REMARK VINA RESULT:      -5.2      3.516      5.805
REMARK  Name = 
REMARK  6 active torsions:
REMARK  status: ('A' for Active; 'I' for Inactive)
REMARK    1  A    between atoms: C_1  and  C_2
REMARK    2  A    between atoms: N_4  and  C_5
REMARK    3  A    between atoms: C_5  and  CA_6
REMARK    4  A    between atoms: CA_6  and  N_7
REMARK    5  A    between atoms: CA_6  and  C_8
REMARK    6  A    between atoms: C_8  and  OXT_10
REMARK                            x       y       z     vdW  Elec       q    Type
REMARK                         _______ _______ _______ _____ _____    ______ ____
ROOT
ATOM      1  CA  UNL     1       5.294   5.198  17.115  0.00  0.00    +0.000 C 
ENDROOT
BRANCH   1   2
ATOM      2  N   UNL     1       4.697   3.906  16.651  0.00  0.00    +0.000 NA
ATOM      3  H1  UNL     1       3.677   4.030  16.627  0.00  0.00    +0.000 HD
ATOM      4  H2  UNL     1       4.816   3.222  17.406  0.00  0.00    +0.000 HD
ENDBRANCH   1   2
BRANCH   1   5
ATOM      5  C   UNL     1       6.827   5.105  17.001  0.00  0.00    +0.000 C 
ATOM      6  O   UNL     1       7.477   5.781  16.206  0.00  0.00    +0.000 OA
BRANCH   5   7
ATOM      7  OXT UNL     1       7.421   4.224  17.832  0.00  0.00    +0.000 OA
ATOM      8  HXT UNL     1       6.871   3.443  18.090  0.00  0.00    +0.000 HD
ENDBRANCH   5   7
ENDBRANCH   1   5
BRANCH   1   9
ATOM      9  C   UNL     1       4.859   5.455  18.561  0.00  0.00    +0.000 C 
BRANCH   9  13
ATOM     10  C   UNL     1       1.994   2.659  21.504  0.00  0.00    +0.000 C 
ATOM     11  C   UNL     1       2.984   3.155  20.532  0.00  0.00    +0.000 A 
ATOM     12  C   UNL     1       2.984   4.319  19.795  0.00  0.00    +0.000 A 
ATOM     13  N   UNL     1       4.220   4.336  19.221  0.00  0.00    +0.000 N 
ATOM     14  N   UNL     1       4.892   3.198  19.477  0.00  0.00    +0.000 NA
ATOM     15  N   UNL     1       4.140   2.465  20.282  0.00  0.00    +0.000 NA
ENDBRANCH   9  13
ENDBRANCH   1   9
TORSDOF 5
ENDMDL
MODEL 7
REMARK VINA RESULT:      -5.2      4.226      5.299
REMARK  Name = 
REMARK  6 active torsions:
REMARK  status: ('A' for Active; 'I' for Inactive)
REMARK    1  A    between atoms: C_1  and  C_2
REMARK    2  A    between atoms: N_4  and  C_5
REMARK    3  A    between atoms: C_5  and  CA_6
REMARK    4  A    between atoms: CA_6  and  N_7
REMARK    5  A    between atoms: CA_6  and  C_8
REMARK    6  A    between atoms: C_8  and  OXT_10
REMARK                            x       y       z     vdW  Elec       q    Type
REMARK                         _______ _______ _______ _____ _____    ______ ____
ROOT
ATOM      1  CA  UNL     1       2.761   2.666  19.643  0.00  0.00    +0.000 C 
ENDROOT
BRANCH   1   2
ATOM      2  N   UNL     1       2.150   1.672  18.705  0.00  0.00    +0.000 NA
ATOM      3  H1  UNL     1       2.215   2.063  17.758  0.00  0.00    +0.000 HD
ATOM      4  H2  UNL     1       1.138   1.672  18.872  0.00  0.00    +0.000 HD
ENDBRANCH   1   2
BRANCH   1   5
ATOM      5  C   UNL     1       1.837   2.829  20.864  0.00  0.00    +0.000 C 
ATOM      6  O   UNL     1       2.236   2.709  22.021  0.00  0.00    +0.000 OA
BRANCH   5   7
ATOM      7  OXT UNL     1       0.547   3.110  20.587  0.00  0.00    +0.000 OA
ATOM      8  HXT UNL     1      -0.095   2.378  20.757  0.00  0.00    +0.000 HD
ENDBRANCH   5   7
ENDBRANCH   1   5
BRANCH   1   9
ATOM      9  C   UNL     1       2.945   3.996  18.906  0.00  0.00    +0.000 C 
BRANCH   9  13
ATOM     10  C   UNL     1       7.111   6.445  17.749  0.00  0.00    +0.000 C 
ATOM     11  C   UNL     1       6.093   5.575  18.362  0.00  0.00    +0.000 A 
ATOM     12  C   UNL     1       4.720   5.694  18.362  0.00  0.00    +0.000 A 
ATOM     13  N   UNL     1       4.295   4.521  18.909  0.00  0.00    +0.000 N 
ATOM     14  N   UNL     1       5.332   3.780  19.340  0.00  0.00    +0.000 NA
ATOM     15  N   UNL     1       6.443   4.420  19.009  0.00  0.00    +0.000 NA
ENDBRANCH   9  13
ENDBRANCH   1   9
TORSDOF 5
ENDMDL
MODEL 8
REMARK VINA RESULT:      -5.2      3.040      4.079
REMARK  Name = 
REMARK  6 active torsions:
REMARK  status: ('A' for Active; 'I' for Inactive)
REMARK    1  A    between atoms: C_1  and  C_2
REMARK    2  A    between atoms: N_4  and  C_5
REMARK    3  A    between atoms: C_5  and  CA_6
REMARK    4  A    between atoms: CA_6  and  N_7
REMARK    5  A    between atoms: CA_6  and  C_8
REMARK    6  A    between atoms: C_8  and  OXT_10
REMARK                            x       y       z     vdW  Elec       q    Type
REMARK                         _______ _______ _______ _____ _____    ______ ____
ROOT
ATOM      1  CA  UNL     1       3.610   3.150  19.633  0.00  0.00    +0.000 C 
ENDROOT
BRANCH   1   2
ATOM      2  N   UNL     1       4.782   2.220  19.661  0.00  0.00    +0.000 NA
ATOM      3  H1  UNL     1       4.473   1.325  19.262  0.00  0.00    +0.000 HD
ATOM      4  H2  UNL     1       4.957   1.974  20.641  0.00  0.00    +0.000 HD
ENDBRANCH   1   2
BRANCH   1   5
ATOM      5  C   UNL     1       2.697   2.763  18.455  0.00  0.00    +0.000 C 
ATOM      6  O   UNL     1       1.994   3.580  17.861  0.00  0.00    +0.000 OA
BRANCH   5   7
ATOM      7  OXT UNL     1       2.709   1.459  18.111  0.00  0.00    +0.000 OA
ATOM      8  HXT UNL     1       3.316   0.884  18.641  0.00  0.00    +0.000 HD
ENDBRANCH   5   7
ENDBRANCH   1   5
BRANCH   1   9
ATOM      9  C   UNL     1       4.121   4.588  19.490  0.00  0.00    +0.000 C 
BRANCH   9  13
ATOM     10  C   UNL     1       7.099   4.701  15.514  0.00  0.00    +0.000 C 
ATOM     11  C   UNL     1       6.531   4.762  16.872  0.00  0.00    +0.000 A 
ATOM     12  C   UNL     1       5.234   5.000  17.272  0.00  0.00    +0.000 A 
ATOM     13  N   UNL     1       5.260   4.752  18.612  0.00  0.00    +0.000 N 
ATOM     14  N   UNL     1       6.513   4.505  19.038  0.00  0.00    +0.000 NA
ATOM     15  N   UNL     1       7.302   4.510  17.975  0.00  0.00    +0.000 NA
ENDBRANCH   9  13
ENDBRANCH   1   9
TORSDOF 5
ENDMDL
MODEL 9
REMARK VINA RESULT:      -5.1      3.093      4.544
REMARK  Name = 
REMARK  6 active torsions:
REMARK  status: ('A' for Active; 'I' for Inactive)
REMARK    1  A    between atoms: C_1  and  C_2
REMARK    2  A    between atoms: N_4  and  C_5
REMARK    3  A    between atoms: C_5  and  CA_6
REMARK    4  A    between atoms: CA_6  and  N_7
REMARK    5  A    between atoms: CA_6  and  C_8
REMARK    6  A    between atoms: C_8  and  OXT_10
REMARK                            x       y       z     vdW  Elec       q    Type
REMARK                         _______ _______ _______ _____ _____    ______ ____
ROOT
ATOM      1  CA  UNL     1       6.450   5.393  16.811  0.00  0.00    +0.000 C 
ENDROOT
BRANCH   1   2
ATOM      2  N   UNL     1       7.407   5.660  15.693  0.00  0.00    +0.000 NA
ATOM      3  H1  UNL     1       7.824   4.761  15.424  0.00  0.00    +0.000 HD
ATOM      4  H2  UNL     1       8.209   6.164  16.087  0.00  0.00    +0.000 HD
ENDBRANCH   1   2
BRANCH   1   5
ATOM      5  C   UNL     1       7.230   4.812  18.005  0.00  0.00    +0.000 C 
ATOM      6  O   UNL     1       6.923   5.038  19.174  0.00  0.00    +0.000 OA
BRANCH   5   7
ATOM      7  OXT UNL     1       8.286   4.034  17.688  0.00  0.00    +0.000 OA
ATOM      8  HXT UNL     1       8.972   3.939  18.393  0.00  0.00    +0.000 HD
ENDBRANCH   5   7
ENDBRANCH   1   5
BRANCH   1   9
ATOM      9  C   UNL     1       5.375   4.418  16.323  0.00  0.00    +0.000 C 
BRANCH   9  13
ATOM     10  C   UNL     1       1.206   2.843  18.520  0.00  0.00    +0.000 C 
ATOM     11  C   UNL     1       2.384   3.612  18.083  0.00  0.00    +0.000 A 
ATOM     12  C   UNL     1       3.581   3.167  17.566  0.00  0.00    +0.000 A 
ATOM     13  N   UNL     1       4.207   4.311  17.171  0.00  0.00    +0.000 N 
ATOM     14  N   UNL     1       3.505   5.400  17.535  0.00  0.00    +0.000 NA
ATOM     15  N   UNL     1       2.382   4.981  18.097  0.00  0.00    +0.000 NA
ENDBRANCH   9  13
ENDBRANCH   1   9
TORSDOF 5
ENDMDL
