MODEL 1
REMARK VINA RESULT:      -7.4      0.000      0.000
REMARK  Name = 
REMARK  7 active torsions:
REMARK  status: ('A' for Active; 'I' for Inactive)
REMARK    1  A    between atoms: C_1  and  C_2
REMARK    2  A    between atoms: C_2  and  N_3
REMARK    3  A    between atoms: N_3  and  C_4
REMARK    4  A    between atoms: C_4  and  C_5
REMARK    5  A    between atoms: C_5  and  C_6
REMARK    6  A    between atoms: C_10  and  C_12
REMARK    7  A    between atoms: C_15  and  C_16
REMARK                            x       y       z     vdW  Elec       q    Type
REMARK                         _______ _______ _______ _____ _____    ______ ____
ROOT
ATOM      1  N   UNL     1       6.378   6.127  17.836  0.00  0.00    +0.000 N 
ATOM      2  C   UNL     1       6.063   5.414  19.022  0.00  0.00    +0.000 C 
ATOM      3  O   UNL     1       6.882   5.270  19.931  0.00  0.00    +0.000 OA
ENDROOT
BRANCH   2   4
ATOM      4  C   UNL     1       4.691   4.869  19.279  0.00  0.00    +0.000 A 
ATOM      5  C   UNL     1       3.589   5.642  19.665  0.00  0.00    +0.000 A 
ATOM      6  C   UNL     1       2.367   5.043  19.990  0.00  0.00    +0.000 A 
ATOM      7  C   UNL     1       2.198   3.663  19.850  0.00  0.00    +0.000 A 
ATOM      8  C   UNL     1       0.894   3.008  20.183  0.00  0.00    +0.000 C 
ATOM      9  C   UNL     1       3.265   2.913  19.352  0.00  0.00    +0.000 A 
ATOM     10  F   UNL     1       3.106   1.598  19.138  0.00  0.00    +0.000 F 
ATOM     11  C   UNL     1       4.498   3.496  19.078  0.00  0.00    +0.000 A 
ENDBRANCH   2   4
BRANCH   1  13
ATOM     12  C   UNL     1       7.701   8.253  17.608  0.00  0.00    +0.000 C 
ATOM     13  C   UNL     1       7.713   6.741  17.804  0.00  0.00    +0.000 C 
ENDBRANCH   1  13
BRANCH   1  14
ATOM     14  C   UNL     1       5.378   6.456  16.811  0.00  0.00    +0.000 C 
BRANCH  14  15
ATOM     15  C   UNL     1       5.550   5.968  15.380  0.00  0.00    +0.000 C 
BRANCH  15  16
ATOM     16  C   UNL     1       5.367   4.462  15.317  0.00  0.00    +0.000 C 
ATOM     17  F   UNL     1       6.435   3.787  15.800  0.00  0.00    +0.000 F 
ATOM     18  F   UNL     1       4.292   4.080  16.038  0.00  0.00    +0.000 F 
ATOM     19  F   UNL     1       5.174   4.050  14.042  0.00  0.00    +0.000 F 
ENDBRANCH  15  16
ENDBRANCH  14  15
ENDBRANCH   1  14
TORSDOF 5
ENDMDL
MODEL 2
REMARK VINA RESULT:      -7.2      1.107      1.560
REMARK  Name = 
REMARK  7 active torsions:
REMARK  status: ('A' for Active; 'I' for Inactive)
REMARK    1  A    between atoms: C_1  and  C_2
REMARK    2  A    between atoms: C_2  and  N_3
REMARK    3  A    between atoms: N_3  and  C_4
REMARK    4  A    between atoms: C_4  and  C_5
REMARK    5  A    between atoms: C_5  and  C_6
REMARK    6  A    between atoms: C_10  and  C_12
REMARK    7  A    between atoms: C_15  and  C_16
REMARK                            x       y       z     vdW  Elec       q    Type
REMARK                         _______ _______ _______ _____ _____    ______ ____
ROOT
ATOM      1  N   UNL     1       6.349   6.072  17.744  0.00  0.00    +0.000 N 
ATOM      2  C   UNL     1       6.132   5.384  18.967  0.00  0.00    +0.000 C 
ATOM      3  O   UNL     1       6.989   5.342  19.850  0.00  0.00    +0.000 OA
ENDROOT
BRANCH   2   4
ATOM      4  C   UNL     1       4.817   4.743  19.293  0.00  0.00    +0.000 A 
ATOM      5  C   UNL     1       4.564   3.368  19.216  0.00  0.00    +0.000 A 
ATOM      6  C   UNL     1       3.279   2.858  19.435  0.00  0.00    +0.000 A 
ATOM      7  C   UNL     1       2.240   3.707  19.821  0.00  0.00    +0.000 A 
ATOM      8  C   UNL     1       0.862   3.177  20.069  0.00  0.00    +0.000 C 
ATOM      9  C   UNL     1       2.526   5.060  20.011  0.00  0.00    +0.000 A 
ATOM     10  F   UNL     1       1.565   5.885  20.453  0.00  0.00    +0.000 F 
ATOM     11  C   UNL     1       3.789   5.581  19.744  0.00  0.00    +0.000 A 
ENDBRANCH   2   4
BRANCH   1  13
ATOM     12  C   UNL     1       7.496   8.307  17.652  0.00  0.00    +0.000 C 
ATOM     13  C   UNL     1       7.628   6.788  17.640  0.00  0.00    +0.000 C 
ENDBRANCH   1  13
BRANCH   1  14
ATOM     14  C   UNL     1       5.292   6.279  16.744  0.00  0.00    +0.000 C 
BRANCH  14  15
ATOM     15  C   UNL     1       5.522   5.900  15.288  0.00  0.00    +0.000 C 
BRANCH  15  16
ATOM     16  C   UNL     1       5.410   4.395  15.117  0.00  0.00    +0.000 C 
ATOM     17  F   UNL     1       6.576   3.756  15.364  0.00  0.00    +0.000 F 
ATOM     18  F   UNL     1       4.487   3.885  15.959  0.00  0.00    +0.000 F 
ATOM     19  F   UNL     1       5.036   4.078  13.856  0.00  0.00    +0.000 F 
ENDBRANCH  15  16
ENDBRANCH  14  15
ENDBRANCH   1  14
TORSDOF 5
ENDMDL
MODEL 3
REMARK VINA RESULT:      -7.0      1.017      1.195
REMARK  Name = 
REMARK  7 active torsions:
REMARK  status: ('A' for Active; 'I' for Inactive)
REMARK    1  A    between atoms: C_1  and  C_2
REMARK    2  A    between atoms: C_2  and  N_3
REMARK    3  A    between atoms: N_3  and  C_4
REMARK    4  A    between atoms: C_4  and  C_5
REMARK    5  A    between atoms: C_5  and  C_6
REMARK    6  A    between atoms: C_10  and  C_12
REMARK    7  A    between atoms: C_15  and  C_16
REMARK                            x       y       z     vdW  Elec       q    Type
REMARK                         _______ _______ _______ _____ _____    ______ ____
ROOT
ATOM      1  N   UNL     1       6.424   6.084  17.742  0.00  0.00    +0.000 N 
ATOM      2  C   UNL     1       5.907   5.336  18.832  0.00  0.00    +0.000 C 
ATOM      3  O   UNL     1       6.525   5.218  19.891  0.00  0.00    +0.000 OA
ENDROOT
BRANCH   2   4
ATOM      4  C   UNL     1       4.543   4.716  18.793  0.00  0.00    +0.000 A 
ATOM      5  C   UNL     1       3.354   5.397  19.080  0.00  0.00    +0.000 A 
ATOM      6  C   UNL     1       2.130   4.721  19.126  0.00  0.00    +0.000 A 
ATOM      7  C   UNL     1       2.059   3.364  18.799  0.00  0.00    +0.000 A 
ATOM      8  C   UNL     1       0.757   2.629  18.832  0.00  0.00    +0.000 C 
ATOM      9  C   UNL     1       3.231   2.719  18.398  0.00  0.00    +0.000 A 
ATOM     10  F   UNL     1       3.180   1.437  18.008  0.00  0.00    +0.000 F 
ATOM     11  C   UNL     1       4.459   3.374  18.402  0.00  0.00    +0.000 A 
ENDBRANCH   2   4
BRANCH   1  13
ATOM     12  C   UNL     1       7.720   8.231  17.570  0.00  0.00    +0.000 C 
ATOM     13  C   UNL     1       7.700   6.767  17.993  0.00  0.00    +0.000 C 
ENDBRANCH   1  13
BRANCH   1  14
ATOM     14  C   UNL     1       5.643   6.379  16.532  0.00  0.00    +0.000 C 
BRANCH  14  15
ATOM     15  C   UNL     1       5.342   5.282  15.521  0.00  0.00    +0.000 C 
BRANCH  15  16
ATOM     16  C   UNL     1       6.621   4.552  15.148  0.00  0.00    +0.000 C 
ATOM     17  F   UNL     1       7.133   3.841  16.177  0.00  0.00    +0.000 F 
ATOM     18  F   UNL     1       6.400   3.688  14.135  0.00  0.00    +0.000 F 
ATOM     19  F   UNL     1       7.576   5.422  14.745  0.00  0.00    +0.000 F 
ENDBRANCH  15  16
ENDBRANCH  14  15
ENDBRANCH   1  14
TORSDOF 5
ENDMDL
MODEL 4
REMARK VINA RESULT:      -7.0      1.406      1.958
REMARK  Name = 
REMARK  7 active torsions:
REMARK  status: ('A' for Active; 'I' for Inactive)
REMARK    1  A    between atoms: C_1  and  C_2
REMARK    2  A    between atoms: C_2  and  N_3
REMARK    3  A    between atoms: N_3  and  C_4
REMARK    4  A    between atoms: C_4  and  C_5
REMARK    5  A    between atoms: C_5  and  C_6
REMARK    6  A    between atoms: C_10  and  C_12
REMARK    7  A    between atoms: C_15  and  C_16
REMARK                            x       y       z     vdW  Elec       q    Type
REMARK                         _______ _______ _______ _____ _____    ______ ____
ROOT
ATOM      1  N   UNL     1       6.265   5.575  17.618  0.00  0.00    +0.000 N 
ATOM      2  C   UNL     1       6.031   5.155  18.953  0.00  0.00    +0.000 C 
ATOM      3  O   UNL     1       6.867   5.322  19.843  0.00  0.00    +0.000 OA
ENDROOT
BRANCH   2   4
ATOM      4  C   UNL     1       4.723   4.563  19.381  0.00  0.00    +0.000 A 
ATOM      5  C   UNL     1       4.456   3.190  19.446  0.00  0.00    +0.000 A 
ATOM      6  C   UNL     1       3.175   2.719  19.752  0.00  0.00    +0.000 A 
ATOM      7  C   UNL     1       2.155   3.613  20.087  0.00  0.00    +0.000 A 
ATOM      8  C   UNL     1       0.782   3.125  20.428  0.00  0.00    +0.000 C 
ATOM      9  C   UNL     1       2.459   4.974  20.135  0.00  0.00    +0.000 A 
ATOM     10  F   UNL     1       1.519   5.849  20.524  0.00  0.00    +0.000 F 
ATOM     11  C   UNL     1       3.716   5.452  19.780  0.00  0.00    +0.000 A 
ENDBRANCH   2   4
BRANCH   1  13
ATOM     12  C   UNL     1       7.408   7.806  17.419  0.00  0.00    +0.000 C 
ATOM     13  C   UNL     1       7.531   6.286  17.391  0.00  0.00    +0.000 C 
ENDBRANCH   1  13
BRANCH   1  14
ATOM     14  C   UNL     1       5.230   5.540  16.575  0.00  0.00    +0.000 C 
BRANCH  14  15
ATOM     15  C   UNL     1       4.978   4.268  15.780  0.00  0.00    +0.000 C 
BRANCH  15  16
ATOM     16  C   UNL     1       5.710   4.330  14.450  0.00  0.00    +0.000 C 
ATOM     17  F   UNL     1       4.890   4.125  13.395  0.00  0.00    +0.000 F 
ATOM     18  F   UNL     1       6.289   5.538  14.279  0.00  0.00    +0.000 F 
ATOM     19  F   UNL     1       6.686   3.395  14.389  0.00  0.00    +0.000 F 
ENDBRANCH  15  16
ENDBRANCH  14  15
ENDBRANCH   1  14
TORSDOF 5
ENDMDL
MODEL 5
REMARK VINA RESULT:      -6.9      0.681      1.189
REMARK  Name = 
REMARK  7 active torsions:
REMARK  status: ('A' for Active; 'I' for Inactive)
REMARK    1  A    between atoms: C_1  and  C_2
REMARK    2  A    between atoms: C_2  and  N_3
REMARK    3  A    between atoms: N_3  and  C_4
REMARK    4  A    between atoms: C_4  and  C_5
REMARK    5  A    between atoms: C_5  and  C_6
REMARK    6  A    between atoms: C_10  and  C_12
REMARK    7  A    between atoms: C_15  and  C_16
REMARK                            x       y       z     vdW  Elec       q    Type
REMARK                         _______ _______ _______ _____ _____    ______ ____
ROOT
ATOM      1  N   UNL     1       6.193   5.603  17.581  0.00  0.00    +0.000 N 
ATOM      2  C   UNL     1       5.882   5.241  18.918  0.00  0.00    +0.000 C 
ATOM      3  O   UNL     1       6.698   5.366  19.832  0.00  0.00    +0.000 OA
ENDROOT
BRANCH   2   4
ATOM      4  C   UNL     1       4.516   4.769  19.314  0.00  0.00    +0.000 A 
ATOM      5  C   UNL     1       3.506   5.596  19.820  0.00  0.00    +0.000 A 
ATOM      6  C   UNL     1       2.293   5.061  20.267  0.00  0.00    +0.000 A 
ATOM      7  C   UNL     1       2.033   3.695  20.136  0.00  0.00    +0.000 A 
ATOM      8  C   UNL     1       0.737   3.107  20.600  0.00  0.00    +0.000 C 
ATOM      9  C   UNL     1       2.998   2.894  19.524  0.00  0.00    +0.000 A 
ATOM     10  F   UNL     1       2.745   1.592  19.318  0.00  0.00    +0.000 F 
ATOM     11  C   UNL     1       4.226   3.411  19.125  0.00  0.00    +0.000 A 
ENDBRANCH   2   4
BRANCH   1  13
ATOM     12  C   UNL     1       7.561   7.712  17.594  0.00  0.00    +0.000 C 
ATOM     13  C   UNL     1       7.519   6.203  17.382  0.00  0.00    +0.000 C 
ENDBRANCH   1  13
BRANCH   1  14
ATOM     14  C   UNL     1       5.193   5.621  16.504  0.00  0.00    +0.000 C 
BRANCH  14  15
ATOM     15  C   UNL     1       5.627   5.738  15.050  0.00  0.00    +0.000 C 
BRANCH  15  16
ATOM     16  C   UNL     1       5.885   4.359  14.470  0.00  0.00    +0.000 C 
ATOM     17  F   UNL     1       4.966   4.005  13.543  0.00  0.00    +0.000 F 
ATOM     18  F   UNL     1       7.095   4.309  13.874  0.00  0.00    +0.000 F 
ATOM     19  F   UNL     1       5.865   3.414  15.438  0.00  0.00    +0.000 F 
ENDBRANCH  15  16
ENDBRANCH  14  15
ENDBRANCH   1  14
TORSDOF 5
ENDMDL
MODEL 6
REMARK VINA RESULT:      -6.8      2.621      5.296
REMARK  Name = 
REMARK  7 active torsions:
REMARK  status: ('A' for Active; 'I' for Inactive)
REMARK    1  A    between atoms: C_1  and  C_2
REMARK    2  A    between atoms: C_2  and  N_3
REMARK    3  A    between atoms: N_3  and  C_4
REMARK    4  A    between atoms: C_4  and  C_5
REMARK    5  A    between atoms: C_5  and  C_6
REMARK    6  A    between atoms: C_10  and  C_12
REMARK    7  A    between atoms: C_15  and  C_16
REMARK                            x       y       z     vdW  Elec       q    Type
REMARK                         _______ _______ _______ _____ _____    ______ ____
ROOT
ATOM      1  N   UNL     1       3.162   3.654  20.325  0.00  0.00    +0.000 N 
ATOM      2  C   UNL     1       4.337   3.142  19.715  0.00  0.00    +0.000 C 
ATOM      3  O   UNL     1       4.946   2.180  20.183  0.00  0.00    +0.000 OA
ENDROOT
BRANCH   2   4
ATOM      4  C   UNL     1       4.858   3.685  18.419  0.00  0.00    +0.000 A 
ATOM      5  C   UNL     1       4.260   3.472  17.171  0.00  0.00    +0.000 A 
ATOM      6  C   UNL     1       4.867   3.923  15.994  0.00  0.00    +0.000 A 
ATOM      7  C   UNL     1       6.044   4.675  16.050  0.00  0.00    +0.000 A 
ATOM      8  C   UNL     1       6.701   5.174  14.801  0.00  0.00    +0.000 C 
ATOM      9  C   UNL     1       6.572   4.984  17.305  0.00  0.00    +0.000 A 
ATOM     10  F   UNL     1       7.659   5.765  17.391  0.00  0.00    +0.000 F 
ATOM     11  C   UNL     1       6.001   4.494  18.475  0.00  0.00    +0.000 A 
ENDBRANCH   2   4
BRANCH   1  13
ATOM     12  C   UNL     1       1.174   2.720  21.549  0.00  0.00    +0.000 C 
ATOM     13  C   UNL     1       2.686   2.911  21.500  0.00  0.00    +0.000 C 
ENDBRANCH   1  13
BRANCH   1  14
ATOM     14  C   UNL     1       2.324   4.690  19.705  0.00  0.00    +0.000 C 
BRANCH  14  15
ATOM     15  C   UNL     1       2.796   6.135  19.653  0.00  0.00    +0.000 C 
BRANCH  15  16
ATOM     16  C   UNL     1       2.611   6.695  18.253  0.00  0.00    +0.000 C 
ATOM     17  F   UNL     1       1.972   7.886  18.250  0.00  0.00    +0.000 F 
ATOM     18  F   UNL     1       3.805   6.880  17.650  0.00  0.00    +0.000 F 
ATOM     19  F   UNL     1       1.889   5.848  17.483  0.00  0.00    +0.000 F 
ENDBRANCH  15  16
ENDBRANCH  14  15
ENDBRANCH   1  14
TORSDOF 5
ENDMDL
MODEL 7
REMARK VINA RESULT:      -6.7      1.177      1.785
REMARK  Name = 
REMARK  7 active torsions:
REMARK  status: ('A' for Active; 'I' for Inactive)
REMARK    1  A    between atoms: C_1  and  C_2
REMARK    2  A    between atoms: C_2  and  N_3
REMARK    3  A    between atoms: N_3  and  C_4
REMARK    4  A    between atoms: C_4  and  C_5
REMARK    5  A    between atoms: C_5  and  C_6
REMARK    6  A    between atoms: C_10  and  C_12
REMARK    7  A    between atoms: C_15  and  C_16
REMARK                            x       y       z     vdW  Elec       q    Type
REMARK                         _______ _______ _______ _____ _____    ______ ____
ROOT
ATOM      1  N   UNL     1       6.645   5.987  17.882  0.00  0.00    +0.000 N 
ATOM      2  C   UNL     1       6.212   5.252  19.016  0.00  0.00    +0.000 C 
ATOM      3  O   UNL     1       6.846   5.251  20.073  0.00  0.00    +0.000 OA
ENDROOT
BRANCH   2   4
ATOM      4  C   UNL     1       4.914   4.502  19.027  0.00  0.00    +0.000 A 
ATOM      5  C   UNL     1       4.792   3.131  19.280  0.00  0.00    +0.000 A 
ATOM      6  C   UNL     1       3.556   2.484  19.166  0.00  0.00    +0.000 A 
ATOM      7  C   UNL     1       2.400   3.216  18.882  0.00  0.00    +0.000 A 
ATOM      8  C   UNL     1       1.069   2.542  18.767  0.00  0.00    +0.000 C 
ATOM      9  C   UNL     1       2.511   4.601  18.747  0.00  0.00    +0.000 A 
ATOM     10  F   UNL     1       1.407   5.337  18.548  0.00  0.00    +0.000 F 
ATOM     11  C   UNL     1       3.745   5.241  18.808  0.00  0.00    +0.000 A 
ENDBRANCH   2   4
BRANCH   1  13
ATOM     12  C   UNL     1       7.716   8.245  17.608  0.00  0.00    +0.000 C 
ATOM     13  C   UNL     1       7.852   6.802  18.082  0.00  0.00    +0.000 C 
ENDBRANCH   1  13
BRANCH   1  14
ATOM     14  C   UNL     1       5.831   6.139  16.669  0.00  0.00    +0.000 C 
BRANCH  14  15
ATOM     15  C   UNL     1       6.259   5.484  15.364  0.00  0.00    +0.000 C 
BRANCH  15  16
ATOM     16  C   UNL     1       5.445   4.225  15.121  0.00  0.00    +0.000 C 
ATOM     17  F   UNL     1       5.129   4.054  13.817  0.00  0.00    +0.000 F 
ATOM     18  F   UNL     1       6.128   3.129  15.515  0.00  0.00    +0.000 F 
ATOM     19  F   UNL     1       4.284   4.256  15.815  0.00  0.00    +0.000 F 
ENDBRANCH  15  16
ENDBRANCH  14  15
ENDBRANCH   1  14
TORSDOF 5
ENDMDL
MODEL 8
REMARK VINA RESULT:      -6.6      1.275      1.505
REMARK  Name = 
REMARK  7 active torsions:
REMARK  status: ('A' for Active; 'I' for Inactive)
REMARK    1  A    between atoms: C_1  and  C_2
REMARK    2  A    between atoms: C_2  and  N_3
REMARK    3  A    between atoms: N_3  and  C_4
REMARK    4  A    between atoms: C_4  and  C_5
REMARK    5  A    between atoms: C_5  and  C_6
REMARK    6  A    between atoms: C_10  and  C_12
REMARK    7  A    between atoms: C_15  and  C_16
REMARK                            x       y       z     vdW  Elec       q    Type
REMARK                         _______ _______ _______ _____ _____    ______ ____
ROOT
ATOM      1  N   UNL     1       6.464   5.477  17.552  0.00  0.00    +0.000 N 
ATOM      2  C   UNL     1       5.725   5.178  18.727  0.00  0.00    +0.000 C 
ATOM      3  O   UNL     1       6.118   5.516  19.845  0.00  0.00    +0.000 OA
ENDROOT
BRANCH   2   4
ATOM      4  C   UNL     1       4.384   4.513  18.673  0.00  0.00    +0.000 A 
ATOM      5  C   UNL     1       3.162   5.193  18.612  0.00  0.00    +0.000 A 
ATOM      6  C   UNL     1       1.948   4.500  18.673  0.00  0.00    +0.000 A 
ATOM      7  C   UNL     1       1.932   3.104  18.707  0.00  0.00    +0.000 A 
ATOM      8  C   UNL     1       0.642   2.347  18.761  0.00  0.00    +0.000 C 
ATOM      9  C   UNL     1       3.152   2.428  18.649  0.00  0.00    +0.000 A 
ATOM     10  F   UNL     1       3.164   1.087  18.606  0.00  0.00    +0.000 F 
ATOM     11  C   UNL     1       4.364   3.112  18.642  0.00  0.00    +0.000 A 
ENDBRANCH   2   4
BRANCH   1  13
ATOM     12  C   UNL     1       7.502   7.766  17.474  0.00  0.00    +0.000 C 
ATOM     13  C   UNL     1       7.679   6.278  17.756  0.00  0.00    +0.000 C 
ENDBRANCH   1  13
BRANCH   1  14
ATOM     14  C   UNL     1       5.946   5.234  16.199  0.00  0.00    +0.000 C 
BRANCH  14  15
ATOM     15  C   UNL     1       6.299   3.955  15.455  0.00  0.00    +0.000 C 
BRANCH  15  16
ATOM     16  C   UNL     1       6.220   4.184  13.955  0.00  0.00    +0.000 C 
ATOM     17  F   UNL     1       7.083   5.133  13.528  0.00  0.00    +0.000 F 
ATOM     18  F   UNL     1       6.506   3.050  13.282  0.00  0.00    +0.000 F 
ATOM     19  F   UNL     1       4.977   4.576  13.589  0.00  0.00    +0.000 F 
ENDBRANCH  15  16
ENDBRANCH  14  15
ENDBRANCH   1  14
TORSDOF 5
ENDMDL
MODEL 9
REMARK VINA RESULT:      -6.6      1.514      2.007
REMARK  Name = 
REMARK  7 active torsions:
REMARK  status: ('A' for Active; 'I' for Inactive)
REMARK    1  A    between atoms: C_1  and  C_2
REMARK    2  A    between atoms: C_2  and  N_3
REMARK    3  A    between atoms: N_3  and  C_4
REMARK    4  A    between atoms: C_4  and  C_5
REMARK    5  A    between atoms: C_5  and  C_6
REMARK    6  A    between atoms: C_10  and  C_12
REMARK    7  A    between atoms: C_15  and  C_16
REMARK                            x       y       z     vdW  Elec       q    Type
REMARK                         _______ _______ _______ _____ _____    ______ ____
ROOT
ATOM      1  N   UNL     1       6.439   5.171  17.662  0.00  0.00    +0.000 N 
ATOM      2  C   UNL     1       5.848   4.846  18.911  0.00  0.00    +0.000 C 
ATOM      3  O   UNL     1       6.360   5.182  19.980  0.00  0.00    +0.000 OA
ENDROOT
BRANCH   2   4
ATOM      4  C   UNL     1       4.523   4.151  19.004  0.00  0.00    +0.000 A 
ATOM      5  C   UNL     1       4.284   2.839  18.582  0.00  0.00    +0.000 A 
ATOM      6  C   UNL     1       2.994   2.298  18.604  0.00  0.00    +0.000 A 
ATOM      7  C   UNL     1       1.930   3.033  19.133  0.00  0.00    +0.000 A 
ATOM      8  C   UNL     1       0.545   2.466  19.175  0.00  0.00    +0.000 C 
ATOM      9  C   UNL     1       2.197   4.297  19.661  0.00  0.00    +0.000 A 
ATOM     10  F   UNL     1       1.209   4.994  20.242  0.00  0.00    +0.000 F 
ATOM     11  C   UNL     1       3.468   4.860  19.594  0.00  0.00    +0.000 A 
ENDBRANCH   2   4
BRANCH   1  13
ATOM     12  C   UNL     1       7.418   7.479  17.465  0.00  0.00    +0.000 C 
ATOM     13  C   UNL     1       7.653   5.997  17.734  0.00  0.00    +0.000 C 
ENDBRANCH   1  13
BRANCH   1  14
ATOM     14  C   UNL     1       5.773   4.930  16.375  0.00  0.00    +0.000 C 
BRANCH  14  15
ATOM     15  C   UNL     1       6.196   3.764  15.494  0.00  0.00    +0.000 C 
BRANCH  15  16
ATOM     16  C   UNL     1       6.172   4.178  14.033  0.00  0.00    +0.000 C 
ATOM     17  F   UNL     1       6.535   3.175  13.202  0.00  0.00    +0.000 F 
ATOM     18  F   UNL     1       4.934   4.572  13.667  0.00  0.00    +0.000 F 
ATOM     19  F   UNL     1       7.016   5.212  13.808  0.00  0.00    +0.000 F 
ENDBRANCH  15  16
ENDBRANCH  14  15
ENDBRANCH   1  14
TORSDOF 5
ENDMDL
