MODEL 1
REMARK VINA RESULT:      -6.7      0.000      0.000
REMARK  Name = 
REMARK  15 active torsions:
REMARK  status: ('A' for Active; 'I' for Inactive)
REMARK    1  A    between atoms: C_1  and  C_2
REMARK    2  A    between atoms: C_2  and  C_3
REMARK    3  A    between atoms: C_3  and  C_4
REMARK    4  A    between atoms: C_4  and  C_5
REMARK    5  A    between atoms: C_5  and  C_6
REMARK    6  A    between atoms: C_6  and  C_7
REMARK    7  A    between atoms: C_7  and  O_8
REMARK    8  A    between atoms: O_8  and  C_9
REMARK    9  A    between atoms: C_10  and  O_11
REMARK   10  A    between atoms: C_13  and  C_14
REMARK   11  A    between atoms: C_14  and  N_15
REMARK   12  A    between atoms: N_18  and  C_19
REMARK   13  A    between atoms: C_19  and  C_20
REMARK   14  A    between atoms: C_20  and  O_21
REMARK   15  A    between atoms: C_25  and  O_26
REMARK                            x       y       z     vdW  Elec       q    Type
REMARK                         _______ _______ _______ _____ _____    ______ ____
ROOT
ATOM      1  C   UNL     1       6.870   5.606  16.126  0.00  0.00    +0.000 A 
ATOM      2  C   UNL     1       5.724   6.449  16.119  0.00  0.00    +0.000 A 
ATOM      3  C   UNL     1       4.987   6.624  17.277  0.00  0.00    +0.000 A 
ATOM      4  C   UNL     1       5.289   5.926  18.440  0.00  0.00    +0.000 A 
ATOM      5  C   UNL     1       6.400   5.082  18.473  0.00  0.00    +0.000 A 
ATOM      6  C   UNL     1       7.205   4.929  17.325  0.00  0.00    +0.000 A 
ENDROOT
BRANCH   2   7
ATOM      7  O   UNL     1       5.228   7.086  15.044  0.00  0.00    +0.000 OA
ATOM      8  H   UNL     1       5.118   8.038  15.004  0.00  0.00    +0.000 HD
ENDBRANCH   2   7
BRANCH   6   9
ATOM      9  O   UNL     1       8.295   4.135  17.365  0.00  0.00    +0.000 OA
ATOM     10  H   UNL     1       8.388   3.346  16.807  0.00  0.00    +0.000 HD
ENDBRANCH   6   9
BRANCH   1  11
ATOM     11  O   UNL     1       7.693   5.425  15.056  0.00  0.00    +0.000 OA
BRANCH  11  12
ATOM     12  C   UNL     1       7.356   4.926  13.824  0.00  0.00    +0.000 C 
BRANCH  12  13
ATOM     13  C   UNL     1       6.335   3.807  13.935  0.00  0.00    +0.000 C 
BRANCH  13  14
ATOM     14  C   UNL     1       6.033   3.193  12.563  0.00  0.00    +0.000 C 
BRANCH  14  15
ATOM     15  C   UNL     1       4.714   3.734  12.020  0.00  0.00    +0.000 C 
BRANCH  15  16
ATOM     16  C   UNL     1       4.371   3.077  10.684  0.00  0.00    +0.000 C 
BRANCH  16  18
ATOM     17  C   UNL     1       2.691   4.381   9.341  0.00  0.00    +0.000 C 
ATOM     18  C   UNL     1       2.887   3.265  10.359  0.00  0.00    +0.000 C 
ENDBRANCH  16  18
ENDBRANCH  15  16
ENDBRANCH  14  15
ENDBRANCH  13  14
ENDBRANCH  12  13
ENDBRANCH  11  12
ENDBRANCH   1  11
BRANCH   4  19
ATOM     19  C   UNL     1       4.333   6.073  19.583  0.00  0.00    +0.000 C 
BRANCH  19  20
ATOM     20  N   UNL     1       3.015   5.528  19.161  0.00  0.00    +0.000 NA
ATOM     21  C   UNL     1       3.049   4.220  18.479  0.00  0.00    +0.000 C 
ATOM     22  C   UNL     1       3.305   3.066  19.459  0.00  0.00    +0.000 C 
ATOM     23  N   UNL     1       2.444   3.111  20.669  0.00  0.00    +0.000 NA
ATOM     24  C   UNL     1       2.304   4.463  21.257  0.00  0.00    +0.000 C 
ATOM     25  C   UNL     1       1.993   5.526  20.206  0.00  0.00    +0.000 C 
BRANCH  23  26
ATOM     26  C   UNL     1       1.186   2.338  20.618  0.00  0.00    +0.000 C 
BRANCH  26  27
ATOM     27  C   UNL     1       1.023   1.630  19.262  0.00  0.00    +0.000 C 
BRANCH  27  28
ATOM     28  O   UNL     1       0.091   2.309  18.461  0.00  0.00    +0.000 OA
ATOM     29  H   UNL     1      -0.249   1.655  17.796  0.00  0.00    +0.000 HD
ENDBRANCH  27  28
ENDBRANCH  26  27
ENDBRANCH  23  26
ENDBRANCH  19  20
ENDBRANCH   4  19
TORSDOF 14
ENDMDL
MODEL 2
REMARK VINA RESULT:      -6.5      0.567      1.747
REMARK  Name = 
REMARK  15 active torsions:
REMARK  status: ('A' for Active; 'I' for Inactive)
REMARK    1  A    between atoms: C_1  and  C_2
REMARK    2  A    between atoms: C_2  and  C_3
REMARK    3  A    between atoms: C_3  and  C_4
REMARK    4  A    between atoms: C_4  and  C_5
REMARK    5  A    between atoms: C_5  and  C_6
REMARK    6  A    between atoms: C_6  and  C_7
REMARK    7  A    between atoms: C_7  and  O_8
REMARK    8  A    between atoms: O_8  and  C_9
REMARK    9  A    between atoms: C_10  and  O_11
REMARK   10  A    between atoms: C_13  and  C_14
REMARK   11  A    between atoms: C_14  and  N_15
REMARK   12  A    between atoms: N_18  and  C_19
REMARK   13  A    between atoms: C_19  and  C_20
REMARK   14  A    between atoms: C_20  and  O_21
REMARK   15  A    between atoms: C_25  and  O_26
REMARK                            x       y       z     vdW  Elec       q    Type
REMARK                         _______ _______ _______ _____ _____    ______ ____
ROOT
ATOM      1  C   UNL     1       6.741   5.461  15.801  0.00  0.00    +0.000 A 
ATOM      2  C   UNL     1       7.080   4.804  17.017  0.00  0.00    +0.000 A 
ATOM      3  C   UNL     1       6.257   4.929  18.122  0.00  0.00    +0.000 A 
ATOM      4  C   UNL     1       5.139   5.755  18.105  0.00  0.00    +0.000 A 
ATOM      5  C   UNL     1       4.790   6.422  16.929  0.00  0.00    +0.000 A 
ATOM      6  C   UNL     1       5.576   6.267  15.768  0.00  0.00    +0.000 A 
ENDROOT
BRANCH   2   7
ATOM      7  O   UNL     1       8.191   4.080  17.231  0.00  0.00    +0.000 OA
ATOM      8  H   UNL     1       8.981   4.440  17.639  0.00  0.00    +0.000 HD
ENDBRANCH   2   7
BRANCH   6   9
ATOM      9  O   UNL     1       5.223   6.890  14.625  0.00  0.00    +0.000 OA
ATOM     10  H   UNL     1       4.576   7.614  14.602  0.00  0.00    +0.000 HD
ENDBRANCH   6   9
BRANCH   1  11
ATOM     11  O   UNL     1       7.451   5.343  14.644  0.00  0.00    +0.000 OA
BRANCH  11  12
ATOM     12  C   UNL     1       6.969   5.013  13.404  0.00  0.00    +0.000 C 
BRANCH  12  13
ATOM     13  C   UNL     1       6.211   3.698  13.432  0.00  0.00    +0.000 C 
BRANCH  13  14
ATOM     14  C   UNL     1       6.558   2.831  12.216  0.00  0.00    +0.000 C 
BRANCH  14  15
ATOM     15  C   UNL     1       5.283   2.352  11.527  0.00  0.00    +0.000 C 
BRANCH  15  16
ATOM     16  C   UNL     1       4.262   3.485  11.432  0.00  0.00    +0.000 C 
BRANCH  16  18
ATOM     17  C   UNL     1       2.857   4.343   9.531  0.00  0.00    +0.000 C 
ATOM     18  C   UNL     1       3.174   3.142  10.413  0.00  0.00    +0.000 C 
ENDBRANCH  16  18
ENDBRANCH  15  16
ENDBRANCH  14  15
ENDBRANCH  13  14
ENDBRANCH  12  13
ENDBRANCH  11  12
ENDBRANCH   1  11
BRANCH   4  19
ATOM     19  C   UNL     1       4.413   5.937  19.401  0.00  0.00    +0.000 C 
BRANCH  19  20
ATOM     20  N   UNL     1       2.987   5.567  19.191  0.00  0.00    +0.000 NA
ATOM     21  C   UNL     1       2.751   4.338  18.409  0.00  0.00    +0.000 C 
ATOM     22  C   UNL     1       3.048   3.070  19.224  0.00  0.00    +0.000 C 
ATOM     23  N   UNL     1       2.428   3.073  20.575  0.00  0.00    +0.000 NA
ATOM     24  C   UNL     1       2.549   4.365  21.289  0.00  0.00    +0.000 C 
ATOM     25  C   UNL     1       2.176   5.555  20.407  0.00  0.00    +0.000 C 
BRANCH  23  26
ATOM     26  C   UNL     1       1.102   2.433  20.699  0.00  0.00    +0.000 C 
BRANCH  26  27
ATOM     27  C   UNL     1       0.346   2.457  19.360  0.00  0.00    +0.000 C 
BRANCH  27  28
ATOM     28  O   UNL     1       0.731   1.371  18.558  0.00  0.00    +0.000 OA
ATOM     29  H   UNL     1       0.332   0.557  18.963  0.00  0.00    +0.000 HD
ENDBRANCH  27  28
ENDBRANCH  26  27
ENDBRANCH  23  26
ENDBRANCH  19  20
ENDBRANCH   4  19
TORSDOF 14
ENDMDL
MODEL 3
REMARK VINA RESULT:      -6.3      5.020      7.630
REMARK  Name = 
REMARK  15 active torsions:
REMARK  status: ('A' for Active; 'I' for Inactive)
REMARK    1  A    between atoms: C_1  and  C_2
REMARK    2  A    between atoms: C_2  and  C_3
REMARK    3  A    between atoms: C_3  and  C_4
REMARK    4  A    between atoms: C_4  and  C_5
REMARK    5  A    between atoms: C_5  and  C_6
REMARK    6  A    between atoms: C_6  and  C_7
REMARK    7  A    between atoms: C_7  and  O_8
REMARK    8  A    between atoms: O_8  and  C_9
REMARK    9  A    between atoms: C_10  and  O_11
REMARK   10  A    between atoms: C_13  and  C_14
REMARK   11  A    between atoms: C_14  and  N_15
REMARK   12  A    between atoms: N_18  and  C_19
REMARK   13  A    between atoms: C_19  and  C_20
REMARK   14  A    between atoms: C_20  and  O_21
REMARK   15  A    between atoms: C_25  and  O_26
REMARK                            x       y       z     vdW  Elec       q    Type
REMARK                         _______ _______ _______ _____ _____    ______ ____
ROOT
ATOM      1  C   UNL     1       3.915   6.205  18.628  0.00  0.00    +0.000 A 
ATOM      2  C   UNL     1       3.973   7.041  17.478  0.00  0.00    +0.000 A 
ATOM      3  C   UNL     1       3.114   8.119  17.364  0.00  0.00    +0.000 A 
ATOM      4  C   UNL     1       2.129   8.366  18.313  0.00  0.00    +0.000 A 
ATOM      5  C   UNL     1       2.042   7.555  19.446  0.00  0.00    +0.000 A 
ATOM      6  C   UNL     1       2.941   6.483  19.619  0.00  0.00    +0.000 A 
ENDROOT
BRANCH   2   7
ATOM      7  O   UNL     1       4.777   6.857  16.417  0.00  0.00    +0.000 OA
ATOM      8  H   UNL     1       5.187   6.015  16.210  0.00  0.00    +0.000 HD
ENDBRANCH   2   7
BRANCH   6   9
ATOM      9  O   UNL     1       2.874   5.715  20.727  0.00  0.00    +0.000 OA
ATOM     10  H   UNL     1       3.599   5.660  21.370  0.00  0.00    +0.000 HD
ENDBRANCH   6   9
BRANCH   1  11
ATOM     11  O   UNL     1       4.762   5.162  18.859  0.00  0.00    +0.000 OA
BRANCH  11  12
ATOM     12  C   UNL     1       4.890   4.017  18.116  0.00  0.00    +0.000 C 
BRANCH  12  13
ATOM     13  C   UNL     1       3.808   3.008  18.456  0.00  0.00    +0.000 C 
BRANCH  13  14
ATOM     14  C   UNL     1       2.674   3.040  17.424  0.00  0.00    +0.000 C 
BRANCH  14  15
ATOM     15  C   UNL     1       1.393   3.568  18.062  0.00  0.00    +0.000 C 
BRANCH  15  16
ATOM     16  C   UNL     1       0.862   2.583  19.102  0.00  0.00    +0.000 C 
BRANCH  16  18
ATOM     17  C   UNL     1       1.612   2.567  21.502  0.00  0.00    +0.000 C 
ATOM     18  C   UNL     1       0.736   3.261  20.468  0.00  0.00    +0.000 C 
ENDBRANCH  16  18
ENDBRANCH  15  16
ENDBRANCH  14  15
ENDBRANCH  13  14
ENDBRANCH  12  13
ENDBRANCH  11  12
ENDBRANCH   1  11
BRANCH   4  19
ATOM     19  C   UNL     1       1.158   9.464  18.011  0.00  0.00    +0.000 C 
BRANCH  19  20
ATOM     20  N   UNL     1       0.720  10.066  19.299  0.00  0.00    +0.000 NA
ATOM     21  C   UNL     1       1.302  11.383  19.623  0.00  0.00    +0.000 C 
ATOM     22  C   UNL     1       0.678  12.510  18.788  0.00  0.00    +0.000 C 
ATOM     23  N   UNL     1      -0.808  12.479  18.764  0.00  0.00    +0.000 NA
ATOM     24  C   UNL     1      -1.378  11.124  18.582  0.00  0.00    +0.000 C 
ATOM     25  C   UNL     1      -0.727  10.091  19.499  0.00  0.00    +0.000 C 
BRANCH  23  26
ATOM     26  C   UNL     1      -1.506  13.301  19.774  0.00  0.00    +0.000 C 
BRANCH  26  27
ATOM     27  C   UNL     1      -0.555  14.329  20.408  0.00  0.00    +0.000 C 
BRANCH  27  28
ATOM     28  O   UNL     1      -1.205  15.561  20.579  0.00  0.00    +0.000 OA
ATOM     29  H   UNL     1      -2.014  15.545  20.004  0.00  0.00    +0.000 HD
ENDBRANCH  27  28
ENDBRANCH  26  27
ENDBRANCH  23  26
ENDBRANCH  19  20
ENDBRANCH   4  19
TORSDOF 14
ENDMDL
MODEL 4
REMARK VINA RESULT:      -6.2      2.880      3.919
REMARK  Name = 
REMARK  15 active torsions:
REMARK  status: ('A' for Active; 'I' for Inactive)
REMARK    1  A    between atoms: C_1  and  C_2
REMARK    2  A    between atoms: C_2  and  C_3
REMARK    3  A    between atoms: C_3  and  C_4
REMARK    4  A    between atoms: C_4  and  C_5
REMARK    5  A    between atoms: C_5  and  C_6
REMARK    6  A    between atoms: C_6  and  C_7
REMARK    7  A    between atoms: C_7  and  O_8
REMARK    8  A    between atoms: O_8  and  C_9
REMARK    9  A    between atoms: C_10  and  O_11
REMARK   10  A    between atoms: C_13  and  C_14
REMARK   11  A    between atoms: C_14  and  N_15
REMARK   12  A    between atoms: N_18  and  C_19
REMARK   13  A    between atoms: C_19  and  C_20
REMARK   14  A    between atoms: C_20  and  O_21
REMARK   15  A    between atoms: C_25  and  O_26
REMARK                            x       y       z     vdW  Elec       q    Type
REMARK                         _______ _______ _______ _____ _____    ______ ____
ROOT
ATOM      1  C   UNL     1       5.044   4.627  15.991  0.00  0.00    +0.000 A 
ATOM      2  C   UNL     1       5.027   6.046  16.094  0.00  0.00    +0.000 A 
ATOM      3  C   UNL     1       4.623   6.648  17.272  0.00  0.00    +0.000 A 
ATOM      4  C   UNL     1       4.148   5.901  18.344  0.00  0.00    +0.000 A 
ATOM      5  C   UNL     1       4.142   4.507  18.266  0.00  0.00    +0.000 A 
ATOM      6  C   UNL     1       4.603   3.862  17.100  0.00  0.00    +0.000 A 
ENDROOT
BRANCH   2   7
ATOM      7  O   UNL     1       5.329   6.905  15.106  0.00  0.00    +0.000 OA
ATOM      8  H   UNL     1       6.085   6.792  14.527  0.00  0.00    +0.000 HD
ENDBRANCH   2   7
BRANCH   6   9
ATOM      9  O   UNL     1       4.622   2.514  17.035  0.00  0.00    +0.000 OA
ATOM     10  H   UNL     1       5.083   1.966  17.690  0.00  0.00    +0.000 HD
ENDBRANCH   6   9
BRANCH   1  11
ATOM     11  O   UNL     1       5.487   3.944  14.899  0.00  0.00    +0.000 OA
BRANCH  11  12
ATOM     12  C   UNL     1       6.700   4.079  14.272  0.00  0.00    +0.000 C 
BRANCH  12  13
ATOM     13  C   UNL     1       6.534   4.301  12.779  0.00  0.00    +0.000 C 
BRANCH  13  14
ATOM     14  C   UNL     1       6.724   2.995  11.999  0.00  0.00    +0.000 C 
BRANCH  14  15
ATOM     15  C   UNL     1       5.370   2.405  11.617  0.00  0.00    +0.000 C 
BRANCH  15  16
ATOM     16  C   UNL     1       4.315   3.504  11.503  0.00  0.00    +0.000 C 
BRANCH  16  18
ATOM     17  C   UNL     1       2.932   4.249   9.540  0.00  0.00    +0.000 C 
ATOM     18  C   UNL     1       3.231   3.105  10.500  0.00  0.00    +0.000 C 
ENDBRANCH  16  18
ENDBRANCH  15  16
ENDBRANCH  14  15
ENDBRANCH  13  14
ENDBRANCH  12  13
ENDBRANCH  11  12
ENDBRANCH   1  11
BRANCH   4  19
ATOM     19  C   UNL     1       3.592   6.662  19.506  0.00  0.00    +0.000 C 
BRANCH  19  20
ATOM     20  N   UNL     1       2.113   6.728  19.354  0.00  0.00    +0.000 NA
ATOM     21  C   UNL     1       1.352   7.010  20.587  0.00  0.00    +0.000 C 
ATOM     22  C   UNL     1       1.458   8.485  21.004  0.00  0.00    +0.000 C 
ATOM     23  N   UNL     1       1.209   9.437  19.891  0.00  0.00    +0.000 NA
ATOM     24  C   UNL     1       1.864   9.058  18.618  0.00  0.00    +0.000 C 
ATOM     25  C   UNL     1       1.649   7.588  18.267  0.00  0.00    +0.000 C 
BRANCH  23  26
ATOM     26  C   UNL     1      -0.175   9.932  19.737  0.00  0.00    +0.000 C 
BRANCH  26  27
ATOM     27  C   UNL     1      -0.279  10.944  18.585  0.00  0.00    +0.000 C 
BRANCH  27  28
ATOM     28  O   UNL     1      -1.005  10.399  17.514  0.00  0.00    +0.000 OA
ATOM     29  H   UNL     1      -1.058   9.420  17.670  0.00  0.00    +0.000 HD
ENDBRANCH  27  28
ENDBRANCH  26  27
ENDBRANCH  23  26
ENDBRANCH  19  20
ENDBRANCH   4  19
TORSDOF 14
ENDMDL
MODEL 5
REMARK VINA RESULT:      -6.2      5.182      7.971
REMARK  Name = 
REMARK  15 active torsions:
REMARK  status: ('A' for Active; 'I' for Inactive)
REMARK    1  A    between atoms: C_1  and  C_2
REMARK    2  A    between atoms: C_2  and  C_3
REMARK    3  A    between atoms: C_3  and  C_4
REMARK    4  A    between atoms: C_4  and  C_5
REMARK    5  A    between atoms: C_5  and  C_6
REMARK    6  A    between atoms: C_6  and  C_7
REMARK    7  A    between atoms: C_7  and  O_8
REMARK    8  A    between atoms: O_8  and  C_9
REMARK    9  A    between atoms: C_10  and  O_11
REMARK   10  A    between atoms: C_13  and  C_14
REMARK   11  A    between atoms: C_14  and  N_15
REMARK   12  A    between atoms: N_18  and  C_19
REMARK   13  A    between atoms: C_19  and  C_20
REMARK   14  A    between atoms: C_20  and  O_21
REMARK   15  A    between atoms: C_25  and  O_26
REMARK                            x       y       z     vdW  Elec       q    Type
REMARK                         _______ _______ _______ _____ _____    ______ ____
ROOT
ATOM      1  C   UNL     1       0.724  10.099  19.980  0.00  0.00    +0.000 A 
ATOM      2  C   UNL     1       1.390   9.726  18.779  0.00  0.00    +0.000 A 
ATOM      3  C   UNL     1       1.960   8.470  18.668  0.00  0.00    +0.000 A 
ATOM      4  C   UNL     1       1.972   7.581  19.736  0.00  0.00    +0.000 A 
ATOM      5  C   UNL     1       1.336   7.926  20.930  0.00  0.00    +0.000 A 
ATOM      6  C   UNL     1       0.696   9.176  21.054  0.00  0.00    +0.000 A 
ENDROOT
BRANCH   2   7
ATOM      7  O   UNL     1       1.578  10.518  17.710  0.00  0.00    +0.000 OA
ATOM      8  H   UNL     1       2.320  10.421  17.110  0.00  0.00    +0.000 HD
ENDBRANCH   2   7
BRANCH   6   9
ATOM      9  O   UNL     1       0.058   9.497  22.199  0.00  0.00    +0.000 OA
ATOM     10  H   UNL     1      -0.759   9.058  22.484  0.00  0.00    +0.000 HD
ENDBRANCH   6   9
BRANCH   1  11
ATOM     11  O   UNL     1       0.077  11.285  20.158  0.00  0.00    +0.000 OA
BRANCH  11  12
ATOM     12  C   UNL     1      -1.261  11.535  19.991  0.00  0.00    +0.000 C 
BRANCH  12  13
ATOM     13  C   UNL     1      -1.670  11.432  18.533  0.00  0.00    +0.000 C 
BRANCH  13  14
ATOM     14  C   UNL     1      -2.207  10.034  18.204  0.00  0.00    +0.000 C 
BRANCH  14  15
ATOM     15  C   UNL     1      -3.302  10.123  17.145  0.00  0.00    +0.000 C 
BRANCH  15  16
ATOM     16  C   UNL     1      -2.719   9.915  15.748  0.00  0.00    +0.000 C 
BRANCH  16  18
ATOM     17  C   UNL     1      -3.407   9.779  13.333  0.00  0.00    +0.000 C 
ATOM     18  C   UNL     1      -3.685  10.433  14.681  0.00  0.00    +0.000 C 
ENDBRANCH  16  18
ENDBRANCH  15  16
ENDBRANCH  14  15
ENDBRANCH  13  14
ENDBRANCH  12  13
ENDBRANCH  11  12
ENDBRANCH   1  11
BRANCH   4  19
ATOM     19  C   UNL     1       2.751   6.316  19.554  0.00  0.00    +0.000 C 
BRANCH  19  20
ATOM     20  N   UNL     1       2.940   6.091  18.095  0.00  0.00    +0.000 NA
ATOM     21  C   UNL     1       4.167   6.665  17.510  0.00  0.00    +0.000 C 
ATOM     22  C   UNL     1       5.417   5.852  17.882  0.00  0.00    +0.000 C 
ATOM     23  N   UNL     1       5.258   4.389  17.675  0.00  0.00    +0.000 NA
ATOM     24  C   UNL     1       3.956   3.855  18.138  0.00  0.00    +0.000 C 
ATOM     25  C   UNL     1       2.778   4.703  17.667  0.00  0.00    +0.000 C 
BRANCH  23  26
ATOM     26  C   UNL     1       5.708   3.849  16.376  0.00  0.00    +0.000 C 
BRANCH  26  27
ATOM     27  C   UNL     1       6.961   4.586  15.872  0.00  0.00    +0.000 C 
BRANCH  27  28
ATOM     28  O   UNL     1       8.044   4.364  16.737  0.00  0.00    +0.000 OA
ATOM     29  H   UNL     1       8.787   4.942  16.423  0.00  0.00    +0.000 HD
ENDBRANCH  27  28
ENDBRANCH  26  27
ENDBRANCH  23  26
ENDBRANCH  19  20
ENDBRANCH   4  19
TORSDOF 14
ENDMDL
MODEL 6
REMARK VINA RESULT:      -6.1      6.511      8.676
REMARK  Name = 
REMARK  15 active torsions:
REMARK  status: ('A' for Active; 'I' for Inactive)
REMARK    1  A    between atoms: C_1  and  C_2
REMARK    2  A    between atoms: C_2  and  C_3
REMARK    3  A    between atoms: C_3  and  C_4
REMARK    4  A    between atoms: C_4  and  C_5
REMARK    5  A    between atoms: C_5  and  C_6
REMARK    6  A    between atoms: C_6  and  C_7
REMARK    7  A    between atoms: C_7  and  O_8
REMARK    8  A    between atoms: O_8  and  C_9
REMARK    9  A    between atoms: C_10  and  O_11
REMARK   10  A    between atoms: C_13  and  C_14
REMARK   11  A    between atoms: C_14  and  N_15
REMARK   12  A    between atoms: N_18  and  C_19
REMARK   13  A    between atoms: C_19  and  C_20
REMARK   14  A    between atoms: C_20  and  O_21
REMARK   15  A    between atoms: C_25  and  O_26
REMARK                            x       y       z     vdW  Elec       q    Type
REMARK                         _______ _______ _______ _____ _____    ______ ____
ROOT
ATOM      1  C   UNL     1       2.166   8.086  19.087  0.00  0.00    +0.000 A 
ATOM      2  C   UNL     1       1.732   9.246  18.387  0.00  0.00    +0.000 A 
ATOM      3  C   UNL     1       0.842  10.120  18.985  0.00  0.00    +0.000 A 
ATOM      4  C   UNL     1       0.288   9.853  20.231  0.00  0.00    +0.000 A 
ATOM      5  C   UNL     1       0.687   8.716  20.936  0.00  0.00    +0.000 A 
ATOM      6  C   UNL     1       1.638   7.836  20.378  0.00  0.00    +0.000 A 
ENDROOT
BRANCH   2   7
ATOM      7  O   UNL     1       2.072   9.573  17.129  0.00  0.00    +0.000 OA
ATOM      8  H   UNL     1       2.511   8.966  16.530  0.00  0.00    +0.000 HD
ENDBRANCH   2   7
BRANCH   6   9
ATOM      9  O   UNL     1       2.043   6.751  21.071  0.00  0.00    +0.000 OA
ATOM     10  H   UNL     1       2.823   6.761  21.649  0.00  0.00    +0.000 HD
ENDBRANCH   6   9
BRANCH   1  11
ATOM     11  O   UNL     1       3.089   7.204  18.609  0.00  0.00    +0.000 OA
BRANCH  11  12
ATOM     12  C   UNL     1       2.849   5.987  18.025  0.00  0.00    +0.000 C 
BRANCH  12  13
ATOM     13  C   UNL     1       4.141   5.276  17.666  0.00  0.00    +0.000 C 
BRANCH  13  14
ATOM     14  C   UNL     1       3.876   3.832  17.223  0.00  0.00    +0.000 C 
BRANCH  14  15
ATOM     15  C   UNL     1       2.381   3.529  17.274  0.00  0.00    +0.000 C 
BRANCH  15  16
ATOM     16  C   UNL     1       2.111   2.285  18.119  0.00  0.00    +0.000 C 
BRANCH  16  18
ATOM     17  C   UNL     1       0.953   3.505  19.989  0.00  0.00    +0.000 C 
ATOM     18  C   UNL     1       0.808   2.444  18.905  0.00  0.00    +0.000 C 
ENDBRANCH  16  18
ENDBRANCH  15  16
ENDBRANCH  14  15
ENDBRANCH  13  14
ENDBRANCH  12  13
ENDBRANCH  11  12
ENDBRANCH   1  11
BRANCH   4  19
ATOM     19  C   UNL     1      -0.780  10.786  20.711  0.00  0.00    +0.000 C 
BRANCH  19  20
ATOM     20  N   UNL     1      -0.277  11.484  21.925  0.00  0.00    +0.000 NA
ATOM     21  C   UNL     1       0.025  12.919  21.763  0.00  0.00    +0.000 C 
ATOM     22  C   UNL     1      -1.251  13.772  21.699  0.00  0.00    +0.000 C 
ATOM     23  N   UNL     1      -2.228  13.462  22.775  0.00  0.00    +0.000 NA
ATOM     24  C   UNL     1      -2.410  12.014  23.023  0.00  0.00    +0.000 C 
ATOM     25  C   UNL     1      -1.081  11.269  23.127  0.00  0.00    +0.000 C 
BRANCH  23  26
ATOM     26  C   UNL     1      -2.148  14.283  24.001  0.00  0.00    +0.000 C 
BRANCH  26  27
ATOM     27  C   UNL     1      -3.505  14.338  24.723  0.00  0.00    +0.000 C 
BRANCH  27  28
ATOM     28  O   UNL     1      -3.703  15.600  25.303  0.00  0.00    +0.000 OA
ATOM     29  H   UNL     1      -2.991  15.721  25.984  0.00  0.00    +0.000 HD
ENDBRANCH  27  28
ENDBRANCH  26  27
ENDBRANCH  23  26
ENDBRANCH  19  20
ENDBRANCH   4  19
TORSDOF 14
ENDMDL
MODEL 7
REMARK VINA RESULT:      -6.1      5.009      8.188
REMARK  Name = 
REMARK  15 active torsions:
REMARK  status: ('A' for Active; 'I' for Inactive)
REMARK    1  A    between atoms: C_1  and  C_2
REMARK    2  A    between atoms: C_2  and  C_3
REMARK    3  A    between atoms: C_3  and  C_4
REMARK    4  A    between atoms: C_4  and  C_5
REMARK    5  A    between atoms: C_5  and  C_6
REMARK    6  A    between atoms: C_6  and  C_7
REMARK    7  A    between atoms: C_7  and  O_8
REMARK    8  A    between atoms: O_8  and  C_9
REMARK    9  A    between atoms: C_10  and  O_11
REMARK   10  A    between atoms: C_13  and  C_14
REMARK   11  A    between atoms: C_14  and  N_15
REMARK   12  A    between atoms: N_18  and  C_19
REMARK   13  A    between atoms: C_19  and  C_20
REMARK   14  A    between atoms: C_20  and  O_21
REMARK   15  A    between atoms: C_25  and  O_26
REMARK                            x       y       z     vdW  Elec       q    Type
REMARK                         _______ _______ _______ _____ _____    ______ ____
ROOT
ATOM      1  C   UNL     1       0.886   9.739  19.860  0.00  0.00    +0.000 A 
ATOM      2  C   UNL     1       1.032   8.763  20.885  0.00  0.00    +0.000 A 
ATOM      3  C   UNL     1       1.773   7.619  20.649  0.00  0.00    +0.000 A 
ATOM      4  C   UNL     1       2.317   7.352  19.398  0.00  0.00    +0.000 A 
ATOM      5  C   UNL     1       2.180   8.287  18.370  0.00  0.00    +0.000 A 
ATOM      6  C   UNL     1       1.480   9.490  18.598  0.00  0.00    +0.000 A 
ENDROOT
BRANCH   2   7
ATOM      7  O   UNL     1       0.458   8.813  22.099  0.00  0.00    +0.000 OA
ATOM      8  H   UNL     1       0.812   9.331  22.825  0.00  0.00    +0.000 HD
ENDBRANCH   2   7
BRANCH   6   9
ATOM      9  O   UNL     1       1.370  10.405  17.612  0.00  0.00    +0.000 OA
ATOM     10  H   UNL     1       2.141  10.770  17.149  0.00  0.00    +0.000 HD
ENDBRANCH   6   9
BRANCH   1  11
ATOM     11  O   UNL     1       0.233  10.924  20.019  0.00  0.00    +0.000 OA
BRANCH  11  12
ATOM     12  C   UNL     1      -1.035  11.114  20.506  0.00  0.00    +0.000 C 
BRANCH  12  13
ATOM     13  C   UNL     1      -1.796  12.146  19.694  0.00  0.00    +0.000 C 
BRANCH  13  14
ATOM     14  C   UNL     1      -1.249  12.241  18.265  0.00  0.00    +0.000 C 
BRANCH  14  15
ATOM     15  C   UNL     1      -2.237  11.626  17.278  0.00  0.00    +0.000 C 
BRANCH  15  16
ATOM     16  C   UNL     1      -2.004  10.122  17.147  0.00  0.00    +0.000 C 
BRANCH  16  18
ATOM     17  C   UNL     1      -3.102  10.436  14.906  0.00  0.00    +0.000 C 
ATOM     18  C   UNL     1      -2.960   9.519  16.115  0.00  0.00    +0.000 C 
ENDBRANCH  16  18
ENDBRANCH  15  16
ENDBRANCH  14  15
ENDBRANCH  13  14
ENDBRANCH  12  13
ENDBRANCH  11  12
ENDBRANCH   1  11
BRANCH   4  19
ATOM     19  C   UNL     1       2.964   6.015  19.213  0.00  0.00    +0.000 C 
BRANCH  19  20
ATOM     20  N   UNL     1       3.154   5.788  17.755  0.00  0.00    +0.000 NA
ATOM     21  C   UNL     1       4.286   6.504  17.135  0.00  0.00    +0.000 C 
ATOM     22  C   UNL     1       5.637   5.867  17.495  0.00  0.00    +0.000 C 
ATOM     23  N   UNL     1       5.665   4.392  17.318  0.00  0.00    +0.000 NA
ATOM     24  C   UNL     1       4.453   3.703  17.816  0.00  0.00    +0.000 C 
ATOM     25  C   UNL     1       3.165   4.382  17.354  0.00  0.00    +0.000 C 
BRANCH  23  26
ATOM     26  C   UNL     1       6.158   3.889  16.019  0.00  0.00    +0.000 C 
BRANCH  26  27
ATOM     27  C   UNL     1       6.365   5.039  15.019  0.00  0.00    +0.000 C 
BRANCH  27  28
ATOM     28  O   UNL     1       7.733   5.305  14.851  0.00  0.00    +0.000 OA
ATOM     29  H   UNL     1       8.228   4.599  15.345  0.00  0.00    +0.000 HD
ENDBRANCH  27  28
ENDBRANCH  26  27
ENDBRANCH  23  26
ENDBRANCH  19  20
ENDBRANCH   4  19
TORSDOF 14
ENDMDL
MODEL 8
REMARK VINA RESULT:      -6.1      4.813      7.987
REMARK  Name = 
REMARK  15 active torsions:
REMARK  status: ('A' for Active; 'I' for Inactive)
REMARK    1  A    between atoms: C_1  and  C_2
REMARK    2  A    between atoms: C_2  and  C_3
REMARK    3  A    between atoms: C_3  and  C_4
REMARK    4  A    between atoms: C_4  and  C_5
REMARK    5  A    between atoms: C_5  and  C_6
REMARK    6  A    between atoms: C_6  and  C_7
REMARK    7  A    between atoms: C_7  and  O_8
REMARK    8  A    between atoms: O_8  and  C_9
REMARK    9  A    between atoms: C_10  and  O_11
REMARK   10  A    between atoms: C_13  and  C_14
REMARK   11  A    between atoms: C_14  and  N_15
REMARK   12  A    between atoms: N_18  and  C_19
REMARK   13  A    between atoms: C_19  and  C_20
REMARK   14  A    between atoms: C_20  and  O_21
REMARK   15  A    between atoms: C_25  and  O_26
REMARK                            x       y       z     vdW  Elec       q    Type
REMARK                         _______ _______ _______ _____ _____    ______ ____
ROOT
ATOM      1  C   UNL     1       1.486   9.376  19.581  0.00  0.00    +0.000 A 
ATOM      2  C   UNL     1       1.883   9.199  18.226  0.00  0.00    +0.000 A 
ATOM      3  C   UNL     1       2.282   7.952  17.781  0.00  0.00    +0.000 A 
ATOM      4  C   UNL     1       2.388   6.871  18.648  0.00  0.00    +0.000 A 
ATOM      5  C   UNL     1       2.017   7.019  19.986  0.00  0.00    +0.000 A 
ATOM      6  C   UNL     1       1.550   8.264  20.456  0.00  0.00    +0.000 A 
ENDROOT
BRANCH   2   7
ATOM      7  O   UNL     1       1.962  10.171  17.301  0.00  0.00    +0.000 OA
ATOM      8  H   UNL     1       2.789  10.449  16.903  0.00  0.00    +0.000 HD
ENDBRANCH   2   7
BRANCH   6   9
ATOM      9  O   UNL     1       1.166   8.399  21.743  0.00  0.00    +0.000 OA
ATOM     10  H   UNL     1       0.693   9.182  22.068  0.00  0.00    +0.000 HD
ENDBRANCH   6   9
BRANCH   1  11
ATOM     11  O   UNL     1       1.016  10.548  20.093  0.00  0.00    +0.000 OA
BRANCH  11  12
ATOM     12  C   UNL     1       0.689  11.685  19.400  0.00  0.00    +0.000 C 
BRANCH  12  13
ATOM     13  C   UNL     1      -0.790  12.006  19.520  0.00  0.00    +0.000 C 
BRANCH  13  14
ATOM     14  C   UNL     1      -1.652  10.796  19.145  0.00  0.00    +0.000 C 
BRANCH  14  15
ATOM     15  C   UNL     1      -1.421  10.414  17.686  0.00  0.00    +0.000 C 
BRANCH  15  16
ATOM     16  C   UNL     1      -2.626  10.800  16.829  0.00  0.00    +0.000 C 
BRANCH  16  18
ATOM     17  C   UNL     1      -3.348  10.272  14.479  0.00  0.00    +0.000 C 
ATOM     18  C   UNL     1      -2.951   9.688  15.829  0.00  0.00    +0.000 C 
ENDBRANCH  16  18
ENDBRANCH  15  16
ENDBRANCH  14  15
ENDBRANCH  13  14
ENDBRANCH  12  13
ENDBRANCH  11  12
ENDBRANCH   1  11
BRANCH   4  19
ATOM     19  C   UNL     1       2.978   5.613  18.093  0.00  0.00    +0.000 C 
BRANCH  19  20
ATOM     20  N   UNL     1       4.459   5.701  18.213  0.00  0.00    +0.000 NA
ATOM     21  C   UNL     1       5.187   4.420  18.137  0.00  0.00    +0.000 C 
ATOM     22  C   UNL     1       5.252   3.878  16.701  0.00  0.00    +0.000 C 
ATOM     23  N   UNL     1       5.678   4.892  15.702  0.00  0.00    +0.000 NA
ATOM     24  C   UNL     1       5.043   6.217  15.883  0.00  0.00    +0.000 C 
ATOM     25  C   UNL     1       5.083   6.689  17.335  0.00  0.00    +0.000 C 
BRANCH  23  26
ATOM     26  C   UNL     1       7.120   4.947  15.385  0.00  0.00    +0.000 C 
BRANCH  26  27
ATOM     27  C   UNL     1       7.356   4.930  13.865  0.00  0.00    +0.000 C 
BRANCH  27  28
ATOM     28  O   UNL     1       8.377   5.826  13.515  0.00  0.00    +0.000 OA
ATOM     29  H   UNL     1       8.475   5.782  12.528  0.00  0.00    +0.000 HD
ENDBRANCH  27  28
ENDBRANCH  26  27
ENDBRANCH  23  26
ENDBRANCH  19  20
ENDBRANCH   4  19
TORSDOF 14
ENDMDL
MODEL 9
REMARK VINA RESULT:      -6.1      4.511      7.163
REMARK  Name = 
REMARK  15 active torsions:
REMARK  status: ('A' for Active; 'I' for Inactive)
REMARK    1  A    between atoms: C_1  and  C_2
REMARK    2  A    between atoms: C_2  and  C_3
REMARK    3  A    between atoms: C_3  and  C_4
REMARK    4  A    between atoms: C_4  and  C_5
REMARK    5  A    between atoms: C_5  and  C_6
REMARK    6  A    between atoms: C_6  and  C_7
REMARK    7  A    between atoms: C_7  and  O_8
REMARK    8  A    between atoms: O_8  and  C_9
REMARK    9  A    between atoms: C_10  and  O_11
REMARK   10  A    between atoms: C_13  and  C_14
REMARK   11  A    between atoms: C_14  and  N_15
REMARK   12  A    between atoms: N_18  and  C_19
REMARK   13  A    between atoms: C_19  and  C_20
REMARK   14  A    between atoms: C_20  and  O_21
REMARK   15  A    between atoms: C_25  and  O_26
REMARK                            x       y       z     vdW  Elec       q    Type
REMARK                         _______ _______ _______ _____ _____    ______ ____
ROOT
ATOM      1  C   UNL     1       2.713   5.175  18.611  0.00  0.00    +0.000 A 
ATOM      2  C   UNL     1       1.998   4.894  19.809  0.00  0.00    +0.000 A 
ATOM      3  C   UNL     1       1.581   5.932  20.624  0.00  0.00    +0.000 A 
ATOM      4  C   UNL     1       1.915   7.252  20.346  0.00  0.00    +0.000 A 
ATOM      5  C   UNL     1       2.626   7.556  19.183  0.00  0.00    +0.000 A 
ATOM      6  C   UNL     1       3.015   6.525  18.303  0.00  0.00    +0.000 A 
ENDROOT
BRANCH   2   7
ATOM      7  O   UNL     1       1.715   3.669  20.282  0.00  0.00    +0.000 OA
ATOM      8  H   UNL     1       1.693   2.886  19.728  0.00  0.00    +0.000 HD
ENDBRANCH   2   7
BRANCH   6   9
ATOM      9  O   UNL     1       3.679   6.822  17.167  0.00  0.00    +0.000 OA
ATOM     10  H   UNL     1       3.346   6.578  16.287  0.00  0.00    +0.000 HD
ENDBRANCH   6   9
BRANCH   1  11
ATOM     11  O   UNL     1       3.106   4.227  17.715  0.00  0.00    +0.000 OA
BRANCH  11  12
ATOM     12  C   UNL     1       4.103   3.299  17.873  0.00  0.00    +0.000 C 
BRANCH  12  13
ATOM     13  C   UNL     1       5.370   3.928  18.424  0.00  0.00    +0.000 C 
BRANCH  13  14
ATOM     14  C   UNL     1       6.267   4.451  17.296  0.00  0.00    +0.000 C 
BRANCH  14  15
ATOM     15  C   UNL     1       7.663   4.759  17.829  0.00  0.00    +0.000 C 
BRANCH  15  16
ATOM     16  C   UNL     1       7.643   6.015  18.699  0.00  0.00    +0.000 C 
BRANCH  16  18
ATOM     17  C   UNL     1       8.023   8.227  17.566  0.00  0.00    +0.000 C 
ATOM     18  C   UNL     1       6.989   7.176  17.949  0.00  0.00    +0.000 C 
ENDBRANCH  16  18
ENDBRANCH  15  16
ENDBRANCH  14  15
ENDBRANCH  13  14
ENDBRANCH  12  13
ENDBRANCH  11  12
ENDBRANCH   1  11
BRANCH   4  19
ATOM     19  C   UNL     1       1.546   8.274  21.375  0.00  0.00    +0.000 C 
BRANCH  19  20
ATOM     20  N   UNL     1       0.181   8.777  21.063  0.00  0.00    +0.000 NA
ATOM     21  C   UNL     1      -0.742   8.887  22.209  0.00  0.00    +0.000 C 
ATOM     22  C   UNL     1      -0.411  10.092  23.102  0.00  0.00    +0.000 C 
ATOM     23  N   UNL     1      -0.211  11.356  22.345  0.00  0.00    +0.000 NA
ATOM     24  C   UNL     1       0.598  11.198  21.115  0.00  0.00    +0.000 C 
ATOM     25  C   UNL     1       0.151  10.006  20.272  0.00  0.00    +0.000 C 
BRANCH  23  26
ATOM     26  C   UNL     1      -1.393  12.228  22.186  0.00  0.00    +0.000 C 
BRANCH  26  27
ATOM     27  C   UNL     1      -2.426  11.972  23.296  0.00  0.00    +0.000 C 
BRANCH  27  28
ATOM     28  O   UNL     1      -3.729  12.151  22.806  0.00  0.00    +0.000 OA
ATOM     29  H   UNL     1      -3.767  11.713  21.916  0.00  0.00    +0.000 HD
ENDBRANCH  27  28
ENDBRANCH  26  27
ENDBRANCH  23  26
ENDBRANCH  19  20
ENDBRANCH   4  19
TORSDOF 14
ENDMDL
