MODEL 1
REMARK VINA RESULT:      -7.7      0.000      0.000
REMARK  Name = 
REMARK  6 active torsions:
REMARK  status: ('A' for Active; 'I' for Inactive)
REMARK    1  A    between atoms: C_1  and  O_2
REMARK    2  A    between atoms: O_2  and  C_3
REMARK    3  A    between atoms: C_6  and  O_7
REMARK    4  A    between atoms: O_7  and  C_8
REMARK    5  A    between atoms: C_9  and  N_10
REMARK    6  A    between atoms: N_10  and  C_11
REMARK                            x       y       z     vdW  Elec       q    Type
REMARK                         _______ _______ _______ _____ _____    ______ ____
ROOT
ATOM      1  C   UNL     1       6.015   4.947  18.429  0.00  0.00    +0.000 A 
ATOM      2  N   UNL     1       6.870   5.874  18.951  0.00  0.00    +0.000 NA
ATOM      3  C   UNL     1       7.631   6.628  18.145  0.00  0.00    +0.000 A 
ATOM      4  N   UNL     1       8.462   7.527  18.777  0.00  0.00    +0.000 N 
ATOM      5  N   UNL     1       7.631   6.618  16.807  0.00  0.00    +0.000 NA
ATOM      6  C   UNL     1       6.795   5.692  16.322  0.00  0.00    +0.000 A 
ATOM      7  N   UNL     1       6.575   5.391  15.010  0.00  0.00    +0.000 N 
ATOM      8  C   UNL     1       5.649   4.381  14.968  0.00  0.00    +0.000 A 
ATOM      9  N   UNL     1       5.259   4.022  16.173  0.00  0.00    +0.000 NA
ATOM     10  C   UNL     1       5.974   4.835  17.031  0.00  0.00    +0.000 A 
ATOM     11  H   UNL     1       8.135   7.698  19.718  0.00  0.00    +0.000 HD
ATOM     12  H   UNL     1       8.651   8.324  18.188  0.00  0.00    +0.000 HD
ATOM     13  H   UNL     1       7.029   5.835  14.227  0.00  0.00    +0.000 HD
ENDROOT
BRANCH   1  14
ATOM     14  N   UNL     1       5.241   4.116  19.256  0.00  0.00    +0.000 N 
ATOM     15  H   UNL     1       5.792   3.395  19.695  0.00  0.00    +0.000 HD
BRANCH  14  20
ATOM     16  C   UNL     1       2.009   5.540  20.434  0.00  0.00    +0.000 A 
ATOM     17  C   UNL     1       1.214   4.403  20.509  0.00  0.00    +0.000 A 
ATOM     18  C   UNL     1       1.723   3.168  20.103  0.00  0.00    +0.000 A 
ATOM     19  C   UNL     1       3.037   3.043  19.621  0.00  0.00    +0.000 A 
ATOM     20  C   UNL     1       3.867   4.180  19.552  0.00  0.00    +0.000 A 
ATOM     21  C   UNL     1       3.311   5.417  19.948  0.00  0.00    +0.000 A 
BRANCH  16  23
ATOM     22  C   UNL     1       1.804   7.893  20.203  0.00  0.00    +0.000 C 
ATOM     23  O   UNL     1       1.427   6.696  20.877  0.00  0.00    +0.000 OA
ENDBRANCH  16  23
BRANCH  19  24
ATOM     24  O   UNL     1       3.391   1.740  19.386  0.00  0.00    +0.000 OA
ATOM     25  C   UNL     1       3.598   1.349  18.039  0.00  0.00    +0.000 C 
ENDBRANCH  19  24
ENDBRANCH  14  20
ENDBRANCH   1  14
TORSDOF 4
ENDMDL
MODEL 2
REMARK VINA RESULT:      -7.6      1.258      1.418
REMARK  Name = 
REMARK  6 active torsions:
REMARK  status: ('A' for Active; 'I' for Inactive)
REMARK    1  A    between atoms: C_1  and  O_2
REMARK    2  A    between atoms: O_2  and  C_3
REMARK    3  A    between atoms: C_6  and  O_7
REMARK    4  A    between atoms: O_7  and  C_8
REMARK    5  A    between atoms: C_9  and  N_10
REMARK    6  A    between atoms: N_10  and  C_11
REMARK                            x       y       z     vdW  Elec       q    Type
REMARK                         _______ _______ _______ _____ _____    ______ ____
ROOT
ATOM      1  C   UNL     1       4.950   4.829  17.229  0.00  0.00    +0.000 A 
ATOM      2  N   UNL     1       5.620   5.029  18.400  0.00  0.00    +0.000 NA
ATOM      3  C   UNL     1       6.957   5.125  18.413  0.00  0.00    +0.000 A 
ATOM      4  N   UNL     1       7.531   5.321  19.650  0.00  0.00    +0.000 N 
ATOM      5  N   UNL     1       7.770   5.089  17.350  0.00  0.00    +0.000 NA
ATOM      6  C   UNL     1       7.090   4.878  16.217  0.00  0.00    +0.000 A 
ATOM      7  N   UNL     1       7.606   4.753  14.961  0.00  0.00    +0.000 N 
ATOM      8  C   UNL     1       6.558   4.542  14.103  0.00  0.00    +0.000 A 
ATOM      9  N   UNL     1       5.402   4.530  14.733  0.00  0.00    +0.000 NA
ATOM     10  C   UNL     1       5.723   4.737  16.061  0.00  0.00    +0.000 A 
ATOM     11  H   UNL     1       6.842   5.679  20.297  0.00  0.00    +0.000 HD
ATOM     12  H   UNL     1       8.409   5.813  19.570  0.00  0.00    +0.000 HD
ATOM     13  H   UNL     1       8.586   4.799  14.727  0.00  0.00    +0.000 HD
ENDROOT
BRANCH   1  14
ATOM     14  N   UNL     1       3.554   4.681  17.198  0.00  0.00    +0.000 N 
ATOM     15  H   UNL     1       3.193   4.654  16.257  0.00  0.00    +0.000 HD
BRANCH  14  20
ATOM     16  C   UNL     1       1.622   5.597  20.246  0.00  0.00    +0.000 A 
ATOM     17  C   UNL     1       1.119   4.364  20.640  0.00  0.00    +0.000 A 
ATOM     18  C   UNL     1       1.360   3.231  19.859  0.00  0.00    +0.000 A 
ATOM     19  C   UNL     1       2.112   3.308  18.675  0.00  0.00    +0.000 A 
ATOM     20  C   UNL     1       2.645   4.546  18.265  0.00  0.00    +0.000 A 
ATOM     21  C   UNL     1       2.361   5.674  19.065  0.00  0.00    +0.000 A 
BRANCH  16  23
ATOM     22  C   UNL     1       1.572   7.948  20.570  0.00  0.00    +0.000 C 
ATOM     23  O   UNL     1       1.351   6.640  21.089  0.00  0.00    +0.000 OA
ENDBRANCH  16  23
BRANCH  19  24
ATOM     24  O   UNL     1       2.340   2.078  18.114  0.00  0.00    +0.000 OA
ATOM     25  C   UNL     1       3.545   1.414  18.458  0.00  0.00    +0.000 C 
ENDBRANCH  19  24
ENDBRANCH  14  20
ENDBRANCH   1  14
TORSDOF 4
ENDMDL
MODEL 3
REMARK VINA RESULT:      -7.5      1.542      1.831
REMARK  Name = 
REMARK  6 active torsions:
REMARK  status: ('A' for Active; 'I' for Inactive)
REMARK    1  A    between atoms: C_1  and  O_2
REMARK    2  A    between atoms: O_2  and  C_3
REMARK    3  A    between atoms: C_6  and  O_7
REMARK    4  A    between atoms: O_7  and  C_8
REMARK    5  A    between atoms: C_9  and  N_10
REMARK    6  A    between atoms: N_10  and  C_11
REMARK                            x       y       z     vdW  Elec       q    Type
REMARK                         _______ _______ _______ _____ _____    ______ ____
ROOT
ATOM      1  C   UNL     1       5.290   4.470  17.890  0.00  0.00    +0.000 A 
ATOM      2  N   UNL     1       6.157   4.779  18.896  0.00  0.00    +0.000 NA
ATOM      3  C   UNL     1       7.445   5.041  18.630  0.00  0.00    +0.000 A 
ATOM      4  N   UNL     1       8.233   5.335  19.720  0.00  0.00    +0.000 N 
ATOM      5  N   UNL     1       8.017   5.081  17.420  0.00  0.00    +0.000 NA
ATOM      6  C   UNL     1       7.149   4.762  16.453  0.00  0.00    +0.000 A 
ATOM      7  N   UNL     1       7.405   4.672  15.117  0.00  0.00    +0.000 N 
ATOM      8  C   UNL     1       6.237   4.313  14.496  0.00  0.00    +0.000 A 
ATOM      9  N   UNL     1       5.248   4.172  15.354  0.00  0.00    +0.000 NA
ATOM     10  C   UNL     1       5.809   4.448  16.586  0.00  0.00    +0.000 A 
ATOM     11  H   UNL     1       7.654   5.620  20.498  0.00  0.00    +0.000 HD
ATOM     12  H   UNL     1       9.006   5.930  19.460  0.00  0.00    +0.000 HD
ATOM     13  H   UNL     1       8.301   4.834  14.683  0.00  0.00    +0.000 HD
ENDROOT
BRANCH   1  14
ATOM     14  N   UNL     1       3.948   4.149  18.151  0.00  0.00    +0.000 N 
ATOM     15  H   UNL     1       3.671   3.281  17.718  0.00  0.00    +0.000 HD
BRANCH  14  20
ATOM     16  C   UNL     1       2.061   7.030  19.568  0.00  0.00    +0.000 A 
ATOM     17  C   UNL     1       1.388   6.430  20.625  0.00  0.00    +0.000 A 
ATOM     18  C   UNL     1       1.501   5.054  20.833  0.00  0.00    +0.000 A 
ATOM     19  C   UNL     1       2.292   4.252  19.993  0.00  0.00    +0.000 A 
ATOM     20  C   UNL     1       2.997   4.841  18.925  0.00  0.00    +0.000 A 
ATOM     21  C   UNL     1       2.840   6.231  18.730  0.00  0.00    +0.000 A 
BRANCH  16  23
ATOM     22  C   UNL     1       1.943   8.927  18.146  0.00  0.00    +0.000 C 
ATOM     23  O   UNL     1       1.905   8.385  19.464  0.00  0.00    +0.000 OA
ENDBRANCH  16  23
BRANCH  19  24
ATOM     24  O   UNL     1       2.372   2.953  20.426  0.00  0.00    +0.000 OA
ATOM     25  C   UNL     1       1.692   2.619  21.624  0.00  0.00    +0.000 C 
ENDBRANCH  19  24
ENDBRANCH  14  20
ENDBRANCH   1  14
TORSDOF 4
ENDMDL
MODEL 4
REMARK VINA RESULT:      -7.5      2.914      6.122
REMARK  Name = 
REMARK  6 active torsions:
REMARK  status: ('A' for Active; 'I' for Inactive)
REMARK    1  A    between atoms: C_1  and  O_2
REMARK    2  A    between atoms: O_2  and  C_3
REMARK    3  A    between atoms: C_6  and  O_7
REMARK    4  A    between atoms: O_7  and  C_8
REMARK    5  A    between atoms: C_9  and  N_10
REMARK    6  A    between atoms: N_10  and  C_11
REMARK                            x       y       z     vdW  Elec       q    Type
REMARK                         _______ _______ _______ _____ _____    ______ ____
ROOT
ATOM      1  C   UNL     1       3.607   4.103  19.128  0.00  0.00    +0.000 A 
ATOM      2  N   UNL     1       3.517   5.390  19.572  0.00  0.00    +0.000 NA
ATOM      3  C   UNL     1       2.372   5.852  20.093  0.00  0.00    +0.000 A 
ATOM      4  N   UNL     1       2.391   7.167  20.504  0.00  0.00    +0.000 N 
ATOM      5  N   UNL     1       1.244   5.157  20.286  0.00  0.00    +0.000 NA
ATOM      6  C   UNL     1       1.355   3.904  19.830  0.00  0.00    +0.000 A 
ATOM      7  N   UNL     1       0.390   2.940  19.836  0.00  0.00    +0.000 N 
ATOM      8  C   UNL     1       0.929   1.813  19.272  0.00  0.00    +0.000 A 
ATOM      9  N   UNL     1       2.181   1.996  18.909  0.00  0.00    +0.000 NA
ATOM     10  C   UNL     1       2.459   3.305  19.252  0.00  0.00    +0.000 A 
ATOM     11  H   UNL     1       3.344   7.473  20.642  0.00  0.00    +0.000 HD
ATOM     12  H   UNL     1       1.728   7.325  21.249  0.00  0.00    +0.000 HD
ATOM     13  H   UNL     1      -0.548   3.057  20.187  0.00  0.00    +0.000 HD
ENDROOT
BRANCH   1  14
ATOM     14  N   UNL     1       4.783   3.611  18.538  0.00  0.00    +0.000 N 
ATOM     15  H   UNL     1       5.119   2.777  18.994  0.00  0.00    +0.000 HD
BRANCH  14  20
ATOM     16  C   UNL     1       5.647   4.241  14.972  0.00  0.00    +0.000 A 
ATOM     17  C   UNL     1       6.950   4.710  15.079  0.00  0.00    +0.000 A 
ATOM     18  C   UNL     1       7.527   4.886  16.338  0.00  0.00    +0.000 A 
ATOM     19  C   UNL     1       6.816   4.591  17.514  0.00  0.00    +0.000 A 
ATOM     20  C   UNL     1       5.499   4.099  17.429  0.00  0.00    +0.000 A 
ATOM     21  C   UNL     1       4.939   3.957  16.140  0.00  0.00    +0.000 A 
BRANCH  16  23
ATOM     22  C   UNL     1       6.115   3.590  12.737  0.00  0.00    +0.000 C 
ATOM     23  O   UNL     1       5.182   4.082  13.696  0.00  0.00    +0.000 OA
ENDBRANCH  16  23
BRANCH  19  24
ATOM     24  O   UNL     1       7.587   4.714  18.641  0.00  0.00    +0.000 OA
ATOM     25  C   UNL     1       7.894   6.024  19.086  0.00  0.00    +0.000 C 
ENDBRANCH  19  24
ENDBRANCH  14  20
ENDBRANCH   1  14
TORSDOF 4
ENDMDL
MODEL 5
REMARK VINA RESULT:      -7.5      1.841      3.505
REMARK  Name = 
REMARK  6 active torsions:
REMARK  status: ('A' for Active; 'I' for Inactive)
REMARK    1  A    between atoms: C_1  and  O_2
REMARK    2  A    between atoms: O_2  and  C_3
REMARK    3  A    between atoms: C_6  and  O_7
REMARK    4  A    between atoms: O_7  and  C_8
REMARK    5  A    between atoms: C_9  and  N_10
REMARK    6  A    between atoms: N_10  and  C_11
REMARK                            x       y       z     vdW  Elec       q    Type
REMARK                         _______ _______ _______ _____ _____    ______ ____
ROOT
ATOM      1  C   UNL     1       4.879   4.459  17.605  0.00  0.00    +0.000 A 
ATOM      2  N   UNL     1       5.052   4.079  16.306  0.00  0.00    +0.000 NA
ATOM      3  C   UNL     1       6.277   4.059  15.760  0.00  0.00    +0.000 A 
ATOM      4  N   UNL     1       6.336   3.665  14.441  0.00  0.00    +0.000 N 
ATOM      5  N   UNL     1       7.431   4.342  16.376  0.00  0.00    +0.000 NA
ATOM      6  C   UNL     1       7.231   4.724  17.644  0.00  0.00    +0.000 A 
ATOM      7  N   UNL     1       8.180   5.114  18.542  0.00  0.00    +0.000 N 
ATOM      8  C   UNL     1       7.537   5.423  19.713  0.00  0.00    +0.000 A 
ATOM      9  N   UNL     1       6.235   5.249  19.619  0.00  0.00    +0.000 NA
ATOM     10  C   UNL     1       6.031   4.814  18.324  0.00  0.00    +0.000 A 
ATOM     11  H   UNL     1       5.501   3.152  14.195  0.00  0.00    +0.000 HD
ATOM     12  H   UNL     1       7.230   3.248  14.226  0.00  0.00    +0.000 HD
ATOM     13  H   UNL     1       9.169   5.169  18.357  0.00  0.00    +0.000 HD
ENDROOT
BRANCH   1  14
ATOM     14  N   UNL     1       3.601   4.530  18.184  0.00  0.00    +0.000 N 
ATOM     15  H   UNL     1       3.177   3.621  18.284  0.00  0.00    +0.000 HD
BRANCH  14  20
ATOM     16  C   UNL     1       2.276   8.009  18.244  0.00  0.00    +0.000 A 
ATOM     17  C   UNL     1       1.794   8.102  19.544  0.00  0.00    +0.000 A 
ATOM     18  C   UNL     1       1.842   6.989  20.386  0.00  0.00    +0.000 A 
ATOM     19  C   UNL     1       2.378   5.766  19.950  0.00  0.00    +0.000 A 
ATOM     20  C   UNL     1       2.888   5.654  18.642  0.00  0.00    +0.000 A 
ATOM     21  C   UNL     1       2.800   6.791  17.809  0.00  0.00    +0.000 A 
BRANCH  16  23
ATOM     22  C   UNL     1       1.760  10.326  18.192  0.00  0.00    +0.000 C 
ATOM     23  O   UNL     1       2.206   9.159  17.506  0.00  0.00    +0.000 OA
ENDBRANCH  16  23
BRANCH  19  24
ATOM     24  O   UNL     1       2.447   4.833  20.952  0.00  0.00    +0.000 OA
ATOM     25  C   UNL     1       1.461   3.814  20.968  0.00  0.00    +0.000 C 
ENDBRANCH  19  24
ENDBRANCH  14  20
ENDBRANCH   1  14
TORSDOF 4
ENDMDL
MODEL 6
REMARK VINA RESULT:      -7.5      1.772      2.532
REMARK  Name = 
REMARK  6 active torsions:
REMARK  status: ('A' for Active; 'I' for Inactive)
REMARK    1  A    between atoms: C_1  and  O_2
REMARK    2  A    between atoms: O_2  and  C_3
REMARK    3  A    between atoms: C_6  and  O_7
REMARK    4  A    between atoms: O_7  and  C_8
REMARK    5  A    between atoms: C_9  and  N_10
REMARK    6  A    between atoms: N_10  and  C_11
REMARK                            x       y       z     vdW  Elec       q    Type
REMARK                         _______ _______ _______ _____ _____    ______ ____
ROOT
ATOM      1  C   UNL     1       5.214   4.872  18.253  0.00  0.00    +0.000 A 
ATOM      2  N   UNL     1       6.118   5.105  19.247  0.00  0.00    +0.000 NA
ATOM      3  C   UNL     1       7.433   5.112  18.985  0.00  0.00    +0.000 A 
ATOM      4  N   UNL     1       8.256   5.352  20.064  0.00  0.00    +0.000 N 
ATOM      5  N   UNL     1       8.009   4.951  17.788  0.00  0.00    +0.000 NA
ATOM      6  C   UNL     1       7.102   4.711  16.833  0.00  0.00    +0.000 A 
ATOM      7  N   UNL     1       7.345   4.468  15.514  0.00  0.00    +0.000 N 
ATOM      8  C   UNL     1       6.134   4.270  14.902  0.00  0.00    +0.000 A 
ATOM      9  N   UNL     1       5.132   4.378  15.749  0.00  0.00    +0.000 NA
ATOM     10  C   UNL     1       5.727   4.651  16.965  0.00  0.00    +0.000 A 
ATOM     11  H   UNL     1       7.734   5.798  20.805  0.00  0.00    +0.000 HD
ATOM     12  H   UNL     1       9.124   5.778  19.772  0.00  0.00    +0.000 HD
ATOM     13  H   UNL     1       8.257   4.433  15.086  0.00  0.00    +0.000 HD
ENDROOT
BRANCH   1  14
ATOM     14  N   UNL     1       3.835   4.815  18.513  0.00  0.00    +0.000 N 
ATOM     15  H   UNL     1       3.455   3.895  18.358  0.00  0.00    +0.000 HD
BRANCH  14  20
ATOM     16  C   UNL     1       2.192   8.152  18.694  0.00  0.00    +0.000 A 
ATOM     17  C   UNL     1       1.547   8.080  19.922  0.00  0.00    +0.000 A 
ATOM     18  C   UNL     1       1.596   6.899  20.667  0.00  0.00    +0.000 A 
ATOM     19  C   UNL     1       2.294   5.772  20.203  0.00  0.00    +0.000 A 
ATOM     20  C   UNL     1       2.969   5.828  18.967  0.00  0.00    +0.000 A 
ATOM     21  C   UNL     1       2.878   7.029  18.229  0.00  0.00    +0.000 A 
BRANCH  16  23
ATOM     22  C   UNL     1       1.090  10.247  18.512  0.00  0.00    +0.000 C 
ATOM     23  O   UNL     1       2.104   9.357  18.053  0.00  0.00    +0.000 OA
ENDBRANCH  16  23
BRANCH  19  24
ATOM     24  O   UNL     1       2.327   4.756  21.123  0.00  0.00    +0.000 OA
ATOM     25  C   UNL     1       1.397   3.698  20.965  0.00  0.00    +0.000 C 
ENDBRANCH  19  24
ENDBRANCH  14  20
ENDBRANCH   1  14
TORSDOF 4
ENDMDL
MODEL 7
REMARK VINA RESULT:      -7.4      1.550      2.989
REMARK  Name = 
REMARK  6 active torsions:
REMARK  status: ('A' for Active; 'I' for Inactive)
REMARK    1  A    between atoms: C_1  and  O_2
REMARK    2  A    between atoms: O_2  and  C_3
REMARK    3  A    between atoms: C_6  and  O_7
REMARK    4  A    between atoms: O_7  and  C_8
REMARK    5  A    between atoms: C_9  and  N_10
REMARK    6  A    between atoms: N_10  and  C_11
REMARK                            x       y       z     vdW  Elec       q    Type
REMARK                         _______ _______ _______ _____ _____    ______ ____
ROOT
ATOM      1  C   UNL     1       4.891   4.056  17.171  0.00  0.00    +0.000 A 
ATOM      2  N   UNL     1       5.135   3.789  15.856  0.00  0.00    +0.000 NA
ATOM      3  C   UNL     1       6.331   4.064  15.315  0.00  0.00    +0.000 A 
ATOM      4  N   UNL     1       6.467   3.759  13.979  0.00  0.00    +0.000 N 
ATOM      5  N   UNL     1       7.399   4.562  15.951  0.00  0.00    +0.000 NA
ATOM      6  C   UNL     1       7.128   4.827  17.234  0.00  0.00    +0.000 A 
ATOM      7  N   UNL     1       7.974   5.370  18.156  0.00  0.00    +0.000 N 
ATOM      8  C   UNL     1       7.286   5.473  19.337  0.00  0.00    +0.000 A 
ATOM      9  N   UNL     1       6.053   5.023  19.229  0.00  0.00    +0.000 NA
ATOM     10  C   UNL     1       5.941   4.619  17.913  0.00  0.00    +0.000 A 
ATOM     11  H   UNL     1       5.763   3.089  13.704  0.00  0.00    +0.000 HD
ATOM     12  H   UNL     1       7.430   3.559  13.748  0.00  0.00    +0.000 HD
ATOM     13  H   UNL     1       8.926   5.650  17.979  0.00  0.00    +0.000 HD
ENDROOT
BRANCH   1  14
ATOM     14  N   UNL     1       3.632   3.817  17.746  0.00  0.00    +0.000 N 
ATOM     15  H   UNL     1       3.254   2.921  17.479  0.00  0.00    +0.000 HD
BRANCH  14  20
ATOM     16  C   UNL     1       2.236   6.908  19.283  0.00  0.00    +0.000 A 
ATOM     17  C   UNL     1       1.715   6.417  20.473  0.00  0.00    +0.000 A 
ATOM     18  C   UNL     1       1.762   5.048  20.743  0.00  0.00    +0.000 A 
ATOM     19  C   UNL     1       2.334   4.144  19.832  0.00  0.00    +0.000 A 
ATOM     20  C   UNL     1       2.883   4.621  18.626  0.00  0.00    +0.000 A 
ATOM     21  C   UNL     1       2.797   6.009  18.375  0.00  0.00    +0.000 A 
BRANCH  16  23
ATOM     22  C   UNL     1       2.016   8.738  17.787  0.00  0.00    +0.000 C 
ATOM     23  O   UNL     1       2.163   8.265  19.123  0.00  0.00    +0.000 OA
ENDBRANCH  16  23
BRANCH  19  24
ATOM     24  O   UNL     1       2.393   2.865  20.325  0.00  0.00    +0.000 OA
ATOM     25  C   UNL     1       2.331   2.702  21.731  0.00  0.00    +0.000 C 
ENDBRANCH  19  24
ENDBRANCH  14  20
ENDBRANCH   1  14
TORSDOF 4
ENDMDL
MODEL 8
REMARK VINA RESULT:      -7.4      2.949      6.189
REMARK  Name = 
REMARK  6 active torsions:
REMARK  status: ('A' for Active; 'I' for Inactive)
REMARK    1  A    between atoms: C_1  and  O_2
REMARK    2  A    between atoms: O_2  and  C_3
REMARK    3  A    between atoms: C_6  and  O_7
REMARK    4  A    between atoms: O_7  and  C_8
REMARK    5  A    between atoms: C_9  and  N_10
REMARK    6  A    between atoms: N_10  and  C_11
REMARK                            x       y       z     vdW  Elec       q    Type
REMARK                         _______ _______ _______ _____ _____    ______ ____
ROOT
ATOM      1  C   UNL     1       3.943   4.447  19.086  0.00  0.00    +0.000 A 
ATOM      2  N   UNL     1       3.610   5.743  18.820  0.00  0.00    +0.000 NA
ATOM      3  C   UNL     1       2.608   6.339  19.484  0.00  0.00    +0.000 A 
ATOM      4  N   UNL     1       2.352   7.645  19.132  0.00  0.00    +0.000 N 
ATOM      5  N   UNL     1       1.872   5.804  20.466  0.00  0.00    +0.000 NA
ATOM      6  C   UNL     1       2.210   4.530  20.697  0.00  0.00    +0.000 A 
ATOM      7  N   UNL     1       1.643   3.681  21.601  0.00  0.00    +0.000 N 
ATOM      8  C   UNL     1       2.291   2.477  21.500  0.00  0.00    +0.000 A 
ATOM      9  N   UNL     1       3.242   2.506  20.589  0.00  0.00    +0.000 NA
ATOM     10  C   UNL     1       3.198   3.788  20.076  0.00  0.00    +0.000 A 
ATOM     11  H   UNL     1       3.157   8.042  18.668  0.00  0.00    +0.000 HD
ATOM     12  H   UNL     1       1.949   8.157  19.904  0.00  0.00    +0.000 HD
ATOM     13  H   UNL     1       0.879   3.912  22.216  0.00  0.00    +0.000 HD
ENDROOT
BRANCH   1  14
ATOM     14  N   UNL     1       4.959   3.790  18.372  0.00  0.00    +0.000 N 
ATOM     15  H   UNL     1       5.189   2.894  18.773  0.00  0.00    +0.000 HD
BRANCH  14  20
ATOM     16  C   UNL     1       5.676   4.235  14.745  0.00  0.00    +0.000 A 
ATOM     17  C   UNL     1       7.004   4.641  14.771  0.00  0.00    +0.000 A 
ATOM     18  C   UNL     1       7.650   4.836  15.993  0.00  0.00    +0.000 A 
ATOM     19  C   UNL     1       6.985   4.625  17.212  0.00  0.00    +0.000 A 
ATOM     20  C   UNL     1       5.643   4.197  17.211  0.00  0.00    +0.000 A 
ATOM     21  C   UNL     1       5.013   4.034  15.957  0.00  0.00    +0.000 A 
BRANCH  16  23
ATOM     22  C   UNL     1       6.001   3.477  12.519  0.00  0.00    +0.000 C 
ATOM     23  O   UNL     1       5.141   4.049  13.500  0.00  0.00    +0.000 OA
ENDBRANCH  16  23
BRANCH  19  24
ATOM     24  O   UNL     1       7.815   4.752  18.296  0.00  0.00    +0.000 OA
ATOM     25  C   UNL     1       7.697   5.928  19.078  0.00  0.00    +0.000 C 
ENDBRANCH  19  24
ENDBRANCH  14  20
ENDBRANCH   1  14
TORSDOF 4
ENDMDL
MODEL 9
REMARK VINA RESULT:      -7.4      2.882      6.073
REMARK  Name = 
REMARK  6 active torsions:
REMARK  status: ('A' for Active; 'I' for Inactive)
REMARK    1  A    between atoms: C_1  and  O_2
REMARK    2  A    between atoms: O_2  and  C_3
REMARK    3  A    between atoms: C_6  and  O_7
REMARK    4  A    between atoms: O_7  and  C_8
REMARK    5  A    between atoms: C_9  and  N_10
REMARK    6  A    between atoms: N_10  and  C_11
REMARK                            x       y       z     vdW  Elec       q    Type
REMARK                         _______ _______ _______ _____ _____    ______ ____
ROOT
ATOM      1  C   UNL     1       3.765   3.899  19.146  0.00  0.00    +0.000 A 
ATOM      2  N   UNL     1       3.278   3.201  20.212  0.00  0.00    +0.000 NA
ATOM      3  C   UNL     1       2.426   3.778  21.072  0.00  0.00    +0.000 A 
ATOM      4  N   UNL     1       2.002   2.985  22.115  0.00  0.00    +0.000 N 
ATOM      5  N   UNL     1       1.928   5.018  20.992  0.00  0.00    +0.000 NA
ATOM      6  C   UNL     1       2.433   5.684  19.947  0.00  0.00    +0.000 A 
ATOM      7  N   UNL     1       2.169   6.974  19.591  0.00  0.00    +0.000 N 
ATOM      8  C   UNL     1       2.901   7.249  18.465  0.00  0.00    +0.000 A 
ATOM      9  N   UNL     1       3.613   6.212  18.076  0.00  0.00    +0.000 NA
ATOM     10  C   UNL     1       3.330   5.225  19.000  0.00  0.00    +0.000 A 
ATOM     11  H   UNL     1       2.143   2.010  21.888  0.00  0.00    +0.000 HD
ATOM     12  H   UNL     1       1.089   3.269  22.440  0.00  0.00    +0.000 HD
ATOM     13  H   UNL     1       1.552   7.600  20.085  0.00  0.00    +0.000 HD
ENDROOT
BRANCH   1  14
ATOM     14  N   UNL     1       4.692   3.329  18.258  0.00  0.00    +0.000 N 
ATOM     15  H   UNL     1       4.804   2.338  18.408  0.00  0.00    +0.000 HD
BRANCH  14  20
ATOM     16  C   UNL     1       5.704   4.223  14.788  0.00  0.00    +0.000 A 
ATOM     17  C   UNL     1       6.953   4.791  14.999  0.00  0.00    +0.000 A 
ATOM     18  C   UNL     1       7.439   4.944  16.299  0.00  0.00    +0.000 A 
ATOM     19  C   UNL     1       6.689   4.528  17.412  0.00  0.00    +0.000 A 
ATOM     20  C   UNL     1       5.427   3.934  17.221  0.00  0.00    +0.000 A 
ATOM     21  C   UNL     1       4.956   3.817  15.894  0.00  0.00    +0.000 A 
BRANCH  16  23
ATOM     22  C   UNL     1       6.301   3.552  12.590  0.00  0.00    +0.000 C 
ATOM     23  O   UNL     1       5.328   4.095  13.479  0.00  0.00    +0.000 OA
ENDBRANCH  16  23
BRANCH  19  24
ATOM     24  O   UNL     1       7.380   4.652  18.590  0.00  0.00    +0.000 OA
ATOM     25  C   UNL     1       7.755   5.957  18.996  0.00  0.00    +0.000 C 
ENDBRANCH  19  24
ENDBRANCH  14  20
ENDBRANCH   1  14
TORSDOF 4
ENDMDL
