MODEL 1
REMARK VINA RESULT:      -7.6      0.000      0.000
REMARK  Name = 
REMARK  9 active torsions:
REMARK  status: ('A' for Active; 'I' for Inactive)
REMARK    1  A    between atoms: C_1  and  O_2
REMARK    2  A    between atoms: O_2  and  C_3
REMARK    3  A    between atoms: C_6  and  C_7
REMARK    4  A    between atoms: C_9  and  C_10
REMARK    5  A    between atoms: N_12  and  C_13
REMARK    6  A    between atoms: C_22  and  C_23
REMARK    7  A    between atoms: C_23  and  C_24
REMARK    8  A    between atoms: C_23  and  C_25
REMARK    9  A    between atoms: C_23  and  C_26
REMARK                            x       y       z     vdW  Elec       q    Type
REMARK                         _______ _______ _______ _____ _____    ______ ____
ROOT
ATOM      1  C   UNL     1       0.995  10.650  19.175  0.00  0.00    +0.000 A 
ATOM      2  C   UNL     1      -0.387  10.787  19.741  0.00  0.00    +0.000 A 
ATOM      3  C   UNL     1      -0.870  12.043  19.856  0.00  0.00    +0.000 A 
ATOM      4  N   UNL     1      -0.083  13.114  19.447  0.00  0.00    +0.000 N 
ATOM      5  N   UNL     1      -0.385  14.441  19.482  0.00  0.00    +0.000 NA
ATOM      6  C   UNL     1       0.669  15.058  18.935  0.00  0.00    +0.000 A 
ATOM      7  C   UNL     1       1.664  14.133  18.550  0.00  0.00    +0.000 A 
ATOM      8  C   UNL     1       1.177  12.899  18.900  0.00  0.00    +0.000 A 
ATOM      9  N   UNL     1       1.716  11.657  18.772  0.00  0.00    +0.000 NA
ENDROOT
BRANCH   1  13
ATOM     10  C   UNL     1       2.731   6.742  18.662  0.00  0.00    +0.000 A 
ATOM     11  C   UNL     1       2.749   7.682  17.634  0.00  0.00    +0.000 A 
ATOM     12  C   UNL     1       2.187   8.945  17.823  0.00  0.00    +0.000 A 
ATOM     13  C   UNL     1       1.570   9.276  19.038  0.00  0.00    +0.000 A 
ATOM     14  C   UNL     1       1.550   8.331  20.069  0.00  0.00    +0.000 A 
ATOM     15  C   UNL     1       2.124   7.065  19.877  0.00  0.00    +0.000 A 
BRANCH  10  17
ATOM     16  C   UNL     1       2.404   4.538  17.872  0.00  0.00    +0.000 C 
ATOM     17  O   UNL     1       3.295   5.537  18.352  0.00  0.00    +0.000 OA
ENDBRANCH  10  17
ENDBRANCH   1  13
BRANCH   3  18
ATOM     18  C   UNL     1      -2.250  12.201  20.406  0.00  0.00    +0.000 C 
ATOM     19  O   UNL     1      -3.207  12.017  19.649  0.00  0.00    +0.000 OA
ATOM     20  N   UNL     1      -2.345  12.581  21.737  0.00  0.00    +0.000 N 
ATOM     21  H   UNL     1      -1.472  12.805  22.222  0.00  0.00    +0.000 HD
BRANCH  20  22
ATOM     22  C   UNL     1      -3.543  12.737  22.473  0.00  0.00    +0.000 A 
ATOM     23  C   UNL     1      -3.634  12.377  23.823  0.00  0.00    +0.000 A 
ATOM     24  C   UNL     1      -4.828  12.518  24.529  0.00  0.00    +0.000 A 
ATOM     25  C   UNL     1      -5.945  13.025  23.885  0.00  0.00    +0.000 A 
ATOM     26  F   UNL     1      -7.093  13.153  24.564  0.00  0.00    +0.000 F 
ATOM     27  C   UNL     1      -5.878  13.412  22.552  0.00  0.00    +0.000 A 
ATOM     28  C   UNL     1      -4.674  13.280  21.844  0.00  0.00    +0.000 A 
ENDBRANCH  20  22
ENDBRANCH   3  18
BRANCH   6  29
ATOM     29  C   UNL     1       0.696  16.570  18.816  0.00  0.00    +0.000 C 
ATOM     30  C   UNL     1       0.768  17.197  20.220  0.00  0.00    +0.000 C 
ATOM     31  C   UNL     1       1.920  17.028  17.997  0.00  0.00    +0.000 C 
ATOM     32  C   UNL     1      -0.571  17.097  18.108  0.00  0.00    +0.000 C 
ENDBRANCH   6  29
TORSDOF 5
ENDMDL
MODEL 2
REMARK VINA RESULT:      -7.6      0.409      1.238
REMARK  Name = 
REMARK  9 active torsions:
REMARK  status: ('A' for Active; 'I' for Inactive)
REMARK    1  A    between atoms: C_1  and  O_2
REMARK    2  A    between atoms: O_2  and  C_3
REMARK    3  A    between atoms: C_6  and  C_7
REMARK    4  A    between atoms: C_9  and  C_10
REMARK    5  A    between atoms: N_12  and  C_13
REMARK    6  A    between atoms: C_22  and  C_23
REMARK    7  A    between atoms: C_23  and  C_24
REMARK    8  A    between atoms: C_23  and  C_25
REMARK    9  A    between atoms: C_23  and  C_26
REMARK                            x       y       z     vdW  Elec       q    Type
REMARK                         _______ _______ _______ _____ _____    ______ ____
ROOT
ATOM      1  C   UNL     1       0.926  10.720  19.223  0.00  0.00    +0.000 A 
ATOM      2  C   UNL     1      -0.463  10.867  19.767  0.00  0.00    +0.000 A 
ATOM      3  C   UNL     1      -0.944  12.126  19.862  0.00  0.00    +0.000 A 
ATOM      4  N   UNL     1      -0.147  13.190  19.455  0.00  0.00    +0.000 N 
ATOM      5  N   UNL     1      -0.446  14.518  19.472  0.00  0.00    +0.000 NA
ATOM      6  C   UNL     1       0.617  15.127  18.934  0.00  0.00    +0.000 A 
ATOM      7  C   UNL     1       1.615  14.195  18.573  0.00  0.00    +0.000 A 
ATOM      8  C   UNL     1       1.119  12.966  18.928  0.00  0.00    +0.000 A 
ATOM      9  N   UNL     1       1.656  11.721  18.820  0.00  0.00    +0.000 NA
ENDROOT
BRANCH   1  13
ATOM     10  C   UNL     1       2.652   6.801  18.768  0.00  0.00    +0.000 A 
ATOM     11  C   UNL     1       2.630   7.708  17.711  0.00  0.00    +0.000 A 
ATOM     12  C   UNL     1       2.073   8.976  17.882  0.00  0.00    +0.000 A 
ATOM     13  C   UNL     1       1.500   9.344  19.107  0.00  0.00    +0.000 A 
ATOM     14  C   UNL     1       1.519   8.431  20.166  0.00  0.00    +0.000 A 
ATOM     15  C   UNL     1       2.089   7.160  19.994  0.00  0.00    +0.000 A 
BRANCH  10  17
ATOM     16  C   UNL     1       4.209   5.589  17.465  0.00  0.00    +0.000 C 
ATOM     17  O   UNL     1       3.208   5.587  18.475  0.00  0.00    +0.000 OA
ENDBRANCH  10  17
ENDBRANCH   1  13
BRANCH   3  18
ATOM     18  C   UNL     1      -2.332  12.293  20.390  0.00  0.00    +0.000 C 
ATOM     19  O   UNL     1      -3.270  12.264  19.591  0.00  0.00    +0.000 OA
ATOM     20  N   UNL     1      -2.451  12.505  21.756  0.00  0.00    +0.000 N 
ATOM     21  H   UNL     1      -1.585  12.613  22.289  0.00  0.00    +0.000 HD
BRANCH  20  22
ATOM     22  C   UNL     1      -3.663  12.635  22.473  0.00  0.00    +0.000 A 
ATOM     23  C   UNL     1      -4.858  13.011  21.847  0.00  0.00    +0.000 A 
ATOM     24  C   UNL     1      -6.040  13.154  22.572  0.00  0.00    +0.000 A 
ATOM     25  C   UNL     1      -6.034  12.919  23.938  0.00  0.00    +0.000 A 
ATOM     26  F   UNL     1      -7.170  13.064  24.634  0.00  0.00    +0.000 F 
ATOM     27  C   UNL     1      -4.869  12.522  24.583  0.00  0.00    +0.000 A 
ATOM     28  C   UNL     1      -3.682  12.367  23.851  0.00  0.00    +0.000 A 
ENDBRANCH  20  22
ENDBRANCH   3  18
BRANCH   6  29
ATOM     29  C   UNL     1       0.651  16.637  18.801  0.00  0.00    +0.000 C 
ATOM     30  C   UNL     1      -0.594  17.116  18.030  0.00  0.00    +0.000 C 
ATOM     31  C   UNL     1       0.668  17.304  20.191  0.00  0.00    +0.000 C 
ATOM     32  C   UNL     1       1.910  17.103  18.037  0.00  0.00    +0.000 C 
ENDBRANCH   6  29
TORSDOF 5
ENDMDL
MODEL 3
REMARK VINA RESULT:      -7.6      0.307      1.261
REMARK  Name = 
REMARK  9 active torsions:
REMARK  status: ('A' for Active; 'I' for Inactive)
REMARK    1  A    between atoms: C_1  and  O_2
REMARK    2  A    between atoms: O_2  and  C_3
REMARK    3  A    between atoms: C_6  and  C_7
REMARK    4  A    between atoms: C_9  and  C_10
REMARK    5  A    between atoms: N_12  and  C_13
REMARK    6  A    between atoms: C_22  and  C_23
REMARK    7  A    between atoms: C_23  and  C_24
REMARK    8  A    between atoms: C_23  and  C_25
REMARK    9  A    between atoms: C_23  and  C_26
REMARK                            x       y       z     vdW  Elec       q    Type
REMARK                         _______ _______ _______ _____ _____    ______ ____
ROOT
ATOM      1  C   UNL     1       0.978  10.748  19.163  0.00  0.00    +0.000 A 
ATOM      2  C   UNL     1      -0.412  10.862  19.714  0.00  0.00    +0.000 A 
ATOM      3  C   UNL     1      -0.911  12.111  19.836  0.00  0.00    +0.000 A 
ATOM      4  N   UNL     1      -0.132  13.196  19.449  0.00  0.00    +0.000 N 
ATOM      5  N   UNL     1      -0.451  14.518  19.494  0.00  0.00    +0.000 NA
ATOM      6  C   UNL     1       0.602  15.154  18.966  0.00  0.00    +0.000 A 
ATOM      7  C   UNL     1       1.613  14.246  18.583  0.00  0.00    +0.000 A 
ATOM      8  C   UNL     1       1.136  13.002  18.914  0.00  0.00    +0.000 A 
ATOM      9  N   UNL     1       1.692  11.768  18.779  0.00  0.00    +0.000 NA
ENDROOT
BRANCH   1  13
ATOM     10  C   UNL     1       2.611   6.774  18.864  0.00  0.00    +0.000 A 
ATOM     11  C   UNL     1       2.026   7.228  20.044  0.00  0.00    +0.000 A 
ATOM     12  C   UNL     1       1.496   8.517  20.118  0.00  0.00    +0.000 A 
ATOM     13  C   UNL     1       1.572   9.383  19.018  0.00  0.00    +0.000 A 
ATOM     14  C   UNL     1       2.163   8.927  17.835  0.00  0.00    +0.000 A 
ATOM     15  C   UNL     1       2.686   7.627  17.762  0.00  0.00    +0.000 A 
BRANCH  10  17
ATOM     16  C   UNL     1       3.755   5.036  17.742  0.00  0.00    +0.000 C 
ATOM     17  O   UNL     1       3.108   5.502  18.920  0.00  0.00    +0.000 OA
ENDBRANCH  10  17
ENDBRANCH   1  13
BRANCH   3  18
ATOM     18  C   UNL     1      -2.299  12.247  20.372  0.00  0.00    +0.000 C 
ATOM     19  O   UNL     1      -3.245  12.081  19.597  0.00  0.00    +0.000 OA
ATOM     20  N   UNL     1      -2.414  12.587  21.712  0.00  0.00    +0.000 N 
ATOM     21  H   UNL     1      -1.549  12.800  22.215  0.00  0.00    +0.000 HD
BRANCH  20  22
ATOM     22  C   UNL     1      -3.622  12.715  22.436  0.00  0.00    +0.000 A 
ATOM     23  C   UNL     1      -4.801  13.174  21.835  0.00  0.00    +0.000 A 
ATOM     24  C   UNL     1      -5.979  13.313  22.567  0.00  0.00    +0.000 A 
ATOM     25  C   UNL     1      -5.986  12.991  23.915  0.00  0.00    +0.000 A 
ATOM     26  F   UNL     1      -7.117  13.132  24.618  0.00  0.00    +0.000 F 
ATOM     27  C   UNL     1      -4.837  12.511  24.533  0.00  0.00    +0.000 A 
ATOM     28  C   UNL     1      -3.654  12.361  23.794  0.00  0.00    +0.000 A 
ENDBRANCH  20  22
ENDBRANCH   3  18
BRANCH   6  29
ATOM     29  C   UNL     1       0.613  16.668  18.864  0.00  0.00    +0.000 C 
ATOM     30  C   UNL     1       0.732  17.280  20.272  0.00  0.00    +0.000 C 
ATOM     31  C   UNL     1       1.801  17.145  18.006  0.00  0.00    +0.000 C 
ATOM     32  C   UNL     1      -0.685  17.192  18.210  0.00  0.00    +0.000 C 
ENDBRANCH   6  29
TORSDOF 5
ENDMDL
MODEL 4
REMARK VINA RESULT:      -7.5      0.492      1.274
REMARK  Name = 
REMARK  9 active torsions:
REMARK  status: ('A' for Active; 'I' for Inactive)
REMARK    1  A    between atoms: C_1  and  O_2
REMARK    2  A    between atoms: O_2  and  C_3
REMARK    3  A    between atoms: C_6  and  C_7
REMARK    4  A    between atoms: C_9  and  C_10
REMARK    5  A    between atoms: N_12  and  C_13
REMARK    6  A    between atoms: C_22  and  C_23
REMARK    7  A    between atoms: C_23  and  C_24
REMARK    8  A    between atoms: C_23  and  C_25
REMARK    9  A    between atoms: C_23  and  C_26
REMARK                            x       y       z     vdW  Elec       q    Type
REMARK                         _______ _______ _______ _____ _____    ______ ____
ROOT
ATOM      1  C   UNL     1       0.978  10.756  19.166  0.00  0.00    +0.000 A 
ATOM      2  C   UNL     1      -0.403  10.893  19.736  0.00  0.00    +0.000 A 
ATOM      3  C   UNL     1      -0.887  12.149  19.845  0.00  0.00    +0.000 A 
ATOM      4  N   UNL     1      -0.104  13.219  19.429  0.00  0.00    +0.000 N 
ATOM      5  N   UNL     1      -0.409  14.545  19.457  0.00  0.00    +0.000 NA
ATOM      6  C   UNL     1       0.642  15.162  18.903  0.00  0.00    +0.000 A 
ATOM      7  C   UNL     1       1.638  14.237  18.521  0.00  0.00    +0.000 A 
ATOM      8  C   UNL     1       1.154  13.004  18.878  0.00  0.00    +0.000 A 
ATOM      9  N   UNL     1       1.696  11.762  18.755  0.00  0.00    +0.000 NA
ENDROOT
BRANCH   1  13
ATOM     10  C   UNL     1       2.566   6.761  18.908  0.00  0.00    +0.000 A 
ATOM     11  C   UNL     1       1.992   7.236  20.084  0.00  0.00    +0.000 A 
ATOM     12  C   UNL     1       1.476   8.531  20.145  0.00  0.00    +0.000 A 
ATOM     13  C   UNL     1       1.556   9.383  19.034  0.00  0.00    +0.000 A 
ATOM     14  C   UNL     1       2.136   8.907  17.854  0.00  0.00    +0.000 A 
ATOM     15  C   UNL     1       2.644   7.600  17.795  0.00  0.00    +0.000 A 
BRANCH  10  17
ATOM     16  C   UNL     1       4.424   5.359  19.321  0.00  0.00    +0.000 C 
ATOM     17  O   UNL     1       3.050   5.485  18.976  0.00  0.00    +0.000 OA
ENDBRANCH  10  17
ENDBRANCH   1  13
BRANCH   3  18
ATOM     18  C   UNL     1      -2.267  12.307  20.398  0.00  0.00    +0.000 C 
ATOM     19  O   UNL     1      -3.225  12.062  19.662  0.00  0.00    +0.000 OA
ATOM     20  N   UNL     1      -2.359  12.756  21.708  0.00  0.00    +0.000 N 
ATOM     21  H   UNL     1      -1.488  13.024  22.172  0.00  0.00    +0.000 HD
BRANCH  20  22
ATOM     22  C   UNL     1      -3.554  12.925  22.445  0.00  0.00    +0.000 A 
ATOM     23  C   UNL     1      -3.718  12.380  23.724  0.00  0.00    +0.000 A 
ATOM     24  C   UNL     1      -4.910  12.540  24.431  0.00  0.00    +0.000 A 
ATOM     25  C   UNL     1      -5.951  13.252  23.858  0.00  0.00    +0.000 A 
ATOM     26  F   UNL     1      -7.098  13.397  24.535  0.00  0.00    +0.000 F 
ATOM     27  C   UNL     1      -5.809  13.823  22.599  0.00  0.00    +0.000 A 
ATOM     28  C   UNL     1      -4.606  13.672  21.893  0.00  0.00    +0.000 A 
ENDBRANCH  20  22
ENDBRANCH   3  18
BRANCH   6  29
ATOM     29  C   UNL     1       0.665  16.673  18.776  0.00  0.00    +0.000 C 
ATOM     30  C   UNL     1      -0.605  17.151  18.049  0.00  0.00    +0.000 C 
ATOM     31  C   UNL     1       0.725  17.334  20.168  0.00  0.00    +0.000 C 
ATOM     32  C   UNL     1       1.897  17.147  17.974  0.00  0.00    +0.000 C 
ENDBRANCH   6  29
TORSDOF 5
ENDMDL
MODEL 5
REMARK VINA RESULT:      -7.4      0.700      1.088
REMARK  Name = 
REMARK  9 active torsions:
REMARK  status: ('A' for Active; 'I' for Inactive)
REMARK    1  A    between atoms: C_1  and  O_2
REMARK    2  A    between atoms: O_2  and  C_3
REMARK    3  A    between atoms: C_6  and  C_7
REMARK    4  A    between atoms: C_9  and  C_10
REMARK    5  A    between atoms: N_12  and  C_13
REMARK    6  A    between atoms: C_22  and  C_23
REMARK    7  A    between atoms: C_23  and  C_24
REMARK    8  A    between atoms: C_23  and  C_25
REMARK    9  A    between atoms: C_23  and  C_26
REMARK                            x       y       z     vdW  Elec       q    Type
REMARK                         _______ _______ _______ _____ _____    ______ ____
ROOT
ATOM      1  C   UNL     1       0.856  10.982  19.229  0.00  0.00    +0.000 A 
ATOM      2  C   UNL     1      -0.538  11.145  19.758  0.00  0.00    +0.000 A 
ATOM      3  C   UNL     1      -1.012  12.408  19.829  0.00  0.00    +0.000 A 
ATOM      4  N   UNL     1      -0.205  13.461  19.414  0.00  0.00    +0.000 N 
ATOM      5  N   UNL     1      -0.496  14.791  19.409  0.00  0.00    +0.000 NA
ATOM      6  C   UNL     1       0.577  15.385  18.872  0.00  0.00    +0.000 A 
ATOM      7  C   UNL     1       1.572  14.442  18.534  0.00  0.00    +0.000 A 
ATOM      8  C   UNL     1       1.065  13.222  18.902  0.00  0.00    +0.000 A 
ATOM      9  N   UNL     1       1.596  11.972  18.818  0.00  0.00    +0.000 NA
ENDROOT
BRANCH   1  13
ATOM     10  C   UNL     1       2.563   7.046  18.851  0.00  0.00    +0.000 A 
ATOM     11  C   UNL     1       2.574   7.944  17.787  0.00  0.00    +0.000 A 
ATOM     12  C   UNL     1       2.022   9.217  17.932  0.00  0.00    +0.000 A 
ATOM     13  C   UNL     1       1.422   9.600  19.139  0.00  0.00    +0.000 A 
ATOM     14  C   UNL     1       1.408   8.697  20.207  0.00  0.00    +0.000 A 
ATOM     15  C   UNL     1       1.972   7.420  20.059  0.00  0.00    +0.000 A 
BRANCH  10  17
ATOM     16  C   UNL     1       3.696   5.148  19.690  0.00  0.00    +0.000 C 
ATOM     17  O   UNL     1       3.117   5.826  18.582  0.00  0.00    +0.000 OA
ENDBRANCH  10  17
ENDBRANCH   1  13
BRANCH   3  18
ATOM     18  C   UNL     1      -2.404  12.591  20.342  0.00  0.00    +0.000 C 
ATOM     19  O   UNL     1      -3.340  12.166  19.660  0.00  0.00    +0.000 OA
ATOM     20  N   UNL     1      -2.534  13.266  21.547  0.00  0.00    +0.000 N 
ATOM     21  H   UNL     1      -1.683  13.660  21.956  0.00  0.00    +0.000 HD
BRANCH  20  22
ATOM     22  C   UNL     1      -3.744  13.504  22.239  0.00  0.00    +0.000 A 
ATOM     23  C   UNL     1      -4.631  14.517  21.854  0.00  0.00    +0.000 A 
ATOM     24  C   UNL     1      -5.811  14.752  22.558  0.00  0.00    +0.000 A 
ATOM     25  C   UNL     1      -6.114  13.968  23.660  0.00  0.00    +0.000 A 
ATOM     26  F   UNL     1      -7.244  14.200  24.340  0.00  0.00    +0.000 F 
ATOM     27  C   UNL     1      -5.264  12.940  24.052  0.00  0.00    +0.000 A 
ATOM     28  C   UNL     1      -4.082  12.697  23.336  0.00  0.00    +0.000 A 
ENDBRANCH  20  22
ENDBRANCH   3  18
BRANCH   6  29
ATOM     29  C   UNL     1       0.621  16.893  18.717  0.00  0.00    +0.000 C 
ATOM     30  C   UNL     1       0.634  17.556  20.107  0.00  0.00    +0.000 C 
ATOM     31  C   UNL     1       1.883  17.322  17.943  0.00  0.00    +0.000 C 
ATOM     32  C   UNL     1      -0.610  17.411  17.939  0.00  0.00    +0.000 C 
ENDBRANCH   6  29
TORSDOF 5
ENDMDL
MODEL 6
REMARK VINA RESULT:      -7.4      5.505     11.728
REMARK  Name = 
REMARK  9 active torsions:
REMARK  status: ('A' for Active; 'I' for Inactive)
REMARK    1  A    between atoms: C_1  and  O_2
REMARK    2  A    between atoms: O_2  and  C_3
REMARK    3  A    between atoms: C_6  and  C_7
REMARK    4  A    between atoms: C_9  and  C_10
REMARK    5  A    between atoms: N_12  and  C_13
REMARK    6  A    between atoms: C_22  and  C_23
REMARK    7  A    between atoms: C_23  and  C_24
REMARK    8  A    between atoms: C_23  and  C_25
REMARK    9  A    between atoms: C_23  and  C_26
REMARK                            x       y       z     vdW  Elec       q    Type
REMARK                         _______ _______ _______ _____ _____    ______ ____
ROOT
ATOM      1  C   UNL     1       2.214   8.370  18.756  0.00  0.00    +0.000 A 
ATOM      2  C   UNL     1       3.248   8.082  17.709  0.00  0.00    +0.000 A 
ATOM      3  C   UNL     1       3.748   6.827  17.685  0.00  0.00    +0.000 A 
ATOM      4  N   UNL     1       3.285   5.892  18.604  0.00  0.00    +0.000 N 
ATOM      5  N   UNL     1       3.660   4.591  18.741  0.00  0.00    +0.000 NA
ATOM      6  C   UNL     1       2.894   4.104  19.724  0.00  0.00    +0.000 A 
ATOM      7  C   UNL     1       2.023   5.091  20.235  0.00  0.00    +0.000 A 
ATOM      8  C   UNL     1       2.297   6.231  19.521  0.00  0.00    +0.000 A 
ATOM      9  N   UNL     1       1.767   7.481  19.597  0.00  0.00    +0.000 NA
ENDROOT
BRANCH   1  13
ATOM     10  C   UNL     1       0.480  12.300  19.068  0.00  0.00    +0.000 A 
ATOM     11  C   UNL     1      -0.093  11.204  19.708  0.00  0.00    +0.000 A 
ATOM     12  C   UNL     1       0.489   9.940  19.600  0.00  0.00    +0.000 A 
ATOM     13  C   UNL     1       1.639   9.749  18.823  0.00  0.00    +0.000 A 
ATOM     14  C   UNL     1       2.213  10.849  18.177  0.00  0.00    +0.000 A 
ATOM     15  C   UNL     1       1.630  12.120  18.296  0.00  0.00    +0.000 A 
BRANCH  10  17
ATOM     16  C   UNL     1       0.567  14.661  18.997  0.00  0.00    +0.000 C 
ATOM     17  O   UNL     1      -0.189  13.480  19.233  0.00  0.00    +0.000 OA
ENDBRANCH  10  17
ENDBRANCH   1  13
BRANCH   3  18
ATOM     18  C   UNL     1       4.771   6.516  16.640  0.00  0.00    +0.000 C 
ATOM     19  O   UNL     1       5.753   7.256  16.542  0.00  0.00    +0.000 OA
ATOM     20  N   UNL     1       4.513   5.420  15.830  0.00  0.00    +0.000 N 
ATOM     21  H   UNL     1       3.609   4.954  15.948  0.00  0.00    +0.000 HD
BRANCH  20  22
ATOM     22  C   UNL     1       5.364   4.915  14.820  0.00  0.00    +0.000 A 
ATOM     23  C   UNL     1       6.724   5.240  14.766  0.00  0.00    +0.000 A 
ATOM     24  C   UNL     1       7.546   4.749  13.752  0.00  0.00    +0.000 A 
ATOM     25  C   UNL     1       7.007   3.924  12.779  0.00  0.00    +0.000 A 
ATOM     26  F   UNL     1       7.796   3.459  11.801  0.00  0.00    +0.000 F 
ATOM     27  C   UNL     1       5.665   3.565  12.818  0.00  0.00    +0.000 A 
ATOM     28  C   UNL     1       4.841   4.050  13.845  0.00  0.00    +0.000 A 
ENDBRANCH  20  22
ENDBRANCH   3  18
BRANCH   6  29
ATOM     29  C   UNL     1       3.045   2.663  20.172  0.00  0.00    +0.000 C 
ATOM     30  C   UNL     1       2.566   2.521  21.629  0.00  0.00    +0.000 C 
ATOM     31  C   UNL     1       2.210   1.726  19.276  0.00  0.00    +0.000 C 
ATOM     32  C   UNL     1       4.517   2.204  20.092  0.00  0.00    +0.000 C 
ENDBRANCH   6  29
TORSDOF 5
ENDMDL
MODEL 7
REMARK VINA RESULT:      -7.3      3.323      7.984
REMARK  Name = 
REMARK  9 active torsions:
REMARK  status: ('A' for Active; 'I' for Inactive)
REMARK    1  A    between atoms: C_1  and  O_2
REMARK    2  A    between atoms: O_2  and  C_3
REMARK    3  A    between atoms: C_6  and  C_7
REMARK    4  A    between atoms: C_9  and  C_10
REMARK    5  A    between atoms: N_12  and  C_13
REMARK    6  A    between atoms: C_22  and  C_23
REMARK    7  A    between atoms: C_23  and  C_24
REMARK    8  A    between atoms: C_23  and  C_25
REMARK    9  A    between atoms: C_23  and  C_26
REMARK                            x       y       z     vdW  Elec       q    Type
REMARK                         _______ _______ _______ _____ _____    ______ ____
ROOT
ATOM      1  C   UNL     1      -2.053  12.794  21.782  0.00  0.00    +0.000 A 
ATOM      2  C   UNL     1      -1.266  11.519  21.734  0.00  0.00    +0.000 A 
ATOM      3  C   UNL     1      -0.031  11.593  21.192  0.00  0.00    +0.000 A 
ATOM      4  N   UNL     1       0.435  12.817  20.725  0.00  0.00    +0.000 N 
ATOM      5  N   UNL     1       1.637  13.095  20.150  0.00  0.00    +0.000 NA
ATOM      6  C   UNL     1       1.624  14.415  19.926  0.00  0.00    +0.000 A 
ATOM      7  C   UNL     1       0.409  14.997  20.347  0.00  0.00    +0.000 A 
ATOM      8  C   UNL     1      -0.346  13.961  20.838  0.00  0.00    +0.000 A 
ATOM      9  N   UNL     1      -1.600  13.942  21.365  0.00  0.00    +0.000 NA
ENDROOT
BRANCH   1  13
ATOM     10  C   UNL     1      -5.955  12.714  23.604  0.00  0.00    +0.000 A 
ATOM     11  C   UNL     1      -4.797  12.609  24.370  0.00  0.00    +0.000 A 
ATOM     12  C   UNL     1      -3.542  12.644  23.761  0.00  0.00    +0.000 A 
ATOM     13  C   UNL     1      -3.429  12.755  22.368  0.00  0.00    +0.000 A 
ATOM     14  C   UNL     1      -4.592  12.857  21.599  0.00  0.00    +0.000 A 
ATOM     15  C   UNL     1      -5.852  12.831  22.216  0.00  0.00    +0.000 A 
BRANCH  10  17
ATOM     16  C   UNL     1      -7.846  13.867  24.429  0.00  0.00    +0.000 C 
ATOM     17  O   UNL     1      -7.123  12.649  24.310  0.00  0.00    +0.000 OA
ENDBRANCH  10  17
ENDBRANCH   1  13
BRANCH   3  18
ATOM     18  C   UNL     1       0.776  10.336  21.146  0.00  0.00    +0.000 C 
ATOM     19  O   UNL     1       1.335   9.960  22.179  0.00  0.00    +0.000 OA
ATOM     20  N   UNL     1       0.860   9.700  19.916  0.00  0.00    +0.000 N 
ATOM     21  H   UNL     1       0.436  10.175  19.115  0.00  0.00    +0.000 HD
BRANCH  20  22
ATOM     22  C   UNL     1       1.521   8.477  19.656  0.00  0.00    +0.000 A 
ATOM     23  C   UNL     1       1.461   7.399  20.546  0.00  0.00    +0.000 A 
ATOM     24  C   UNL     1       2.135   6.206  20.285  0.00  0.00    +0.000 A 
ATOM     25  C   UNL     1       2.877   6.085  19.121  0.00  0.00    +0.000 A 
ATOM     26  F   UNL     1       3.530   4.941  18.875  0.00  0.00    +0.000 F 
ATOM     27  C   UNL     1       2.937   7.130  18.207  0.00  0.00    +0.000 A 
ATOM     28  C   UNL     1       2.250   8.326  18.465  0.00  0.00    +0.000 A 
ENDBRANCH  20  22
ENDBRANCH   3  18
BRANCH   6  29
ATOM     29  C   UNL     1       2.813  15.093  19.270  0.00  0.00    +0.000 C 
ATOM     30  C   UNL     1       2.357  16.404  18.605  0.00  0.00    +0.000 C 
ATOM     31  C   UNL     1       3.900  15.411  20.316  0.00  0.00    +0.000 C 
ATOM     32  C   UNL     1       3.445  14.189  18.190  0.00  0.00    +0.000 C 
ENDBRANCH   6  29
TORSDOF 5
ENDMDL
MODEL 8
REMARK VINA RESULT:      -7.3      1.268      1.813
REMARK  Name = 
REMARK  9 active torsions:
REMARK  status: ('A' for Active; 'I' for Inactive)
REMARK    1  A    between atoms: C_1  and  O_2
REMARK    2  A    between atoms: O_2  and  C_3
REMARK    3  A    between atoms: C_6  and  C_7
REMARK    4  A    between atoms: C_9  and  C_10
REMARK    5  A    between atoms: N_12  and  C_13
REMARK    6  A    between atoms: C_22  and  C_23
REMARK    7  A    between atoms: C_23  and  C_24
REMARK    8  A    between atoms: C_23  and  C_25
REMARK    9  A    between atoms: C_23  and  C_26
REMARK                            x       y       z     vdW  Elec       q    Type
REMARK                         _______ _______ _______ _____ _____    ______ ____
ROOT
ATOM      1  C   UNL     1       0.546  10.938  19.719  0.00  0.00    +0.000 A 
ATOM      2  C   UNL     1      -0.584  11.000  20.703  0.00  0.00    +0.000 A 
ATOM      3  C   UNL     1      -1.136  12.215  20.910  0.00  0.00    +0.000 A 
ATOM      4  N   UNL     1      -0.645  13.314  20.214  0.00  0.00    +0.000 N 
ATOM      5  N   UNL     1      -1.062  14.607  20.283  0.00  0.00    +0.000 NA
ATOM      6  C   UNL     1      -0.317  15.267  19.389  0.00  0.00    +0.000 A 
ATOM      7  C   UNL     1       0.594  14.404  18.741  0.00  0.00    +0.000 A 
ATOM      8  C   UNL     1       0.384  13.165  19.291  0.00  0.00    +0.000 A 
ATOM      9  N   UNL     1       0.984  11.968  19.051  0.00  0.00    +0.000 NA
ENDROOT
BRANCH   1  13
ATOM     10  C   UNL     1       2.340   7.070  19.110  0.00  0.00    +0.000 A 
ATOM     11  C   UNL     1       1.832   7.445  20.352  0.00  0.00    +0.000 A 
ATOM     12  C   UNL     1       1.249   8.700  20.526  0.00  0.00    +0.000 A 
ATOM     13  C   UNL     1       1.192   9.613  19.464  0.00  0.00    +0.000 A 
ATOM     14  C   UNL     1       1.705   9.238  18.218  0.00  0.00    +0.000 A 
ATOM     15  C   UNL     1       2.283   7.971  18.045  0.00  0.00    +0.000 A 
BRANCH  10  17
ATOM     16  C   UNL     1       3.465   5.440  17.820  0.00  0.00    +0.000 C 
ATOM     17  O   UNL     1       2.902   5.826  19.068  0.00  0.00    +0.000 OA
ENDBRANCH  10  17
ENDBRANCH   1  13
BRANCH   3  18
ATOM     18  C   UNL     1      -2.273  12.296  21.878  0.00  0.00    +0.000 C 
ATOM     19  O   UNL     1      -2.182  11.678  22.941  0.00  0.00    +0.000 OA
ATOM     20  N   UNL     1      -3.370  13.046  21.480  0.00  0.00    +0.000 N 
ATOM     21  H   UNL     1      -3.360  13.419  20.527  0.00  0.00    +0.000 HD
BRANCH  20  22
ATOM     22  C   UNL     1      -4.526  13.300  22.254  0.00  0.00    +0.000 A 
ATOM     23  C   UNL     1      -4.571  14.330  23.201  0.00  0.00    +0.000 A 
ATOM     24  C   UNL     1      -5.713  14.556  23.970  0.00  0.00    +0.000 A 
ATOM     25  C   UNL     1      -6.824  13.748  23.793  0.00  0.00    +0.000 A 
ATOM     26  F   UNL     1      -7.916  13.962  24.538  0.00  0.00    +0.000 F 
ATOM     27  C   UNL     1      -6.816  12.732  22.844  0.00  0.00    +0.000 A 
ATOM     28  C   UNL     1      -5.672  12.512  22.063  0.00  0.00    +0.000 A 
ENDBRANCH  20  22
ENDBRANCH   3  18
BRANCH   6  29
ATOM     29  C   UNL     1      -0.494  16.762  19.196  0.00  0.00    +0.000 C 
ATOM     30  C   UNL     1      -0.292  17.118  17.711  0.00  0.00    +0.000 C 
ATOM     31  C   UNL     1      -1.906  17.201  19.631  0.00  0.00    +0.000 C 
ATOM     32  C   UNL     1       0.530  17.558  20.035  0.00  0.00    +0.000 C 
ENDBRANCH   6  29
TORSDOF 5
ENDMDL
MODEL 9
REMARK VINA RESULT:      -7.3      5.213     11.307
REMARK  Name = 
REMARK  9 active torsions:
REMARK  status: ('A' for Active; 'I' for Inactive)
REMARK    1  A    between atoms: C_1  and  O_2
REMARK    2  A    between atoms: O_2  and  C_3
REMARK    3  A    between atoms: C_6  and  C_7
REMARK    4  A    between atoms: C_9  and  C_10
REMARK    5  A    between atoms: N_12  and  C_13
REMARK    6  A    between atoms: C_22  and  C_23
REMARK    7  A    between atoms: C_23  and  C_24
REMARK    8  A    between atoms: C_23  and  C_25
REMARK    9  A    between atoms: C_23  and  C_26
REMARK                            x       y       z     vdW  Elec       q    Type
REMARK                         _______ _______ _______ _____ _____    ______ ____
ROOT
ATOM      1  C   UNL     1       1.457   8.395  20.063  0.00  0.00    +0.000 A 
ATOM      2  C   UNL     1       2.330   8.282  18.849  0.00  0.00    +0.000 A 
ATOM      3  C   UNL     1       2.821   7.055  18.571  0.00  0.00    +0.000 A 
ATOM      4  N   UNL     1       2.495   5.988  19.401  0.00  0.00    +0.000 N 
ATOM      5  N   UNL     1       2.887   4.689  19.293  0.00  0.00    +0.000 NA
ATOM      6  C   UNL     1       2.269   4.049  20.293  0.00  0.00    +0.000 A 
ATOM      7  C   UNL     1       1.481   4.934  21.061  0.00  0.00    +0.000 A 
ATOM      8  C   UNL     1       1.649   6.170  20.489  0.00  0.00    +0.000 A 
ATOM      9  N   UNL     1       1.135   7.385  20.821  0.00  0.00    +0.000 NA
ENDROOT
BRANCH   1  13
ATOM     10  C   UNL     1      -0.171  12.215  21.204  0.00  0.00    +0.000 A 
ATOM     11  C   UNL     1      -0.353  11.085  21.998  0.00  0.00    +0.000 A 
ATOM     12  C   UNL     1       0.189   9.858  21.614  0.00  0.00    +0.000 A 
ATOM     13  C   UNL     1       0.897   9.738  20.410  0.00  0.00    +0.000 A 
ATOM     14  C   UNL     1       1.076  10.871  19.612  0.00  0.00    +0.000 A 
ATOM     15  C   UNL     1       0.537  12.106  20.006  0.00  0.00    +0.000 A 
BRANCH  10  17
ATOM     16  C   UNL     1      -1.168  13.325  23.038  0.00  0.00    +0.000 C 
ATOM     17  O   UNL     1      -0.763  13.353  21.676  0.00  0.00    +0.000 OA
ENDBRANCH  10  17
ENDBRANCH   1  13
BRANCH   3  18
ATOM     18  C   UNL     1       3.684   6.919  17.359  0.00  0.00    +0.000 C 
ATOM     19  O   UNL     1       3.725   7.859  16.560  0.00  0.00    +0.000 OA
ATOM     20  N   UNL     1       4.353   5.713  17.209  0.00  0.00    +0.000 N 
ATOM     21  H   UNL     1       4.147   4.977  17.889  0.00  0.00    +0.000 HD
BRANCH  20  22
ATOM     22  C   UNL     1       5.257   5.388  16.171  0.00  0.00    +0.000 A 
ATOM     23  C   UNL     1       6.587   5.827  16.184  0.00  0.00    +0.000 A 
ATOM     24  C   UNL     1       7.461   5.515  15.143  0.00  0.00    +0.000 A 
ATOM     25  C   UNL     1       7.008   4.755  14.078  0.00  0.00    +0.000 A 
ATOM     26  F   UNL     1       7.847   4.462  13.076  0.00  0.00    +0.000 F 
ATOM     27  C   UNL     1       5.700   4.286  14.049  0.00  0.00    +0.000 A 
ATOM     28  C   UNL     1       4.823   4.591  15.101  0.00  0.00    +0.000 A 
ENDBRANCH  20  22
ENDBRANCH   3  18
BRANCH   6  29
ATOM     29  C   UNL     1       2.483   2.562  20.500  0.00  0.00    +0.000 C 
ATOM     30  C   UNL     1       1.852   2.130  21.837  0.00  0.00    +0.000 C 
ATOM     31  C   UNL     1       1.836   1.756  19.356  0.00  0.00    +0.000 C 
ATOM     32  C   UNL     1       3.987   2.213  20.533  0.00  0.00    +0.000 C 
ENDBRANCH   6  29
TORSDOF 5
ENDMDL
