MODEL 1
REMARK VINA RESULT:      -7.8      0.000      0.000
REMARK  Name = 
REMARK  4 active torsions:
REMARK  status: ('A' for Active; 'I' for Inactive)
REMARK    1  A    between atoms: N_7  and  S_8
REMARK    2  A    between atoms: S_8  and  C_11
REMARK    3  A    between atoms: N_21  and  C_22
REMARK    4  A    between atoms: C_22  and  C_23
REMARK                            x       y       z     vdW  Elec       q    Type
REMARK                         _______ _______ _______ _____ _____    ______ ____
ROOT
ATOM      1  O   UNL     1       1.555   7.947  21.365  0.00  0.00    +0.000 OA
ATOM      2  C   UNL     1       1.514   8.318  20.201  0.00  0.00    +0.000 C 
ATOM      3  C   UNL     1       0.702   9.419  19.810  0.00  0.00    +0.000 A 
ATOM      4  N   UNL     1      -0.454   9.832  20.384  0.00  0.00    +0.000 N 
ATOM      5  N   UNL     1      -0.961  10.931  19.791  0.00  0.00    +0.000 NA
ATOM      6  C   UNL     1      -0.010  11.271  18.917  0.00  0.00    +0.000 A 
ATOM      7  N   UNL     1      -0.062  12.527  18.336  0.00  0.00    +0.000 N 
ATOM      8  C   UNL     1       0.962  10.273  18.770  0.00  0.00    +0.000 A 
ATOM      9  C   UNL     1       2.141  10.011  17.915  0.00  0.00    +0.000 C 
ATOM     10  C   UNL     1       2.328   8.460  17.826  0.00  0.00    +0.000 C 
ATOM     11  N   UNL     1       2.202   7.740  19.130  0.00  0.00    +0.000 N 
ATOM     12  H   UNL     1      -0.952   9.396  21.154  0.00  0.00    +0.000 HD
ATOM     13  H   UNL     1      -1.028  12.851  18.331  0.00  0.00    +0.000 HD
ENDROOT
BRANCH   7  14
ATOM     14  S   UNL     1       0.903  13.701  19.133  0.00  0.00    +0.000 S 
ATOM     15  O   UNL     1       1.183  13.305  20.500  0.00  0.00    +0.000 OA
ATOM     16  O   UNL     1       1.973  14.036  18.222  0.00  0.00    +0.000 OA
BRANCH  14  17
ATOM     17  C   UNL     1      -0.183  15.117  19.230  0.00  0.00    +0.000 A 
ATOM     18  C   UNL     1      -1.089  15.246  20.288  0.00  0.00    +0.000 A 
ATOM     19  C   UNL     1      -1.902  16.380  20.369  0.00  0.00    +0.000 A 
ATOM     20  C   UNL     1      -1.795  17.388  19.408  0.00  0.00    +0.000 A 
ATOM     21  C   UNL     1      -0.882  17.258  18.363  0.00  0.00    +0.000 A 
ATOM     22 CL   UNL     1      -0.728  18.517  17.203  0.00  0.00    +0.000 Cl
ATOM     23  C   UNL     1      -0.077  16.123  18.263  0.00  0.00    +0.000 A 
ENDBRANCH  14  17
ENDBRANCH   7  14
BRANCH  11  24
ATOM     24  C   UNL     1       2.866   6.436  19.273  0.00  0.00    +0.000 C 
BRANCH  24  25
ATOM     25  C   UNL     1       3.667   5.914  18.047  0.00  0.00    +0.000 C 
ATOM     26  C   UNL     1       3.428   4.421  17.804  0.00  0.00    +0.000 C 
ATOM     27  C   UNL     1       4.196   3.548  18.784  0.00  0.00    +0.000 C 
ATOM     28  N   UNL     1       5.634   3.792  18.715  0.00  0.00    +0.000 NA
ATOM     29  C   UNL     1       5.984   5.196  18.924  0.00  0.00    +0.000 C 
ATOM     30  C   UNL     1       5.179   6.191  18.088  0.00  0.00    +0.000 C 
ATOM     31  H   UNL     1       5.982   3.485  17.807  0.00  0.00    +0.000 HD
ENDBRANCH  24  25
ENDBRANCH  11  24
TORSDOF 4
ENDMDL
MODEL 2
REMARK VINA RESULT:      -7.7      1.082      1.414
REMARK  Name = 
REMARK  4 active torsions:
REMARK  status: ('A' for Active; 'I' for Inactive)
REMARK    1  A    between atoms: N_7  and  S_8
REMARK    2  A    between atoms: S_8  and  C_11
REMARK    3  A    between atoms: N_21  and  C_22
REMARK    4  A    between atoms: C_22  and  C_23
REMARK                            x       y       z     vdW  Elec       q    Type
REMARK                         _______ _______ _______ _____ _____    ______ ____
ROOT
ATOM      1  O   UNL     1       1.543   8.000  21.460  0.00  0.00    +0.000 OA
ATOM      2  C   UNL     1       1.491   8.334  20.286  0.00  0.00    +0.000 C 
ATOM      3  C   UNL     1       0.705   9.448  19.874  0.00  0.00    +0.000 A 
ATOM      4  N   UNL     1      -0.426   9.915  20.456  0.00  0.00    +0.000 N 
ATOM      5  N   UNL     1      -0.909  11.010  19.837  0.00  0.00    +0.000 NA
ATOM      6  C   UNL     1       0.034  11.292  18.934  0.00  0.00    +0.000 A 
ATOM      7  N   UNL     1       0.009  12.529  18.314  0.00  0.00    +0.000 N 
ATOM      8  C   UNL     1       0.972  10.259  18.802  0.00  0.00    +0.000 A 
ATOM      9  C   UNL     1       2.124   9.932  17.933  0.00  0.00    +0.000 C 
ATOM     10  C   UNL     1       2.261   8.375  17.892  0.00  0.00    +0.000 C 
ATOM     11  N   UNL     1       2.139   7.701  19.221  0.00  0.00    +0.000 N 
ATOM     12  H   UNL     1      -0.921   9.520  21.249  0.00  0.00    +0.000 HD
ATOM     13  H   UNL     1      -0.946  12.883  18.317  0.00  0.00    +0.000 HD
ENDROOT
BRANCH   7  14
ATOM     14  S   UNL     1       1.026  13.697  19.054  0.00  0.00    +0.000 S 
ATOM     15  O   UNL     1       1.429  13.271  20.380  0.00  0.00    +0.000 OA
ATOM     16  O   UNL     1       2.008  14.070  18.061  0.00  0.00    +0.000 OA
BRANCH  14  17
ATOM     17  C   UNL     1      -0.065  15.095  19.281  0.00  0.00    +0.000 A 
ATOM     18  C   UNL     1       0.018  16.205  18.433  0.00  0.00    +0.000 A 
ATOM     19  C   UNL     1      -0.870  17.272  18.602  0.00  0.00    +0.000 A 
ATOM     20  C   UNL     1      -1.846  17.219  19.598  0.00  0.00    +0.000 A 
ATOM     21  C   UNL     1      -1.930  16.104  20.431  0.00  0.00    +0.000 A 
ATOM     22 CL   UNL     1      -3.158  16.028  21.632  0.00  0.00    +0.000 Cl
ATOM     23  C   UNL     1      -1.040  15.041  20.283  0.00  0.00    +0.000 A 
ENDBRANCH  14  17
ENDBRANCH   7  14
BRANCH  11  24
ATOM     24  C   UNL     1       2.765   6.382  19.394  0.00  0.00    +0.000 C 
BRANCH  24  25
ATOM     25  C   UNL     1       3.500   5.783  18.162  0.00  0.00    +0.000 C 
ATOM     26  C   UNL     1       3.195   4.292  17.985  0.00  0.00    +0.000 C 
ATOM     27  C   UNL     1       3.965   3.427  18.972  0.00  0.00    +0.000 C 
ATOM     28  N   UNL     1       5.407   3.611  18.843  0.00  0.00    +0.000 NA
ATOM     29  C   UNL     1       5.819   5.006  18.986  0.00  0.00    +0.000 C 
ATOM     30  C   UNL     1       5.022   6.001  18.140  0.00  0.00    +0.000 C 
ATOM     31  H   UNL     1       5.711   3.256  17.936  0.00  0.00    +0.000 HD
ENDBRANCH  24  25
ENDBRANCH  11  24
TORSDOF 4
ENDMDL
MODEL 3
REMARK VINA RESULT:      -7.6      8.225     10.709
REMARK  Name = 
REMARK  4 active torsions:
REMARK  status: ('A' for Active; 'I' for Inactive)
REMARK    1  A    between atoms: N_7  and  S_8
REMARK    2  A    between atoms: S_8  and  C_11
REMARK    3  A    between atoms: N_21  and  C_22
REMARK    4  A    between atoms: C_22  and  C_23
REMARK                            x       y       z     vdW  Elec       q    Type
REMARK                         _______ _______ _______ _____ _____    ______ ____
ROOT
ATOM      1  O   UNL     1       6.394   4.869  19.924  0.00  0.00    +0.000 OA
ATOM      2  C   UNL     1       5.577   4.635  19.045  0.00  0.00    +0.000 C 
ATOM      3  C   UNL     1       5.615   5.332  17.804  0.00  0.00    +0.000 A 
ATOM      4  N   UNL     1       6.068   6.589  17.583  0.00  0.00    +0.000 N 
ATOM      5  N   UNL     1       5.996   6.941  16.283  0.00  0.00    +0.000 NA
ATOM      6  C   UNL     1       5.614   5.811  15.682  0.00  0.00    +0.000 A 
ATOM      7  N   UNL     1       5.721   5.724  14.305  0.00  0.00    +0.000 N 
ATOM      8  C   UNL     1       5.201   4.833  16.597  0.00  0.00    +0.000 A 
ATOM      9  C   UNL     1       4.588   3.488  16.557  0.00  0.00    +0.000 C 
ATOM     10  C   UNL     1       3.795   3.287  17.891  0.00  0.00    +0.000 C 
ATOM     11  N   UNL     1       4.526   3.716  19.123  0.00  0.00    +0.000 N 
ATOM     12  H   UNL     1       6.407   7.254  18.270  0.00  0.00    +0.000 HD
ATOM     13  H   UNL     1       5.677   6.662  13.908  0.00  0.00    +0.000 HD
ENDROOT
BRANCH   7  14
ATOM     14  S   UNL     1       7.166   4.971  13.768  0.00  0.00    +0.000 S 
ATOM     15  O   UNL     1       7.984   5.896  13.006  0.00  0.00    +0.000 OA
ATOM     16  O   UNL     1       7.706   4.265  14.907  0.00  0.00    +0.000 OA
BRANCH  14  17
ATOM     17  C   UNL     1       6.576   3.746  12.608  0.00  0.00    +0.000 A 
ATOM     18  C   UNL     1       7.441   2.765  12.110  0.00  0.00    +0.000 A 
ATOM     19  C   UNL     1       6.952   1.791  11.234  0.00  0.00    +0.000 A 
ATOM     20  C   UNL     1       5.602   1.786  10.876  0.00  0.00    +0.000 A 
ATOM     21  C   UNL     1       4.744   2.759  11.386  0.00  0.00    +0.000 A 
ATOM     22 CL   UNL     1       3.077   2.727  10.971  0.00  0.00    +0.000 Cl
ATOM     23  C   UNL     1       5.224   3.746  12.247  0.00  0.00    +0.000 A 
ENDBRANCH  14  17
ENDBRANCH   7  14
BRANCH  11  24
ATOM     24  C   UNL     1       4.148   3.105  20.405  0.00  0.00    +0.000 C 
BRANCH  24  25
ATOM     25  C   UNL     1       3.008   3.795  21.206  0.00  0.00    +0.000 C 
ATOM     26  C   UNL     1       1.918   2.800  21.616  0.00  0.00    +0.000 C 
ATOM     27  C   UNL     1       1.001   2.442  20.457  0.00  0.00    +0.000 C 
ATOM     28  N   UNL     1       0.348   3.622  19.897  0.00  0.00    +0.000 NA
ATOM     29  C   UNL     1       1.297   4.651  19.476  0.00  0.00    +0.000 C 
ATOM     30  C   UNL     1       2.363   5.007  20.513  0.00  0.00    +0.000 C 
ATOM     31  H   UNL     1      -0.292   4.010  20.589  0.00  0.00    +0.000 HD
ENDBRANCH  24  25
ENDBRANCH  11  24
TORSDOF 4
ENDMDL
MODEL 4
REMARK VINA RESULT:      -7.6      1.005      1.300
REMARK  Name = 
REMARK  4 active torsions:
REMARK  status: ('A' for Active; 'I' for Inactive)
REMARK    1  A    between atoms: N_7  and  S_8
REMARK    2  A    between atoms: S_8  and  C_11
REMARK    3  A    between atoms: N_21  and  C_22
REMARK    4  A    between atoms: C_22  and  C_23
REMARK                            x       y       z     vdW  Elec       q    Type
REMARK                         _______ _______ _______ _____ _____    ______ ____
ROOT
ATOM      1  O   UNL     1       1.532   8.006  21.426  0.00  0.00    +0.000 OA
ATOM      2  C   UNL     1       1.488   8.356  20.256  0.00  0.00    +0.000 C 
ATOM      3  C   UNL     1       0.681   9.455  19.847  0.00  0.00    +0.000 A 
ATOM      4  N   UNL     1      -0.470   9.885  20.419  0.00  0.00    +0.000 N 
ATOM      5  N   UNL     1      -0.972  10.976  19.808  0.00  0.00    +0.000 NA
ATOM      6  C   UNL     1      -0.023  11.294  18.923  0.00  0.00    +0.000 A 
ATOM      7  N   UNL     1      -0.070  12.539  18.319  0.00  0.00    +0.000 N 
ATOM      8  C   UNL     1       0.942  10.287  18.791  0.00  0.00    +0.000 A 
ATOM      9  C   UNL     1       2.115  10.002  17.935  0.00  0.00    +0.000 C 
ATOM     10  C   UNL     1       2.292   8.449  17.875  0.00  0.00    +0.000 C 
ATOM     11  N   UNL     1       2.168   7.754  19.192  0.00  0.00    +0.000 N 
ATOM     12  H   UNL     1      -0.967   9.466  21.199  0.00  0.00    +0.000 HD
ATOM     13  H   UNL     1      -1.034  12.869  18.313  0.00  0.00    +0.000 HD
ENDROOT
BRANCH   7  14
ATOM     14  S   UNL     1       0.906  13.721  19.090  0.00  0.00    +0.000 S 
ATOM     15  O   UNL     1       1.203  13.341  20.458  0.00  0.00    +0.000 OA
ATOM     16  O   UNL     1       1.964  14.045  18.161  0.00  0.00    +0.000 OA
BRANCH  14  17
ATOM     17  C   UNL     1      -0.178  15.140  19.185  0.00  0.00    +0.000 A 
ATOM     18  C   UNL     1      -1.096  15.264  20.234  0.00  0.00    +0.000 A 
ATOM     19  C   UNL     1      -1.907  16.399  20.314  0.00  0.00    +0.000 A 
ATOM     20  C   UNL     1      -1.788  17.412  19.361  0.00  0.00    +0.000 A 
ATOM     21  C   UNL     1      -0.864  17.287  18.325  0.00  0.00    +0.000 A 
ATOM     22 CL   UNL     1      -0.695  18.554  17.175  0.00  0.00    +0.000 Cl
ATOM     23  C   UNL     1      -0.060  16.152  18.226  0.00  0.00    +0.000 A 
ENDBRANCH  14  17
ENDBRANCH   7  14
BRANCH  11  24
ATOM     24  C   UNL     1       2.825   6.448  19.356  0.00  0.00    +0.000 C 
BRANCH  24  25
ATOM     25  C   UNL     1       1.924   5.186  19.243  0.00  0.00    +0.000 C 
ATOM     26  C   UNL     1       2.347   4.095  20.232  0.00  0.00    +0.000 C 
ATOM     27  C   UNL     1       3.591   3.352  19.771  0.00  0.00    +0.000 C 
ATOM     28  N   UNL     1       3.398   2.728  18.465  0.00  0.00    +0.000 NA
ATOM     29  C   UNL     1       2.981   3.679  17.436  0.00  0.00    +0.000 C 
ATOM     30  C   UNL     1       1.815   4.585  17.832  0.00  0.00    +0.000 C 
ATOM     31  H   UNL     1       2.702   1.987  18.548  0.00  0.00    +0.000 HD
ENDBRANCH  24  25
ENDBRANCH  11  24
TORSDOF 4
ENDMDL
MODEL 5
REMARK VINA RESULT:      -7.6      1.200      1.695
REMARK  Name = 
REMARK  4 active torsions:
REMARK  status: ('A' for Active; 'I' for Inactive)
REMARK    1  A    between atoms: N_7  and  S_8
REMARK    2  A    between atoms: S_8  and  C_11
REMARK    3  A    between atoms: N_21  and  C_22
REMARK    4  A    between atoms: C_22  and  C_23
REMARK                            x       y       z     vdW  Elec       q    Type
REMARK                         _______ _______ _______ _____ _____    ______ ____
ROOT
ATOM      1  O   UNL     1       1.282   8.255  21.496  0.00  0.00    +0.000 OA
ATOM      2  C   UNL     1       1.294   8.593  20.321  0.00  0.00    +0.000 C 
ATOM      3  C   UNL     1       0.707   9.821  19.904  0.00  0.00    +0.000 A 
ATOM      4  N   UNL     1      -0.335  10.469  20.478  0.00  0.00    +0.000 N 
ATOM      5  N   UNL     1      -0.626  11.629  19.856  0.00  0.00    +0.000 NA
ATOM      6  C   UNL     1       0.358  11.750  18.961  0.00  0.00    +0.000 A 
ATOM      7  N   UNL     1       0.543  12.974  18.341  0.00  0.00    +0.000 N 
ATOM      8  C   UNL     1       1.112  10.576  18.835  0.00  0.00    +0.000 A 
ATOM      9  C   UNL     1       2.201  10.063  17.975  0.00  0.00    +0.000 C 
ATOM     10  C   UNL     1       2.079   8.504  17.933  0.00  0.00    +0.000 C 
ATOM     11  N   UNL     1       1.837   7.860  19.261  0.00  0.00    +0.000 N 
ATOM     12  H   UNL     1      -0.895  10.162  21.267  0.00  0.00    +0.000 HD
ATOM     13  H   UNL     1      -0.341  13.481  18.337  0.00  0.00    +0.000 HD
ENDROOT
BRANCH   7  14
ATOM     14  S   UNL     1       1.733  13.957  19.089  0.00  0.00    +0.000 S 
ATOM     15  O   UNL     1       1.593  13.938  20.533  0.00  0.00    +0.000 OA
ATOM     16  O   UNL     1       2.991  13.627  18.459  0.00  0.00    +0.000 OA
BRANCH  14  17
ATOM     17  C   UNL     1       1.285  15.606  18.561  0.00  0.00    +0.000 A 
ATOM     18  C   UNL     1       2.206  16.406  17.876  0.00  0.00    +0.000 A 
ATOM     19  C   UNL     1       1.825  17.677  17.435  0.00  0.00    +0.000 A 
ATOM     20  C   UNL     1       0.526  18.135  17.660  0.00  0.00    +0.000 A 
ATOM     21  C   UNL     1      -0.390  17.327  18.333  0.00  0.00    +0.000 A 
ATOM     22 CL   UNL     1      -1.999  17.881  18.575  0.00  0.00    +0.000 Cl
ATOM     23  C   UNL     1      -0.016  16.064  18.791  0.00  0.00    +0.000 A 
ENDBRANCH  14  17
ENDBRANCH   7  14
BRANCH  11  24
ATOM     24  C   UNL     1       2.234   6.456  19.437  0.00  0.00    +0.000 C 
BRANCH  24  25
ATOM     25  C   UNL     1       2.651   5.674  18.159  0.00  0.00    +0.000 C 
ATOM     26  C   UNL     1       1.851   4.378  17.998  0.00  0.00    +0.000 C 
ATOM     27  C   UNL     1       2.341   3.281  18.931  0.00  0.00    +0.000 C 
ATOM     28  N   UNL     1       3.751   2.972  18.712  0.00  0.00    +0.000 NA
ATOM     29  C   UNL     1       4.616   4.144  18.832  0.00  0.00    +0.000 C 
ATOM     30  C   UNL     1       4.153   5.369  18.041  0.00  0.00    +0.000 C 
ATOM     31  H   UNL     1       3.863   2.558  17.786  0.00  0.00    +0.000 HD
ENDBRANCH  24  25
ENDBRANCH  11  24
TORSDOF 4
ENDMDL
MODEL 6
REMARK VINA RESULT:      -7.5      8.400     10.567
REMARK  Name = 
REMARK  4 active torsions:
REMARK  status: ('A' for Active; 'I' for Inactive)
REMARK    1  A    between atoms: N_7  and  S_8
REMARK    2  A    between atoms: S_8  and  C_11
REMARK    3  A    between atoms: N_21  and  C_22
REMARK    4  A    between atoms: C_22  and  C_23
REMARK                            x       y       z     vdW  Elec       q    Type
REMARK                         _______ _______ _______ _____ _____    ______ ____
ROOT
ATOM      1  O   UNL     1       4.950   2.637  19.898  0.00  0.00    +0.000 OA
ATOM      2  C   UNL     1       4.335   3.126  18.963  0.00  0.00    +0.000 C 
ATOM      3  C   UNL     1       4.886   4.195  18.201  0.00  0.00    +0.000 A 
ATOM      4  N   UNL     1       5.755   5.144  18.628  0.00  0.00    +0.000 N 
ATOM      5  N   UNL     1       6.109   5.997  17.645  0.00  0.00    +0.000 NA
ATOM      6  C   UNL     1       5.540   5.465  16.560  0.00  0.00    +0.000 A 
ATOM      7  N   UNL     1       5.937   5.918  15.314  0.00  0.00    +0.000 N 
ATOM      8  C   UNL     1       4.633   4.445  16.878  0.00  0.00    +0.000 A 
ATOM      9  C   UNL     1       3.651   3.595  16.170  0.00  0.00    +0.000 C 
ATOM     10  C   UNL     1       2.544   3.191  17.199  0.00  0.00    +0.000 C 
ATOM     11  N   UNL     1       3.059   2.750  18.531  0.00  0.00    +0.000 N 
ATOM     12  H   UNL     1       6.115   5.275  19.567  0.00  0.00    +0.000 HD
ATOM     13  H   UNL     1       6.291   6.870  15.403  0.00  0.00    +0.000 HD
ENDROOT
BRANCH   7  14
ATOM     14  S   UNL     1       7.152   4.953  14.579  0.00  0.00    +0.000 S 
ATOM     15  O   UNL     1       8.104   5.774  13.858  0.00  0.00    +0.000 OA
ATOM     16  O   UNL     1       7.590   4.014  15.586  0.00  0.00    +0.000 OA
BRANCH  14  17
ATOM     17  C   UNL     1       6.243   4.032  13.345  0.00  0.00    +0.000 A 
ATOM     18  C   UNL     1       4.922   4.373  13.035  0.00  0.00    +0.000 A 
ATOM     19  C   UNL     1       4.240   3.667  12.039  0.00  0.00    +0.000 A 
ATOM     20  C   UNL     1       4.884   2.640  11.345  0.00  0.00    +0.000 A 
ATOM     21  C   UNL     1       6.204   2.315  11.651  0.00  0.00    +0.000 A 
ATOM     22 CL   UNL     1       7.003   1.075  10.768  0.00  0.00    +0.000 Cl
ATOM     23  C   UNL     1       6.888   3.001  12.654  0.00  0.00    +0.000 A 
ENDBRANCH  14  17
ENDBRANCH   7  14
BRANCH  11  24
ATOM     24  C   UNL     1       2.213   1.868  19.348  0.00  0.00    +0.000 C 
BRANCH  24  25
ATOM     25  C   UNL     1       1.188   2.552  20.296  0.00  0.00    +0.000 C 
ATOM     26  C   UNL     1       0.700   3.891  19.735  0.00  0.00    +0.000 C 
ATOM     27  C   UNL     1       1.728   4.997  19.911  0.00  0.00    +0.000 C 
ATOM     28  N   UNL     1       2.076   5.197  21.315  0.00  0.00    +0.000 NA
ATOM     29  C   UNL     1       2.551   3.975  21.962  0.00  0.00    +0.000 C 
ATOM     30  C   UNL     1       1.666   2.746  21.745  0.00  0.00    +0.000 C 
ATOM     31  H   UNL     1       1.262   5.553  21.814  0.00  0.00    +0.000 HD
ENDBRANCH  24  25
ENDBRANCH  11  24
TORSDOF 4
ENDMDL
MODEL 7
REMARK VINA RESULT:      -7.4      1.549      1.971
REMARK  Name = 
REMARK  4 active torsions:
REMARK  status: ('A' for Active; 'I' for Inactive)
REMARK    1  A    between atoms: N_7  and  S_8
REMARK    2  A    between atoms: S_8  and  C_11
REMARK    3  A    between atoms: N_21  and  C_22
REMARK    4  A    between atoms: C_22  and  C_23
REMARK                            x       y       z     vdW  Elec       q    Type
REMARK                         _______ _______ _______ _____ _____    ______ ____
ROOT
ATOM      1  O   UNL     1       1.524   7.822  21.370  0.00  0.00    +0.000 OA
ATOM      2  C   UNL     1       1.508   8.193  20.206  0.00  0.00    +0.000 C 
ATOM      3  C   UNL     1       0.728   9.313  19.803  0.00  0.00    +0.000 A 
ATOM      4  N   UNL     1      -0.425   9.754  20.362  0.00  0.00    +0.000 N 
ATOM      5  N   UNL     1      -0.896  10.866  19.761  0.00  0.00    +0.000 NA
ATOM      6  C   UNL     1       0.075  11.182  18.900  0.00  0.00    +0.000 A 
ATOM      7  N   UNL     1       0.061  12.438  18.318  0.00  0.00    +0.000 N 
ATOM      8  C   UNL     1       1.024  10.160  18.766  0.00  0.00    +0.000 A 
ATOM      9  C   UNL     1       2.207   9.868  17.927  0.00  0.00    +0.000 C 
ATOM     10  C   UNL     1       2.357   8.313  17.842  0.00  0.00    +0.000 C 
ATOM     11  N   UNL     1       2.196   7.597  19.144  0.00  0.00    +0.000 N 
ATOM     12  H   UNL     1      -0.943   9.331  21.125  0.00  0.00    +0.000 HD
ATOM     13  H   UNL     1      -0.896  12.785  18.300  0.00  0.00    +0.000 HD
ENDROOT
BRANCH   7  14
ATOM     14  S   UNL     1       1.044  13.588  19.127  0.00  0.00    +0.000 S 
ATOM     15  O   UNL     1       1.434  13.109  20.439  0.00  0.00    +0.000 OA
ATOM     16  O   UNL     1       2.034  14.025  18.169  0.00  0.00    +0.000 OA
BRANCH  14  17
ATOM     17  C   UNL     1      -0.076  14.954  19.401  0.00  0.00    +0.000 A 
ATOM     18  C   UNL     1      -0.004  16.102  18.605  0.00  0.00    +0.000 A 
ATOM     19  C   UNL     1      -0.914  17.144  18.808  0.00  0.00    +0.000 A 
ATOM     20  C   UNL     1      -1.903  17.028  19.788  0.00  0.00    +0.000 A 
ATOM     21  C   UNL     1      -1.976  15.876  20.569  0.00  0.00    +0.000 A 
ATOM     22 CL   UNL     1      -3.218  15.723  21.748  0.00  0.00    +0.000 Cl
ATOM     23  C   UNL     1      -1.063  14.837  20.386  0.00  0.00    +0.000 A 
ENDBRANCH  14  17
ENDBRANCH   7  14
BRANCH  11  24
ATOM     24  C   UNL     1       2.826   6.277  19.296  0.00  0.00    +0.000 C 
BRANCH  24  25
ATOM     25  C   UNL     1       1.900   5.035  19.171  0.00  0.00    +0.000 C 
ATOM     26  C   UNL     1       2.175   4.007  20.272  0.00  0.00    +0.000 C 
ATOM     27  C   UNL     1       3.436   3.200  20.005  0.00  0.00    +0.000 C 
ATOM     28  N   UNL     1       3.364   2.488  18.731  0.00  0.00    +0.000 NA
ATOM     29  C   UNL     1       3.095   3.373  17.599  0.00  0.00    +0.000 C 
ATOM     30  C   UNL     1       1.924   4.337  17.801  0.00  0.00    +0.000 C 
ATOM     31  H   UNL     1       2.638   1.775  18.787  0.00  0.00    +0.000 HD
ENDBRANCH  24  25
ENDBRANCH  11  24
TORSDOF 4
ENDMDL
MODEL 8
REMARK VINA RESULT:      -7.3      1.856      2.588
REMARK  Name = 
REMARK  4 active torsions:
REMARK  status: ('A' for Active; 'I' for Inactive)
REMARK    1  A    between atoms: N_7  and  S_8
REMARK    2  A    between atoms: S_8  and  C_11
REMARK    3  A    between atoms: N_21  and  C_22
REMARK    4  A    between atoms: C_22  and  C_23
REMARK                            x       y       z     vdW  Elec       q    Type
REMARK                         _______ _______ _______ _____ _____    ______ ____
ROOT
ATOM      1  O   UNL     1       1.747   7.492  21.136  0.00  0.00    +0.000 OA
ATOM      2  C   UNL     1       1.627   8.143  20.109  0.00  0.00    +0.000 C 
ATOM      3  C   UNL     1       0.800   9.301  20.066  0.00  0.00    +0.000 A 
ATOM      4  N   UNL     1      -0.308   9.546  20.806  0.00  0.00    +0.000 N 
ATOM      5  N   UNL     1      -0.844  10.755  20.547  0.00  0.00    +0.000 NA
ATOM      6  C   UNL     1       0.046  11.312  19.722  0.00  0.00    +0.000 A 
ATOM      7  N   UNL     1      -0.035  12.673  19.481  0.00  0.00    +0.000 N 
ATOM      8  C   UNL     1       0.995  10.391  19.259  0.00  0.00    +0.000 A 
ATOM      9  C   UNL     1       2.107  10.363  18.284  0.00  0.00    +0.000 C 
ATOM     10  C   UNL     1       2.272   8.886  17.794  0.00  0.00    +0.000 C 
ATOM     11  N   UNL     1       2.232   7.859  18.880  0.00  0.00    +0.000 N 
ATOM     12  H   UNL     1      -0.754   8.926  21.474  0.00  0.00    +0.000 HD
ATOM     13  H   UNL     1      -0.995  12.980  19.626  0.00  0.00    +0.000 HD
ENDROOT
BRANCH   7  14
ATOM     14  S   UNL     1       0.996  13.616  20.477  0.00  0.00    +0.000 S 
ATOM     15  O   UNL     1       0.238  14.591  21.236  0.00  0.00    +0.000 OA
ATOM     16  O   UNL     1       1.886  12.688  21.136  0.00  0.00    +0.000 OA
BRANCH  14  17
ATOM     17  C   UNL     1       1.966  14.541  19.294  0.00  0.00    +0.000 A 
ATOM     18  C   UNL     1       3.183  14.036  18.824  0.00  0.00    +0.000 A 
ATOM     19  C   UNL     1       3.909  14.755  17.869  0.00  0.00    +0.000 A 
ATOM     20  C   UNL     1       3.409  15.960  17.372  0.00  0.00    +0.000 A 
ATOM     21  C   UNL     1       2.189  16.451  17.836  0.00  0.00    +0.000 A 
ATOM     22 CL   UNL     1       1.560  17.916  17.194  0.00  0.00    +0.000 Cl
ATOM     23  C   UNL     1       1.465  15.751  18.801  0.00  0.00    +0.000 A 
ENDBRANCH  14  17
ENDBRANCH   7  14
BRANCH  11  24
ATOM     24  C   UNL     1       2.891   6.567  18.642  0.00  0.00    +0.000 C 
BRANCH  24  25
ATOM     25  C   UNL     1       2.062   5.286  18.939  0.00  0.00    +0.000 C 
ATOM     26  C   UNL     1       2.733   4.405  19.997  0.00  0.00    +0.000 C 
ATOM     27  C   UNL     1       3.905   3.618  19.430  0.00  0.00    +0.000 C 
ATOM     28  N   UNL     1       3.496   2.760  18.322  0.00  0.00    +0.000 NA
ATOM     29  C   UNL     1       2.831   3.495  17.248  0.00  0.00    +0.000 C 
ATOM     30  C   UNL     1       1.713   4.433  17.707  0.00  0.00    +0.000 C 
ATOM     31  H   UNL     1       2.874   2.032  18.674  0.00  0.00    +0.000 HD
ENDBRANCH  24  25
ENDBRANCH  11  24
TORSDOF 4
ENDMDL
MODEL 9
REMARK VINA RESULT:      -7.3      1.781      2.421
REMARK  Name = 
REMARK  4 active torsions:
REMARK  status: ('A' for Active; 'I' for Inactive)
REMARK    1  A    between atoms: N_7  and  S_8
REMARK    2  A    between atoms: S_8  and  C_11
REMARK    3  A    between atoms: N_21  and  C_22
REMARK    4  A    between atoms: C_22  and  C_23
REMARK                            x       y       z     vdW  Elec       q    Type
REMARK                         _______ _______ _______ _____ _____    ______ ____
ROOT
ATOM      1  O   UNL     1       1.841   7.357  20.893  0.00  0.00    +0.000 OA
ATOM      2  C   UNL     1       1.618   8.075  19.930  0.00  0.00    +0.000 C 
ATOM      3  C   UNL     1       0.836   9.257  20.062  0.00  0.00    +0.000 A 
ATOM      4  N   UNL     1      -0.161   9.487  20.951  0.00  0.00    +0.000 N 
ATOM      5  N   UNL     1      -0.680  10.726  20.834  0.00  0.00    +0.000 NA
ATOM      6  C   UNL     1       0.119  11.308  19.936  0.00  0.00    +0.000 A 
ATOM      7  N   UNL     1       0.060  12.683  19.788  0.00  0.00    +0.000 N 
ATOM      8  C   UNL     1       0.968  10.391  19.302  0.00  0.00    +0.000 A 
ATOM      9  C   UNL     1       1.946  10.391  18.193  0.00  0.00    +0.000 C 
ATOM     10  C   UNL     1       1.993   8.944  17.600  0.00  0.00    +0.000 C 
ATOM     11  N   UNL     1       2.052   7.852  18.619  0.00  0.00    +0.000 N 
ATOM     12  H   UNL     1      -0.542   8.840  21.633  0.00  0.00    +0.000 HD
ATOM     13  H   UNL     1      -0.863  13.008  20.074  0.00  0.00    +0.000 HD
ENDROOT
BRANCH   7  14
ATOM     14  S   UNL     1       1.242  13.530  20.699  0.00  0.00    +0.000 S 
ATOM     15  O   UNL     1       0.622  14.477  21.606  0.00  0.00    +0.000 OA
ATOM     16  O   UNL     1       2.174  12.537  21.182  0.00  0.00    +0.000 OA
BRANCH  14  17
ATOM     17  C   UNL     1       2.089  14.500  19.458  0.00  0.00    +0.000 A 
ATOM     18  C   UNL     1       3.282  14.040  18.890  0.00  0.00    +0.000 A 
ATOM     19  C   UNL     1       3.909  14.793  17.892  0.00  0.00    +0.000 A 
ATOM     20  C   UNL     1       3.334  15.987  17.452  0.00  0.00    +0.000 A 
ATOM     21  C   UNL     1       2.139  16.432  18.014  0.00  0.00    +0.000 A 
ATOM     22 CL   UNL     1       1.417  17.884  17.443  0.00  0.00    +0.000 Cl
ATOM     23  C   UNL     1       1.513  15.698  19.022  0.00  0.00    +0.000 A 
ENDBRANCH  14  17
ENDBRANCH   7  14
BRANCH  11  24
ATOM     24  C   UNL     1       2.628   6.559  18.223  0.00  0.00    +0.000 C 
BRANCH  24  25
ATOM     25  C   UNL     1       4.177   6.440  18.244  0.00  0.00    +0.000 C 
ATOM     26  C   UNL     1       4.736   6.038  16.875  0.00  0.00    +0.000 C 
ATOM     27  C   UNL     1       4.542   4.558  16.587  0.00  0.00    +0.000 C 
ATOM     28  N   UNL     1       5.180   3.720  17.598  0.00  0.00    +0.000 NA
ATOM     29  C   UNL     1       4.727   4.022  18.955  0.00  0.00    +0.000 C 
ATOM     30  C   UNL     1       4.746   5.506  19.325  0.00  0.00    +0.000 C 
ATOM     31  H   UNL     1       6.191   3.838  17.542  0.00  0.00    +0.000 HD
ENDBRANCH  24  25
ENDBRANCH  11  24
TORSDOF 4
ENDMDL
