MODEL 1
REMARK VINA RESULT:      -8.6      0.000      0.000
REMARK  Name = 
REMARK  5 active torsions:
REMARK  status: ('A' for Active; 'I' for Inactive)
REMARK    1  A    between atoms: C_1  and  C_2
REMARK    2  A    between atoms: C_2  and  N_3
REMARK    3  A    between atoms: C_2  and  C_15
REMARK    4  A    between atoms: N_3  and  C_4
REMARK    5  A    between atoms: C_4  and  C_5
REMARK                            x       y       z     vdW  Elec       q    Type
REMARK                         _______ _______ _______ _____ _____    ______ ____
ROOT
ATOM      1  N   UNL     1       6.767   7.016  16.799  0.00  0.00    +0.000 NA
ATOM      2  H   UNL     1       6.062   7.760  17.015  0.00  0.00    +0.000 HD
ENDROOT
BRANCH   1   4
ATOM      3  C   UNL     1       5.948   5.310  15.129  0.00  0.00    +0.000 C 
ATOM      4  C   UNL     1       6.017   5.749  16.601  0.00  0.00    +0.000 C 
BRANCH   4   5
ATOM      5  C   UNL     1       4.595   5.928  17.148  0.00  0.00    +0.000 A 
ATOM      6  C   UNL     1       4.144   7.248  17.371  0.00  0.00    +0.000 A 
ATOM      7  C   UNL     1       2.903   7.505  17.943  0.00  0.00    +0.000 A 
ATOM      8  C   UNL     1       2.069   6.457  18.306  0.00  0.00    +0.000 A 
ATOM      9  C   UNL     1       2.458   5.133  18.076  0.00  0.00    +0.000 A 
ATOM     10  C   UNL     1       1.589   4.091  18.435  0.00  0.00    +0.000 A 
ATOM     11  C   UNL     1       1.942   2.766  18.194  0.00  0.00    +0.000 A 
ATOM     12  C   UNL     1       3.163   2.467  17.591  0.00  0.00    +0.000 A 
ATOM     13  C   UNL     1       4.050   3.491  17.241  0.00  0.00    +0.000 A 
ATOM     14  C   UNL     1       3.723   4.846  17.483  0.00  0.00    +0.000 A 
ENDBRANCH   4   5
ENDBRANCH   1   4
BRANCH   1  15
ATOM     15  C   UNL     1       7.741   6.996  17.899  0.00  0.00    +0.000 C 
BRANCH  15  16
ATOM     16  C   UNL     1       8.214   8.396  18.214  0.00  0.00    +0.000 A 
ATOM     17  C   UNL     1       7.976   9.529  17.436  0.00  0.00    +0.000 A 
ATOM     18  C   UNL     1       8.610  10.566  18.090  0.00  0.00    +0.000 A 
ATOM     19  C   UNL     1       8.717  11.919  17.767  0.00  0.00    +0.000 A 
ATOM     20  C   UNL     1       9.453  12.747  18.636  0.00  0.00    +0.000 A 
ATOM     21 CL   UNL     1       9.632  14.456  18.276  0.00  0.00    +0.000 Cl
ATOM     22  C   UNL     1      10.055  12.208  19.800  0.00  0.00    +0.000 A 
ATOM     23  C   UNL     1       9.927  10.839  20.096  0.00  0.00    +0.000 A 
ATOM     24  C   UNL     1       9.193  10.044  19.213  0.00  0.00    +0.000 A 
ATOM     25  N   UNL     1       8.957   8.723  19.302  0.00  0.00    +0.000 N 
ATOM     26  H   UNL     1       9.289   8.079  20.054  0.00  0.00    +0.000 HD
ENDBRANCH  15  16
ENDBRANCH   1  15
TORSDOF 4
ENDMDL
MODEL 2
REMARK VINA RESULT:      -8.5      4.964      6.965
REMARK  Name = 
REMARK  5 active torsions:
REMARK  status: ('A' for Active; 'I' for Inactive)
REMARK    1  A    between atoms: C_1  and  C_2
REMARK    2  A    between atoms: C_2  and  N_3
REMARK    3  A    between atoms: C_2  and  C_15
REMARK    4  A    between atoms: N_3  and  C_4
REMARK    5  A    between atoms: C_4  and  C_5
REMARK                            x       y       z     vdW  Elec       q    Type
REMARK                         _______ _______ _______ _____ _____    ______ ____
ROOT
ATOM      1  N   UNL     1       3.793   5.563  20.054  0.00  0.00    +0.000 NA
ATOM      2  H   UNL     1       4.361   5.588  20.934  0.00  0.00    +0.000 HD
ENDROOT
BRANCH   1   4
ATOM      3  C   UNL     1       1.369   4.862  20.083  0.00  0.00    +0.000 C 
ATOM      4  C   UNL     1       2.405   5.946  20.420  0.00  0.00    +0.000 C 
BRANCH   4   5
ATOM      5  C   UNL     1       2.042   7.245  19.688  0.00  0.00    +0.000 A 
ATOM      6  C   UNL     1       2.424   7.357  18.333  0.00  0.00    +0.000 A 
ATOM      7  C   UNL     1       2.214   8.527  17.613  0.00  0.00    +0.000 A 
ATOM      8  C   UNL     1       1.611   9.622  18.216  0.00  0.00    +0.000 A 
ATOM      9  C   UNL     1       1.185   9.548  19.548  0.00  0.00    +0.000 A 
ATOM     10  C   UNL     1       0.562  10.662  20.130  0.00  0.00    +0.000 A 
ATOM     11  C   UNL     1       0.108  10.606  21.445  0.00  0.00    +0.000 A 
ATOM     12  C   UNL     1       0.268   9.439  22.190  0.00  0.00    +0.000 A 
ATOM     13  C   UNL     1       0.903   8.324  21.633  0.00  0.00    +0.000 A 
ATOM     14  C   UNL     1       1.384   8.355  20.303  0.00  0.00    +0.000 A 
ENDBRANCH   4   5
ENDBRANCH   1   4
BRANCH   1  15
ATOM     15  C   UNL     1       3.934   4.220  19.475  0.00  0.00    +0.000 C 
BRANCH  15  16
ATOM     16  C   UNL     1       4.627   4.290  18.134  0.00  0.00    +0.000 A 
ATOM     17  C   UNL     1       4.193   3.675  16.960  0.00  0.00    +0.000 A 
ATOM     18  C   UNL     1       5.140   3.989  16.007  0.00  0.00    +0.000 A 
ATOM     19  C   UNL     1       5.230   3.637  14.660  0.00  0.00    +0.000 A 
ATOM     20  C   UNL     1       6.340   4.105  13.930  0.00  0.00    +0.000 A 
ATOM     21 CL   UNL     1       6.513   3.687  12.234  0.00  0.00    +0.000 Cl
ATOM     22  C   UNL     1       7.322   4.911  14.558  0.00  0.00    +0.000 A 
ATOM     23  C   UNL     1       7.200   5.247  15.919  0.00  0.00    +0.000 A 
ATOM     24  C   UNL     1       6.090   4.766  16.615  0.00  0.00    +0.000 A 
ATOM     25  N   UNL     1       5.787   4.959  17.912  0.00  0.00    +0.000 N 
ATOM     26  H   UNL     1       6.342   5.507  18.606  0.00  0.00    +0.000 HD
ENDBRANCH  15  16
ENDBRANCH   1  15
TORSDOF 4
ENDMDL
MODEL 3
REMARK VINA RESULT:      -8.4      4.843      6.216
REMARK  Name = 
REMARK  5 active torsions:
REMARK  status: ('A' for Active; 'I' for Inactive)
REMARK    1  A    between atoms: C_1  and  C_2
REMARK    2  A    between atoms: C_2  and  N_3
REMARK    3  A    between atoms: C_2  and  C_15
REMARK    4  A    between atoms: N_3  and  C_4
REMARK    5  A    between atoms: C_4  and  C_5
REMARK                            x       y       z     vdW  Elec       q    Type
REMARK                         _______ _______ _______ _____ _____    ______ ____
ROOT
ATOM      1  N   UNL     1       5.611   6.273  18.440  0.00  0.00    +0.000 NA
ATOM      2  H   UNL     1       5.366   6.184  19.455  0.00  0.00    +0.000 HD
ENDROOT
BRANCH   1   4
ATOM      3  C   UNL     1       3.955   7.504  16.986  0.00  0.00    +0.000 C 
ATOM      4  C   UNL     1       4.339   6.185  17.676  0.00  0.00    +0.000 C 
BRANCH   4   5
ATOM      5  C   UNL     1       3.217   5.762  18.633  0.00  0.00    +0.000 A 
ATOM      6  C   UNL     1       2.777   6.713  19.580  0.00  0.00    +0.000 A 
ATOM      7  C   UNL     1       1.826   6.394  20.542  0.00  0.00    +0.000 A 
ATOM      8  C   UNL     1       1.276   5.120  20.588  0.00  0.00    +0.000 A 
ATOM      9  C   UNL     1       1.656   4.153  19.650  0.00  0.00    +0.000 A 
ATOM     10  C   UNL     1       1.073   2.878  19.706  0.00  0.00    +0.000 A 
ATOM     11  C   UNL     1       1.417   1.907  18.769  0.00  0.00    +0.000 A 
ATOM     12  C   UNL     1       2.341   2.198  17.767  0.00  0.00    +0.000 A 
ATOM     13  C   UNL     1       2.946   3.458  17.706  0.00  0.00    +0.000 A 
ATOM     14  C   UNL     1       2.625   4.462  18.650  0.00  0.00    +0.000 A 
ENDBRANCH   4   5
ENDBRANCH   1   4
BRANCH   1  15
ATOM     15  C   UNL     1       6.596   5.228  18.129  0.00  0.00    +0.000 C 
BRANCH  15  16
ATOM     16  C   UNL     1       6.560   4.887  16.658  0.00  0.00    +0.000 A 
ATOM     17  C   UNL     1       5.710   3.957  16.059  0.00  0.00    +0.000 A 
ATOM     18  C   UNL     1       6.044   3.960  14.720  0.00  0.00    +0.000 A 
ATOM     19  C   UNL     1       5.534   3.222  13.651  0.00  0.00    +0.000 A 
ATOM     20  C   UNL     1       6.097   3.436  12.377  0.00  0.00    +0.000 A 
ATOM     21 CL   UNL     1       5.504   2.529  10.995  0.00  0.00    +0.000 Cl
ATOM     22  C   UNL     1       7.142   4.376  12.204  0.00  0.00    +0.000 A 
ATOM     23  C   UNL     1       7.632   5.103  13.304  0.00  0.00    +0.000 A 
ATOM     24  C   UNL     1       7.056   4.867  14.554  0.00  0.00    +0.000 A 
ATOM     25  N   UNL     1       7.377   5.441  15.727  0.00  0.00    +0.000 N 
ATOM     26  H   UNL     1       8.116   6.162  15.887  0.00  0.00    +0.000 HD
ENDBRANCH  15  16
ENDBRANCH   1  15
TORSDOF 4
ENDMDL
MODEL 4
REMARK VINA RESULT:      -8.3      4.882      6.818
REMARK  Name = 
REMARK  5 active torsions:
REMARK  status: ('A' for Active; 'I' for Inactive)
REMARK    1  A    between atoms: C_1  and  C_2
REMARK    2  A    between atoms: C_2  and  N_3
REMARK    3  A    between atoms: C_2  and  C_15
REMARK    4  A    between atoms: N_3  and  C_4
REMARK    5  A    between atoms: C_4  and  C_5
REMARK                            x       y       z     vdW  Elec       q    Type
REMARK                         _______ _______ _______ _____ _____    ______ ____
ROOT
ATOM      1  N   UNL     1       2.261   7.275  17.793  0.00  0.00    +0.000 NA
ATOM      2  H   UNL     1       1.616   6.909  18.533  0.00  0.00    +0.000 HD
ENDROOT
BRANCH   1   4
ATOM      3  C   UNL     1       4.670   7.154  17.053  0.00  0.00    +0.000 C 
ATOM      4  C   UNL     1       3.605   6.705  18.066  0.00  0.00    +0.000 C 
BRANCH   4   5
ATOM      5  C   UNL     1       3.503   5.174  18.055  0.00  0.00    +0.000 A 
ATOM      6  C   UNL     1       4.199   4.483  17.039  0.00  0.00    +0.000 A 
ATOM      7  C   UNL     1       4.098   3.104  16.897  0.00  0.00    +0.000 A 
ATOM      8  C   UNL     1       3.306   2.367  17.767  0.00  0.00    +0.000 A 
ATOM      9  C   UNL     1       2.623   3.002  18.810  0.00  0.00    +0.000 A 
ATOM     10  C   UNL     1       1.843   2.233  19.687  0.00  0.00    +0.000 A 
ATOM     11  C   UNL     1       1.173   2.839  20.746  0.00  0.00    +0.000 A 
ATOM     12  C   UNL     1       1.277   4.215  20.944  0.00  0.00    +0.000 A 
ATOM     13  C   UNL     1       2.035   5.001  20.069  0.00  0.00    +0.000 A 
ATOM     14  C   UNL     1       2.718   4.415  18.978  0.00  0.00    +0.000 A 
ENDBRANCH   4   5
ENDBRANCH   1   4
BRANCH   1  15
ATOM     15  C   UNL     1       2.189   8.742  17.831  0.00  0.00    +0.000 C 
BRANCH  15  16
ATOM     16  C   UNL     1       1.412   9.204  19.041  0.00  0.00    +0.000 A 
ATOM     17  C   UNL     1       0.595  10.333  19.102  0.00  0.00    +0.000 A 
ATOM     18  C   UNL     1       0.116  10.373  20.395  0.00  0.00    +0.000 A 
ATOM     19  C   UNL     1      -0.732  11.284  21.026  0.00  0.00    +0.000 A 
ATOM     20  C   UNL     1      -1.037  11.067  22.384  0.00  0.00    +0.000 A 
ATOM     21 CL   UNL     1      -2.090  12.185  23.234  0.00  0.00    +0.000 Cl
ATOM     22  C   UNL     1      -0.496   9.953  23.071  0.00  0.00    +0.000 A 
ATOM     23  C   UNL     1       0.356   9.054  22.404  0.00  0.00    +0.000 A 
ATOM     24  C   UNL     1       0.641   9.297  21.059  0.00  0.00    +0.000 A 
ATOM     25  N   UNL     1       1.431   8.575  20.244  0.00  0.00    +0.000 N 
ATOM     26  H   UNL     1       1.959   7.709  20.493  0.00  0.00    +0.000 HD
ENDBRANCH  15  16
ENDBRANCH   1  15
TORSDOF 4
ENDMDL
MODEL 5
REMARK VINA RESULT:      -8.2      1.079      1.079
REMARK  Name = 
REMARK  5 active torsions:
REMARK  status: ('A' for Active; 'I' for Inactive)
REMARK    1  A    between atoms: C_1  and  C_2
REMARK    2  A    between atoms: C_2  and  N_3
REMARK    3  A    between atoms: C_2  and  C_15
REMARK    4  A    between atoms: N_3  and  C_4
REMARK    5  A    between atoms: C_4  and  C_5
REMARK                            x       y       z     vdW  Elec       q    Type
REMARK                         _______ _______ _______ _____ _____    ______ ____
ROOT
ATOM      1  N   UNL     1       6.491   7.362  17.131  0.00  0.00    +0.000 NA
ATOM      2  H   UNL     1       5.870   7.984  17.701  0.00  0.00    +0.000 HD
ENDROOT
BRANCH   1   4
ATOM      3  C   UNL     1       5.434   5.758  15.494  0.00  0.00    +0.000 C 
ATOM      4  C   UNL     1       5.776   6.071  16.960  0.00  0.00    +0.000 C 
BRANCH   4   5
ATOM      5  C   UNL     1       4.485   6.109  17.789  0.00  0.00    +0.000 A 
ATOM      6  C   UNL     1       3.690   7.273  17.702  0.00  0.00    +0.000 A 
ATOM      7  C   UNL     1       2.549   7.434  18.479  0.00  0.00    +0.000 A 
ATOM      8  C   UNL     1       2.159   6.438  19.364  0.00  0.00    +0.000 A 
ATOM      9  C   UNL     1       2.896   5.252  19.462  0.00  0.00    +0.000 A 
ATOM     10  C   UNL     1       2.471   4.252  20.350  0.00  0.00    +0.000 A 
ATOM     11  C   UNL     1       3.173   3.054  20.447  0.00  0.00    +0.000 A 
ATOM     12  C   UNL     1       4.303   2.840  19.660  0.00  0.00    +0.000 A 
ATOM     13  C   UNL     1       4.752   3.832  18.781  0.00  0.00    +0.000 A 
ATOM     14  C   UNL     1       4.066   5.064  18.668  0.00  0.00    +0.000 A 
ENDBRANCH   4   5
ENDBRANCH   1   4
BRANCH   1  15
ATOM     15  C   UNL     1       7.783   7.269  17.826  0.00  0.00    +0.000 C 
BRANCH  15  16
ATOM     16  C   UNL     1       8.281   8.645  18.204  0.00  0.00    +0.000 A 
ATOM     17  C   UNL     1       8.119   9.805  17.447  0.00  0.00    +0.000 A 
ATOM     18  C   UNL     1       8.749  10.804  18.162  0.00  0.00    +0.000 A 
ATOM     19  C   UNL     1       8.914  12.160  17.883  0.00  0.00    +0.000 A 
ATOM     20  C   UNL     1       9.628  12.941  18.812  0.00  0.00    +0.000 A 
ATOM     21 CL   UNL     1       9.877  14.652  18.510  0.00  0.00    +0.000 Cl
ATOM     22  C   UNL     1      10.151  12.352  19.990  0.00  0.00    +0.000 A 
ATOM     23  C   UNL     1       9.966  10.981  20.241  0.00  0.00    +0.000 A 
ATOM     24  C   UNL     1       9.256  10.233  19.299  0.00  0.00    +0.000 A 
ATOM     25  N   UNL     1       8.975   8.918  19.338  0.00  0.00    +0.000 N 
ATOM     26  H   UNL     1       9.247   8.245  20.088  0.00  0.00    +0.000 HD
ENDBRANCH  15  16
ENDBRANCH   1  15
TORSDOF 4
ENDMDL
MODEL 6
REMARK VINA RESULT:      -8.2      5.227      8.124
REMARK  Name = 
REMARK  5 active torsions:
REMARK  status: ('A' for Active; 'I' for Inactive)
REMARK    1  A    between atoms: C_1  and  C_2
REMARK    2  A    between atoms: C_2  and  N_3
REMARK    3  A    between atoms: C_2  and  C_15
REMARK    4  A    between atoms: N_3  and  C_4
REMARK    5  A    between atoms: C_4  and  C_5
REMARK                            x       y       z     vdW  Elec       q    Type
REMARK                         _______ _______ _______ _____ _____    ______ ____
ROOT
ATOM      1  N   UNL     1       2.067   8.715  17.614  0.00  0.00    +0.000 NA
ATOM      2  H   UNL     1       1.376   8.665  16.828  0.00  0.00    +0.000 HD
ENDROOT
BRANCH   1   4
ATOM      3  C   UNL     1       2.103   7.637  19.896  0.00  0.00    +0.000 C 
ATOM      4  C   UNL     1       1.950   7.446  18.378  0.00  0.00    +0.000 C 
BRANCH   4   5
ATOM      5  C   UNL     1       3.021   6.468  17.876  0.00  0.00    +0.000 A 
ATOM      6  C   UNL     1       4.221   7.018  17.375  0.00  0.00    +0.000 A 
ATOM      7  C   UNL     1       5.212   6.216  16.821  0.00  0.00    +0.000 A 
ATOM      8  C   UNL     1       5.043   4.840  16.753  0.00  0.00    +0.000 A 
ATOM      9  C   UNL     1       3.885   4.245  17.265  0.00  0.00    +0.000 A 
ATOM     10  C   UNL     1       3.745   2.851  17.202  0.00  0.00    +0.000 A 
ATOM     11  C   UNL     1       2.613   2.233  17.726  0.00  0.00    +0.000 A 
ATOM     12  C   UNL     1       1.612   2.999  18.321  0.00  0.00    +0.000 A 
ATOM     13  C   UNL     1       1.725   4.392  18.379  0.00  0.00    +0.000 A 
ATOM     14  C   UNL     1       2.858   5.049  17.845  0.00  0.00    +0.000 A 
ENDBRANCH   4   5
ENDBRANCH   1   4
BRANCH   1  15
ATOM     15  C   UNL     1       1.773   9.932  18.384  0.00  0.00    +0.000 C 
BRANCH  15  16
ATOM     16  C   UNL     1       0.309  10.289  18.273  0.00  0.00    +0.000 A 
ATOM     17  C   UNL     1      -0.365  11.218  19.066  0.00  0.00    +0.000 A 
ATOM     18  C   UNL     1      -1.674  11.196  18.629  0.00  0.00    +0.000 A 
ATOM     19  C   UNL     1      -2.792  11.908  19.063  0.00  0.00    +0.000 A 
ATOM     20  C   UNL     1      -4.021  11.657  18.422  0.00  0.00    +0.000 A 
ATOM     21 CL   UNL     1      -5.465  12.515  18.932  0.00  0.00    +0.000 Cl
ATOM     22  C   UNL     1      -4.100  10.714  17.368  0.00  0.00    +0.000 A 
ATOM     23  C   UNL     1      -2.952  10.014  16.955  0.00  0.00    +0.000 A 
ATOM     24  C   UNL     1      -1.749  10.282  17.612  0.00  0.00    +0.000 A 
ATOM     25  N   UNL     1      -0.547   9.724  17.384  0.00  0.00    +0.000 N 
ATOM     26  H   UNL     1      -0.323   8.995  16.670  0.00  0.00    +0.000 HD
ENDBRANCH  15  16
ENDBRANCH   1  15
TORSDOF 4
ENDMDL
MODEL 7
REMARK VINA RESULT:      -8.2      4.804      6.720
REMARK  Name = 
REMARK  5 active torsions:
REMARK  status: ('A' for Active; 'I' for Inactive)
REMARK    1  A    between atoms: C_1  and  C_2
REMARK    2  A    between atoms: C_2  and  N_3
REMARK    3  A    between atoms: C_2  and  C_15
REMARK    4  A    between atoms: N_3  and  C_4
REMARK    5  A    between atoms: C_4  and  C_5
REMARK                            x       y       z     vdW  Elec       q    Type
REMARK                         _______ _______ _______ _____ _____    ______ ____
ROOT
ATOM      1  N   UNL     1       4.085   5.568  19.873  0.00  0.00    +0.000 NA
ATOM      2  H   UNL     1       4.607   5.694  20.772  0.00  0.00    +0.000 HD
ENDROOT
BRANCH   1   4
ATOM      3  C   UNL     1       1.731   4.678  19.681  0.00  0.00    +0.000 C 
ATOM      4  C   UNL     1       2.649   5.813  20.165  0.00  0.00    +0.000 C 
BRANCH   4   5
ATOM      5  C   UNL     1       2.228   7.130  19.500  0.00  0.00    +0.000 A 
ATOM      6  C   UNL     1       2.657   7.355  18.173  0.00  0.00    +0.000 A 
ATOM      7  C   UNL     1       2.397   8.553  17.518  0.00  0.00    +0.000 A 
ATOM      8  C   UNL     1       1.695   9.564  18.161  0.00  0.00    +0.000 A 
ATOM      9  C   UNL     1       1.221   9.376  19.464  0.00  0.00    +0.000 A 
ATOM     10  C   UNL     1       0.499  10.406  20.086  0.00  0.00    +0.000 A 
ATOM     11  C   UNL     1      -0.004  10.233  21.373  0.00  0.00    +0.000 A 
ATOM     12  C   UNL     1       0.205   9.033  22.050  0.00  0.00    +0.000 A 
ATOM     13  C   UNL     1       0.938   8.002  21.454  0.00  0.00    +0.000 A 
ATOM     14  C   UNL     1       1.471   8.151  20.152  0.00  0.00    +0.000 A 
ENDBRANCH   4   5
ENDBRANCH   1   4
BRANCH   1  15
ATOM     15  C   UNL     1       4.395   4.223  19.366  0.00  0.00    +0.000 C 
BRANCH  15  16
ATOM     16  C   UNL     1       5.011   4.305  17.989  0.00  0.00    +0.000 A 
ATOM     17  C   UNL     1       6.137   5.052  17.645  0.00  0.00    +0.000 A 
ATOM     18  C   UNL     1       6.317   4.847  16.292  0.00  0.00    +0.000 A 
ATOM     19  C   UNL     1       7.276   5.350  15.412  0.00  0.00    +0.000 A 
ATOM     20  C   UNL     1       7.194   4.966  14.060  0.00  0.00    +0.000 A 
ATOM     21 CL   UNL     1       8.366   5.576  12.904  0.00  0.00    +0.000 Cl
ATOM     22  C   UNL     1       6.168   4.091  13.624  0.00  0.00    +0.000 A 
ATOM     23  C   UNL     1       5.218   3.602  14.539  0.00  0.00    +0.000 A 
ATOM     24  C   UNL     1       5.324   4.003  15.872  0.00  0.00    +0.000 A 
ATOM     25  N   UNL     1       4.522   3.664  16.897  0.00  0.00    +0.000 N 
ATOM     26  H   UNL     1       3.687   3.038  16.855  0.00  0.00    +0.000 HD
ENDBRANCH  15  16
ENDBRANCH   1  15
TORSDOF 4
ENDMDL
MODEL 8
REMARK VINA RESULT:      -8.2      4.863      6.316
REMARK  Name = 
REMARK  5 active torsions:
REMARK  status: ('A' for Active; 'I' for Inactive)
REMARK    1  A    between atoms: C_1  and  C_2
REMARK    2  A    between atoms: C_2  and  N_3
REMARK    3  A    between atoms: C_2  and  C_15
REMARK    4  A    between atoms: N_3  and  C_4
REMARK    5  A    between atoms: C_4  and  C_5
REMARK                            x       y       z     vdW  Elec       q    Type
REMARK                         _______ _______ _______ _____ _____    ______ ____
ROOT
ATOM      1  N   UNL     1       6.077   6.032  18.575  0.00  0.00    +0.000 NA
ATOM      2  H   UNL     1       5.880   5.763  19.569  0.00  0.00    +0.000 HD
ENDROOT
BRANCH   1   4
ATOM      3  C   UNL     1       4.564   7.156  16.897  0.00  0.00    +0.000 C 
ATOM      4  C   UNL     1       4.787   5.963  17.842  0.00  0.00    +0.000 C 
BRANCH   4   5
ATOM      5  C   UNL     1       3.642   5.898  18.861  0.00  0.00    +0.000 A 
ATOM      6  C   UNL     1       2.861   7.062  19.038  0.00  0.00    +0.000 A 
ATOM      7  C   UNL     1       1.858   7.125  19.998  0.00  0.00    +0.000 A 
ATOM      8  C   UNL     1       1.595   6.029  20.809  0.00  0.00    +0.000 A 
ATOM      9  C   UNL     1       2.320   4.843  20.649  0.00  0.00    +0.000 A 
ATOM     10  C   UNL     1       2.023   3.743  21.469  0.00  0.00    +0.000 A 
ATOM     11  C   UNL     1       2.714   2.544  21.313  0.00  0.00    +0.000 A 
ATOM     12  C   UNL     1       3.703   2.429  20.338  0.00  0.00    +0.000 A 
ATOM     13  C   UNL     1       4.026   3.520  19.523  0.00  0.00    +0.000 A 
ATOM     14  C   UNL     1       3.349   4.754  19.665  0.00  0.00    +0.000 A 
ENDBRANCH   4   5
ENDBRANCH   1   4
BRANCH   1  15
ATOM     15  C   UNL     1       7.126   5.133  18.074  0.00  0.00    +0.000 C 
BRANCH  15  16
ATOM     16  C   UNL     1       6.892   4.807  16.617  0.00  0.00    +0.000 A 
ATOM     17  C   UNL     1       5.953   3.899  16.127  0.00  0.00    +0.000 A 
ATOM     18  C   UNL     1       6.111   3.909  14.756  0.00  0.00    +0.000 A 
ATOM     19  C   UNL     1       5.452   3.192  13.757  0.00  0.00    +0.000 A 
ATOM     20  C   UNL     1       5.848   3.407  12.422  0.00  0.00    +0.000 A 
ATOM     21 CL   UNL     1       5.063   2.526  11.123  0.00  0.00    +0.000 Cl
ATOM     22  C   UNL     1       6.880   4.331  12.122  0.00  0.00    +0.000 A 
ATOM     23  C   UNL     1       7.522   5.038  13.154  0.00  0.00    +0.000 A 
ATOM     24  C   UNL     1       7.110   4.800  14.466  0.00  0.00    +0.000 A 
ATOM     25  N   UNL     1       7.592   5.356  15.592  0.00  0.00    +0.000 N 
ATOM     26  H   UNL     1       8.359   6.062  15.660  0.00  0.00    +0.000 HD
ENDBRANCH  15  16
ENDBRANCH   1  15
TORSDOF 4
ENDMDL
MODEL 9
REMARK VINA RESULT:      -8.1      4.605      6.694
REMARK  Name = 
REMARK  5 active torsions:
REMARK  status: ('A' for Active; 'I' for Inactive)
REMARK    1  A    between atoms: C_1  and  C_2
REMARK    2  A    between atoms: C_2  and  N_3
REMARK    3  A    between atoms: C_2  and  C_15
REMARK    4  A    between atoms: N_3  and  C_4
REMARK    5  A    between atoms: C_4  and  C_5
REMARK                            x       y       z     vdW  Elec       q    Type
REMARK                         _______ _______ _______ _____ _____    ______ ____
ROOT
ATOM      1  N   UNL     1       2.514   5.623  17.944  0.00  0.00    +0.000 NA
ATOM      2  H   UNL     1       1.602   5.619  18.459  0.00  0.00    +0.000 HD
ENDROOT
BRANCH   1   4
ATOM      3  C   UNL     1       3.067   4.190  19.947  0.00  0.00    +0.000 C 
ATOM      4  C   UNL     1       3.308   4.476  18.455  0.00  0.00    +0.000 C 
BRANCH   4   5
ATOM      5  C   UNL     1       4.797   4.764  18.224  0.00  0.00    +0.000 A 
ATOM      6  C   UNL     1       5.563   5.164  19.341  0.00  0.00    +0.000 A 
ATOM      7  C   UNL     1       6.899   5.528  19.214  0.00  0.00    +0.000 A 
ATOM      8  C   UNL     1       7.517   5.499  17.972  0.00  0.00    +0.000 A 
ATOM      9  C   UNL     1       6.808   5.079  16.840  0.00  0.00    +0.000 A 
ATOM     10  C   UNL     1       7.460   5.041  15.598  0.00  0.00    +0.000 A 
ATOM     11  C   UNL     1       6.784   4.604  14.463  0.00  0.00    +0.000 A 
ATOM     12  C   UNL     1       5.454   4.197  14.554  0.00  0.00    +0.000 A 
ATOM     13  C   UNL     1       4.781   4.244  15.780  0.00  0.00    +0.000 A 
ATOM     14  C   UNL     1       5.439   4.694  16.950  0.00  0.00    +0.000 A 
ENDBRANCH   4   5
ENDBRANCH   1   4
BRANCH   1  15
ATOM     15  C   UNL     1       3.129   6.943  18.146  0.00  0.00    +0.000 C 
BRANCH  15  16
ATOM     16  C   UNL     1       2.253   7.807  19.022  0.00  0.00    +0.000 A 
ATOM     17  C   UNL     1       1.546   8.935  18.605  0.00  0.00    +0.000 A 
ATOM     18  C   UNL     1       0.913   9.413  19.735  0.00  0.00    +0.000 A 
ATOM     19  C   UNL     1       0.083  10.519  19.916  0.00  0.00    +0.000 A 
ATOM     20  C   UNL     1      -0.410  10.766  21.212  0.00  0.00    +0.000 A 
ATOM     21 CL   UNL     1      -1.451  12.149  21.505  0.00  0.00    +0.000 Cl
ATOM     22  C   UNL     1      -0.068   9.905  22.285  0.00  0.00    +0.000 A 
ATOM     23  C   UNL     1       0.771   8.798  22.066  0.00  0.00    +0.000 A 
ATOM     24  C   UNL     1       1.246   8.582  20.771  0.00  0.00    +0.000 A 
ATOM     25  N   UNL     1       2.060   7.598  20.349  0.00  0.00    +0.000 N 
ATOM     26  H   UNL     1       2.468   6.833  20.932  0.00  0.00    +0.000 HD
ENDBRANCH  15  16
ENDBRANCH   1  15
TORSDOF 4
ENDMDL
