MODEL 1
REMARK VINA RESULT:      -6.8      0.000      0.000
REMARK  Name = 
REMARK  16 active torsions:
REMARK  status: ('A' for Active; 'I' for Inactive)
REMARK    1  A    between atoms: C_1  and  C_2
REMARK    2  A    between atoms: C_2  and  C_3
REMARK    3  A    between atoms: C_2  and  N_4
REMARK    4  A    between atoms: N_4  and  C_5
REMARK    5  A    between atoms: C_5  and  C_6
REMARK    6  A    between atoms: C_6  and  O_7
REMARK    7  A    between atoms: C_6  and  C_8
REMARK    8  A    between atoms: C_8  and  O_9
REMARK    9  A    between atoms: O_9  and  C_10
REMARK   10  A    between atoms: C_13  and  O_14
REMARK   11  A    between atoms: O_14  and  C_15
REMARK   12  A    between atoms: C_15  and  C_16
REMARK   13  A    between atoms: C_16  and  O_17
REMARK   14  A    between atoms: O_17  and  C_18
REMARK   15  A    between atoms: C_18  and  C_19
REMARK   16  A    between atoms: C_19  and  C_20
REMARK                            x       y       z     vdW  Elec       q    Type
REMARK                         _______ _______ _______ _____ _____    ______ ____
ROOT
ATOM      1  C   UNL     1       3.923   5.870  18.364  0.00  0.00    +0.000 A 
ATOM      2  C   UNL     1       3.158   5.853  19.526  0.00  0.00    +0.000 A 
ATOM      3  C   UNL     1       2.286   6.885  19.817  0.00  0.00    +0.000 A 
ATOM      4  C   UNL     1       2.151   7.976  18.962  0.00  0.00    +0.000 A 
ATOM      5  C   UNL     1       2.919   8.012  17.794  0.00  0.00    +0.000 A 
ATOM      6  C   UNL     1       3.804   6.960  17.495  0.00  0.00    +0.000 A 
ENDROOT
BRANCH   1   7
ATOM      7  O   UNL     1       4.796   4.869  18.018  0.00  0.00    +0.000 OA
BRANCH   7   8
ATOM      8  C   UNL     1       4.619   4.394  16.669  0.00  0.00    +0.000 C 
BRANCH   8   9
ATOM      9  C   UNL     1       5.944   4.356  15.920  0.00  0.00    +0.000 C 
BRANCH   9  10
ATOM     10  O   UNL     1       6.183   3.040  15.407  0.00  0.00    +0.000 OA
ATOM     11  H   UNL     1       5.913   2.419  16.109  0.00  0.00    +0.000 HD
ENDBRANCH   9  10
BRANCH   9  12
ATOM     12  C   UNL     1       7.089   4.791  16.843  0.00  0.00    +0.000 C 
BRANCH  12  13
ATOM     13  N   UNL     1       7.389   6.206  16.611  0.00  0.00    +0.000 NA
ATOM     14  H   UNL     1       8.322   6.263  16.194  0.00  0.00    +0.000 HD
BRANCH  13  16
ATOM     15  C   UNL     1       7.931   6.196  18.965  0.00  0.00    +0.000 C 
ATOM     16  C   UNL     1       7.318   7.013  17.829  0.00  0.00    +0.000 C 
ATOM     17  C   UNL     1       8.072   8.337  17.677  0.00  0.00    +0.000 C 
ENDBRANCH  13  16
ENDBRANCH  12  13
ENDBRANCH   9  12
ENDBRANCH   8   9
ENDBRANCH   7   8
ENDBRANCH   1   7
BRANCH   4  18
ATOM     18  O   UNL     1       1.304   9.031  19.202  0.00  0.00    +0.000 OA
BRANCH  18  19
ATOM     19  C   UNL     1       1.085   9.274  20.596  0.00  0.00    +0.000 C 
BRANCH  19  20
ATOM     20  C   UNL     1      -0.385   9.413  20.928  0.00  0.00    +0.000 C 
BRANCH  20  21
ATOM     21  O   UNL     1      -0.636  10.799  21.193  0.00  0.00    +0.000 OA
BRANCH  21  22
ATOM     22  C   UNL     1      -0.766  11.541  19.986  0.00  0.00    +0.000 C 
BRANCH  22  23
ATOM     23  C   UNL     1      -2.226  11.949  19.798  0.00  0.00    +0.000 C 
BRANCH  23  24
ATOM     24  C   UNL     1      -2.720  11.515  18.445  0.00  0.00    +0.000 A 
ATOM     25  C   UNL     1      -4.063  11.702  18.086  0.00  0.00    +0.000 A 
ATOM     26  C   UNL     1      -4.536  11.227  16.862  0.00  0.00    +0.000 A 
ATOM     27  C   UNL     1      -3.669  10.567  16.000  0.00  0.00    +0.000 A 
ATOM     28  F   UNL     1      -4.126  10.105  14.830  0.00  0.00    +0.000 F 
ATOM     29  C   UNL     1      -2.335  10.373  16.337  0.00  0.00    +0.000 A 
ATOM     30  C   UNL     1      -1.859  10.846  17.561  0.00  0.00    +0.000 A 
ENDBRANCH  23  24
ENDBRANCH  22  23
ENDBRANCH  21  22
ENDBRANCH  20  21
ENDBRANCH  19  20
ENDBRANCH  18  19
ENDBRANCH   4  18
TORSDOF 14
ENDMDL
MODEL 2
REMARK VINA RESULT:      -6.7      3.538      5.627
REMARK  Name = 
REMARK  16 active torsions:
REMARK  status: ('A' for Active; 'I' for Inactive)
REMARK    1  A    between atoms: C_1  and  C_2
REMARK    2  A    between atoms: C_2  and  C_3
REMARK    3  A    between atoms: C_2  and  N_4
REMARK    4  A    between atoms: N_4  and  C_5
REMARK    5  A    between atoms: C_5  and  C_6
REMARK    6  A    between atoms: C_6  and  O_7
REMARK    7  A    between atoms: C_6  and  C_8
REMARK    8  A    between atoms: C_8  and  O_9
REMARK    9  A    between atoms: O_9  and  C_10
REMARK   10  A    between atoms: C_13  and  O_14
REMARK   11  A    between atoms: O_14  and  C_15
REMARK   12  A    between atoms: C_15  and  C_16
REMARK   13  A    between atoms: C_16  and  O_17
REMARK   14  A    between atoms: O_17  and  C_18
REMARK   15  A    between atoms: C_18  and  C_19
REMARK   16  A    between atoms: C_19  and  C_20
REMARK                            x       y       z     vdW  Elec       q    Type
REMARK                         _______ _______ _______ _____ _____    ______ ____
ROOT
ATOM      1  C   UNL     1       5.036   4.021  17.898  0.00  0.00    +0.000 A 
ATOM      2  C   UNL     1       5.027   3.357  19.121  0.00  0.00    +0.000 A 
ATOM      3  C   UNL     1       3.948   2.579  19.498  0.00  0.00    +0.000 A 
ATOM      4  C   UNL     1       2.835   2.444  18.672  0.00  0.00    +0.000 A 
ATOM      5  C   UNL     1       2.826   3.112  17.443  0.00  0.00    +0.000 A 
ATOM      6  C   UNL     1       3.925   3.899  17.057  0.00  0.00    +0.000 A 
ENDROOT
BRANCH   1   7
ATOM      7  O   UNL     1       6.082   4.797  17.466  0.00  0.00    +0.000 OA
BRANCH   7   8
ATOM      8  C   UNL     1       6.722   4.289  16.280  0.00  0.00    +0.000 C 
BRANCH   8   9
ATOM      9  C   UNL     1       6.936   5.393  15.253  0.00  0.00    +0.000 C 
BRANCH   9  10
ATOM     10  O   UNL     1       5.777   6.232  15.183  0.00  0.00    +0.000 OA
ATOM     11  H   UNL     1       5.454   6.176  14.264  0.00  0.00    +0.000 HD
ENDBRANCH   9  10
BRANCH   9  12
ATOM     12  C   UNL     1       7.248   4.787  13.879  0.00  0.00    +0.000 C 
BRANCH  12  13
ATOM     13  N   UNL     1       6.327   3.680  13.616  0.00  0.00    +0.000 NA
ATOM     14  H   UNL     1       6.739   2.831  14.013  0.00  0.00    +0.000 HD
BRANCH  13  16
ATOM     15  C   UNL     1       7.216   4.081  11.405  0.00  0.00    +0.000 C 
ATOM     16  C   UNL     1       6.044   3.498  12.192  0.00  0.00    +0.000 C 
ATOM     17  C   UNL     1       5.862   2.020  11.834  0.00  0.00    +0.000 C 
ENDBRANCH  13  16
ENDBRANCH  12  13
ENDBRANCH   9  12
ENDBRANCH   8   9
ENDBRANCH   7   8
ENDBRANCH   1   7
BRANCH   4  18
ATOM     18  O   UNL     1       1.734   1.688  18.996  0.00  0.00    +0.000 OA
BRANCH  18  19
ATOM     19  C   UNL     1       0.623   2.472  19.445  0.00  0.00    +0.000 C 
BRANCH  19  20
ATOM     20  C   UNL     1       0.935   3.229  20.718  0.00  0.00    +0.000 C 
BRANCH  20  21
ATOM     21  O   UNL     1       0.838   4.627  20.421  0.00  0.00    +0.000 OA
BRANCH  21  22
ATOM     22  C   UNL     1       1.921   5.353  20.992  0.00  0.00    +0.000 C 
BRANCH  22  23
ATOM     23  C   UNL     1       2.741   5.998  19.877  0.00  0.00    +0.000 C 
BRANCH  23  24
ATOM     24  C   UNL     1       2.135   7.317  19.478  0.00  0.00    +0.000 A 
ATOM     25  C   UNL     1       2.210   7.760  18.149  0.00  0.00    +0.000 A 
ATOM     26  C   UNL     1       1.717   9.017  17.799  0.00  0.00    +0.000 A 
ATOM     27  C   UNL     1       1.152   9.829  18.774  0.00  0.00    +0.000 A 
ATOM     28  F   UNL     1       0.687  11.039  18.438  0.00  0.00    +0.000 F 
ATOM     29  C   UNL     1       1.067   9.408  20.095  0.00  0.00    +0.000 A 
ATOM     30  C   UNL     1       1.559   8.151  20.449  0.00  0.00    +0.000 A 
ENDBRANCH  23  24
ENDBRANCH  22  23
ENDBRANCH  21  22
ENDBRANCH  20  21
ENDBRANCH  19  20
ENDBRANCH  18  19
ENDBRANCH   4  18
TORSDOF 14
ENDMDL
MODEL 3
REMARK VINA RESULT:      -6.7      6.271      9.632
REMARK  Name = 
REMARK  16 active torsions:
REMARK  status: ('A' for Active; 'I' for Inactive)
REMARK    1  A    between atoms: C_1  and  C_2
REMARK    2  A    between atoms: C_2  and  C_3
REMARK    3  A    between atoms: C_2  and  N_4
REMARK    4  A    between atoms: N_4  and  C_5
REMARK    5  A    between atoms: C_5  and  C_6
REMARK    6  A    between atoms: C_6  and  O_7
REMARK    7  A    between atoms: C_6  and  C_8
REMARK    8  A    between atoms: C_8  and  O_9
REMARK    9  A    between atoms: O_9  and  C_10
REMARK   10  A    between atoms: C_13  and  O_14
REMARK   11  A    between atoms: O_14  and  C_15
REMARK   12  A    between atoms: C_15  and  C_16
REMARK   13  A    between atoms: C_16  and  O_17
REMARK   14  A    between atoms: O_17  and  C_18
REMARK   15  A    between atoms: C_18  and  C_19
REMARK   16  A    between atoms: C_19  and  C_20
REMARK                            x       y       z     vdW  Elec       q    Type
REMARK                         _______ _______ _______ _____ _____    ______ ____
ROOT
ATOM      1  C   UNL     1       6.383   4.764  17.267  0.00  0.00    +0.000 A 
ATOM      2  C   UNL     1       7.007   4.735  18.510  0.00  0.00    +0.000 A 
ATOM      3  C   UNL     1       7.711   5.830  18.976  0.00  0.00    +0.000 A 
ATOM      4  C   UNL     1       7.827   6.989  18.213  0.00  0.00    +0.000 A 
ATOM      5  C   UNL     1       7.211   7.030  16.958  0.00  0.00    +0.000 A 
ATOM      6  C   UNL     1       6.491   5.919  16.485  0.00  0.00    +0.000 A 
ENDROOT
BRANCH   1   7
ATOM      7  O   UNL     1       5.661   3.713  16.758  0.00  0.00    +0.000 OA
BRANCH   7   8
ATOM      8  C   UNL     1       4.245   3.968  16.694  0.00  0.00    +0.000 C 
BRANCH   8   9
ATOM      9  C   UNL     1       3.532   3.435  17.930  0.00  0.00    +0.000 C 
BRANCH   9  10
ATOM     10  O   UNL     1       2.984   2.138  17.662  0.00  0.00    +0.000 OA
ATOM     11  H   UNL     1       3.728   1.583  17.366  0.00  0.00    +0.000 HD
ENDBRANCH   9  10
BRANCH   9  12
ATOM     12  C   UNL     1       2.430   4.407  18.369  0.00  0.00    +0.000 C 
BRANCH  12  13
ATOM     13  N   UNL     1       1.297   3.648  18.901  0.00  0.00    +0.000 NA
ATOM     14  H   UNL     1       0.493   3.816  18.289  0.00  0.00    +0.000 HD
BRANCH  13  16
ATOM     15  C   UNL     1       1.379   2.819  21.169  0.00  0.00    +0.000 C 
ATOM     16  C   UNL     1       0.972   3.997  20.284  0.00  0.00    +0.000 C 
ATOM     17  C   UNL     1       1.704   5.263  20.736  0.00  0.00    +0.000 C 
ENDBRANCH  13  16
ENDBRANCH  12  13
ENDBRANCH   9  12
ENDBRANCH   8   9
ENDBRANCH   7   8
ENDBRANCH   1   7
BRANCH   4  18
ATOM     18  O   UNL     1       8.517   8.104  18.623  0.00  0.00    +0.000 OA
BRANCH  18  19
ATOM     19  C   UNL     1       8.222   9.269  17.845  0.00  0.00    +0.000 C 
BRANCH  19  20
ATOM     20  C   UNL     1       8.775  10.530  18.472  0.00  0.00    +0.000 C 
BRANCH  20  21
ATOM     21  O   UNL     1       9.421  10.155  19.694  0.00  0.00    +0.000 OA
BRANCH  21  22
ATOM     22  C   UNL     1       9.989  11.284  20.348  0.00  0.00    +0.000 C 
BRANCH  22  23
ATOM     23  C   UNL     1      11.345  11.601  19.722  0.00  0.00    +0.000 C 
BRANCH  23  24
ATOM     24  C   UNL     1      11.229  12.773  18.785  0.00  0.00    +0.000 A 
ATOM     25  C   UNL     1      11.953  12.797  17.584  0.00  0.00    +0.000 A 
ATOM     26  C   UNL     1      11.903  13.918  16.756  0.00  0.00    +0.000 A 
ATOM     27  C   UNL     1      11.134  15.013  17.128  0.00  0.00    +0.000 A 
ATOM     28  F   UNL     1      11.095  16.093  16.337  0.00  0.00    +0.000 F 
ATOM     29  C   UNL     1      10.409  15.009  18.314  0.00  0.00    +0.000 A 
ATOM     30  C   UNL     1      10.456  13.889  19.145  0.00  0.00    +0.000 A 
ENDBRANCH  23  24
ENDBRANCH  22  23
ENDBRANCH  21  22
ENDBRANCH  20  21
ENDBRANCH  19  20
ENDBRANCH  18  19
ENDBRANCH   4  18
TORSDOF 14
ENDMDL
MODEL 4
REMARK VINA RESULT:      -6.6      3.782      8.781
REMARK  Name = 
REMARK  16 active torsions:
REMARK  status: ('A' for Active; 'I' for Inactive)
REMARK    1  A    between atoms: C_1  and  C_2
REMARK    2  A    between atoms: C_2  and  C_3
REMARK    3  A    between atoms: C_2  and  N_4
REMARK    4  A    between atoms: N_4  and  C_5
REMARK    5  A    between atoms: C_5  and  C_6
REMARK    6  A    between atoms: C_6  and  O_7
REMARK    7  A    between atoms: C_6  and  C_8
REMARK    8  A    between atoms: C_8  and  O_9
REMARK    9  A    between atoms: O_9  and  C_10
REMARK   10  A    between atoms: C_13  and  O_14
REMARK   11  A    between atoms: O_14  and  C_15
REMARK   12  A    between atoms: C_15  and  C_16
REMARK   13  A    between atoms: C_16  and  O_17
REMARK   14  A    between atoms: O_17  and  C_18
REMARK   15  A    between atoms: C_18  and  C_19
REMARK   16  A    between atoms: C_19  and  C_20
REMARK                            x       y       z     vdW  Elec       q    Type
REMARK                         _______ _______ _______ _____ _____    ______ ____
ROOT
ATOM      1  C   UNL     1       1.104   9.712  18.742  0.00  0.00    +0.000 A 
ATOM      2  C   UNL     1       0.983   9.210  20.035  0.00  0.00    +0.000 A 
ATOM      3  C   UNL     1       1.607   8.032  20.399  0.00  0.00    +0.000 A 
ATOM      4  C   UNL     1       2.367   7.307  19.485  0.00  0.00    +0.000 A 
ATOM      5  C   UNL     1       2.492   7.795  18.180  0.00  0.00    +0.000 A 
ATOM      6  C   UNL     1       1.861   8.995  17.809  0.00  0.00    +0.000 A 
ENDROOT
BRANCH   1   7
ATOM      7  O   UNL     1       0.518  10.882  18.327  0.00  0.00    +0.000 OA
BRANCH   7   8
ATOM      8  C   UNL     1      -0.441  11.407  19.265  0.00  0.00    +0.000 C 
BRANCH   8   9
ATOM      9  C   UNL     1      -1.127  12.650  18.713  0.00  0.00    +0.000 C 
BRANCH   9  10
ATOM     10  O   UNL     1      -1.431  12.470  17.325  0.00  0.00    +0.000 OA
ATOM     11  H   UNL     1      -1.042  11.614  17.068  0.00  0.00    +0.000 HD
ENDBRANCH   9  10
BRANCH   9  12
ATOM     12  C   UNL     1      -0.238  13.882  18.916  0.00  0.00    +0.000 C 
BRANCH  12  13
ATOM     13  N   UNL     1       1.015  13.477  19.558  0.00  0.00    +0.000 NA
ATOM     14  H   UNL     1       0.839  13.401  20.564  0.00  0.00    +0.000 HD
BRANCH  13  16
ATOM     15  C   UNL     1       3.071  13.723  18.313  0.00  0.00    +0.000 C 
ATOM     16  C   UNL     1       2.117  14.402  19.296  0.00  0.00    +0.000 C 
ATOM     17  C   UNL     1       1.621  15.726  18.708  0.00  0.00    +0.000 C 
ENDBRANCH  13  16
ENDBRANCH  12  13
ENDBRANCH   9  12
ENDBRANCH   8   9
ENDBRANCH   7   8
ENDBRANCH   1   7
BRANCH   4  18
ATOM     18  O   UNL     1       3.005   6.129  19.790  0.00  0.00    +0.000 OA
BRANCH  18  19
ATOM     19  C   UNL     1       2.105   5.077  20.156  0.00  0.00    +0.000 C 
BRANCH  19  20
ATOM     20  C   UNL     1       1.730   4.210  18.974  0.00  0.00    +0.000 C 
BRANCH  20  21
ATOM     21  O   UNL     1       2.302   2.915  19.192  0.00  0.00    +0.000 OA
BRANCH  21  22
ATOM     22  C   UNL     1       3.716   2.940  19.034  0.00  0.00    +0.000 C 
BRANCH  22  23
ATOM     23  C   UNL     1       4.056   3.231  17.574  0.00  0.00    +0.000 C 
BRANCH  23  24
ATOM     24  C   UNL     1       4.964   4.428  17.477  0.00  0.00    +0.000 A 
ATOM     25  C   UNL     1       5.975   4.631  18.429  0.00  0.00    +0.000 A 
ATOM     26  C   UNL     1       6.762   5.781  18.381  0.00  0.00    +0.000 A 
ATOM     27  C   UNL     1       6.541   6.725  17.386  0.00  0.00    +0.000 A 
ATOM     28  F   UNL     1       7.292   7.833  17.347  0.00  0.00    +0.000 F 
ATOM     29  C   UNL     1       5.545   6.541  16.435  0.00  0.00    +0.000 A 
ATOM     30  C   UNL     1       4.755   5.392  16.479  0.00  0.00    +0.000 A 
ENDBRANCH  23  24
ENDBRANCH  22  23
ENDBRANCH  21  22
ENDBRANCH  20  21
ENDBRANCH  19  20
ENDBRANCH  18  19
ENDBRANCH   4  18
TORSDOF 14
ENDMDL
MODEL 5
REMARK VINA RESULT:      -6.6      3.625      5.610
REMARK  Name = 
REMARK  16 active torsions:
REMARK  status: ('A' for Active; 'I' for Inactive)
REMARK    1  A    between atoms: C_1  and  C_2
REMARK    2  A    between atoms: C_2  and  C_3
REMARK    3  A    between atoms: C_2  and  N_4
REMARK    4  A    between atoms: N_4  and  C_5
REMARK    5  A    between atoms: C_5  and  C_6
REMARK    6  A    between atoms: C_6  and  O_7
REMARK    7  A    between atoms: C_6  and  C_8
REMARK    8  A    between atoms: C_8  and  O_9
REMARK    9  A    between atoms: O_9  and  C_10
REMARK   10  A    between atoms: C_13  and  O_14
REMARK   11  A    between atoms: O_14  and  C_15
REMARK   12  A    between atoms: C_15  and  C_16
REMARK   13  A    between atoms: C_16  and  O_17
REMARK   14  A    between atoms: O_17  and  C_18
REMARK   15  A    between atoms: C_18  and  C_19
REMARK   16  A    between atoms: C_19  and  C_20
REMARK                            x       y       z     vdW  Elec       q    Type
REMARK                         _______ _______ _______ _____ _____    ______ ____
ROOT
ATOM      1  C   UNL     1       5.061   4.012  17.533  0.00  0.00    +0.000 A 
ATOM      2  C   UNL     1       3.918   3.719  16.794  0.00  0.00    +0.000 A 
ATOM      3  C   UNL     1       2.841   3.078  17.378  0.00  0.00    +0.000 A 
ATOM      4  C   UNL     1       2.870   2.699  18.718  0.00  0.00    +0.000 A 
ATOM      5  C   UNL     1       4.015   2.979  19.471  0.00  0.00    +0.000 A 
ATOM      6  C   UNL     1       5.109   3.635  18.879  0.00  0.00    +0.000 A 
ENDROOT
BRANCH   1   7
ATOM      7  O   UNL     1       6.155   4.655  17.010  0.00  0.00    +0.000 OA
BRANCH   7   8
ATOM      8  C   UNL     1       6.652   4.051  15.801  0.00  0.00    +0.000 C 
BRANCH   8   9
ATOM      9  C   UNL     1       6.386   4.938  14.592  0.00  0.00    +0.000 C 
BRANCH   9  10
ATOM     10  O   UNL     1       5.764   6.161  15.004  0.00  0.00    +0.000 OA
ATOM     11  H   UNL     1       5.544   6.645  14.187  0.00  0.00    +0.000 HD
ENDBRANCH   9  10
BRANCH   9  12
ATOM     12  C   UNL     1       5.505   4.200  13.576  0.00  0.00    +0.000 C 
BRANCH  12  13
ATOM     13  N   UNL     1       6.309   3.199  12.872  0.00  0.00    +0.000 NA
ATOM     14  H   UNL     1       7.257   3.573  12.774  0.00  0.00    +0.000 HD
BRANCH  13  16
ATOM     15  C   UNL     1       6.026   1.351  11.342  0.00  0.00    +0.000 C 
ATOM     16  C   UNL     1       5.760   2.839  11.565  0.00  0.00    +0.000 C 
ATOM     17  C   UNL     1       4.256   3.114  11.486  0.00  0.00    +0.000 C 
ENDBRANCH  13  16
ENDBRANCH  12  13
ENDBRANCH   9  12
ENDBRANCH   8   9
ENDBRANCH   7   8
ENDBRANCH   1   7
BRANCH   4  18
ATOM     18  O   UNL     1       1.832   2.056  19.349  0.00  0.00    +0.000 OA
BRANCH  18  19
ATOM     19  C   UNL     1       1.621   2.507  20.692  0.00  0.00    +0.000 C 
BRANCH  19  20
ATOM     20  C   UNL     1       0.984   3.879  20.740  0.00  0.00    +0.000 C 
BRANCH  20  21
ATOM     21  O   UNL     1       1.927   4.769  21.349  0.00  0.00    +0.000 OA
BRANCH  21  22
ATOM     22  C   UNL     1       1.622   6.127  21.055  0.00  0.00    +0.000 C 
BRANCH  22  23
ATOM     23  C   UNL     1       2.307   6.528  19.750  0.00  0.00    +0.000 C 
BRANCH  23  24
ATOM     24  C   UNL     1       1.966   7.951  19.396  0.00  0.00    +0.000 A 
ATOM     25  C   UNL     1       1.169   8.724  20.252  0.00  0.00    +0.000 A 
ATOM     26  C   UNL     1       0.790  10.015  19.883  0.00  0.00    +0.000 A 
ATOM     27  C   UNL     1       1.206  10.531  18.662  0.00  0.00    +0.000 A 
ATOM     28  F   UNL     1       0.834  11.767  18.306  0.00  0.00    +0.000 F 
ATOM     29  C   UNL     1       1.997   9.781  17.801  0.00  0.00    +0.000 A 
ATOM     30  C   UNL     1       2.378   8.489  18.166  0.00  0.00    +0.000 A 
ENDBRANCH  23  24
ENDBRANCH  22  23
ENDBRANCH  21  22
ENDBRANCH  20  21
ENDBRANCH  19  20
ENDBRANCH  18  19
ENDBRANCH   4  18
TORSDOF 14
ENDMDL
MODEL 6
REMARK VINA RESULT:      -6.6      4.046      8.632
REMARK  Name = 
REMARK  16 active torsions:
REMARK  status: ('A' for Active; 'I' for Inactive)
REMARK    1  A    between atoms: C_1  and  C_2
REMARK    2  A    between atoms: C_2  and  C_3
REMARK    3  A    between atoms: C_2  and  N_4
REMARK    4  A    between atoms: N_4  and  C_5
REMARK    5  A    between atoms: C_5  and  C_6
REMARK    6  A    between atoms: C_6  and  O_7
REMARK    7  A    between atoms: C_6  and  C_8
REMARK    8  A    between atoms: C_8  and  O_9
REMARK    9  A    between atoms: O_9  and  C_10
REMARK   10  A    between atoms: C_13  and  O_14
REMARK   11  A    between atoms: O_14  and  C_15
REMARK   12  A    between atoms: C_15  and  C_16
REMARK   13  A    between atoms: C_16  and  O_17
REMARK   14  A    between atoms: O_17  and  C_18
REMARK   15  A    between atoms: C_18  and  C_19
REMARK   16  A    between atoms: C_19  and  C_20
REMARK                            x       y       z     vdW  Elec       q    Type
REMARK                         _______ _______ _______ _____ _____    ______ ____
ROOT
ATOM      1  C   UNL     1       1.454   8.152  20.060  0.00  0.00    +0.000 A 
ATOM      2  C   UNL     1       1.605   8.976  18.948  0.00  0.00    +0.000 A 
ATOM      3  C   UNL     1       2.431   8.612  17.901  0.00  0.00    +0.000 A 
ATOM      4  C   UNL     1       3.144   7.416  17.930  0.00  0.00    +0.000 A 
ATOM      5  C   UNL     1       3.009   6.581  19.044  0.00  0.00    +0.000 A 
ATOM      6  C   UNL     1       2.166   6.949  20.107  0.00  0.00    +0.000 A 
ENDROOT
BRANCH   1   7
ATOM      7  O   UNL     1       0.641   8.456  21.122  0.00  0.00    +0.000 OA
BRANCH   7   8
ATOM      8  C   UNL     1      -0.113   9.670  20.939  0.00  0.00    +0.000 C 
BRANCH   8   9
ATOM      9  C   UNL     1       0.402  10.780  21.845  0.00  0.00    +0.000 C 
BRANCH   9  10
ATOM     10  O   UNL     1      -0.294  10.758  23.097  0.00  0.00    +0.000 OA
ATOM     11  H   UNL     1       0.371  10.543  23.776  0.00  0.00    +0.000 HD
ENDBRANCH   9  10
BRANCH   9  12
ATOM     12  C   UNL     1       0.239  12.143  21.161  0.00  0.00    +0.000 C 
BRANCH  12  13
ATOM     13  N   UNL     1       1.550  12.783  21.033  0.00  0.00    +0.000 NA
ATOM     14  H   UNL     1       1.695  13.366  21.863  0.00  0.00    +0.000 HD
BRANCH  13  16
ATOM     15  C   UNL     1       2.025  12.628  18.670  0.00  0.00    +0.000 C 
ATOM     16  C   UNL     1       1.681  13.580  19.814  0.00  0.00    +0.000 C 
ATOM     17  C   UNL     1       0.392  14.339  19.489  0.00  0.00    +0.000 C 
ENDBRANCH  13  16
ENDBRANCH  12  13
ENDBRANCH   9  12
ENDBRANCH   8   9
ENDBRANCH   7   8
ENDBRANCH   1   7
BRANCH   4  18
ATOM     18  O   UNL     1       3.981   7.005  16.921  0.00  0.00    +0.000 OA
BRANCH  18  19
ATOM     19  C   UNL     1       5.349   6.899  17.331  0.00  0.00    +0.000 C 
BRANCH  19  20
ATOM     20  C   UNL     1       5.850   5.472  17.284  0.00  0.00    +0.000 C 
BRANCH  20  21
ATOM     21  O   UNL     1       4.974   4.737  16.421  0.00  0.00    +0.000 OA
BRANCH  21  22
ATOM     22  C   UNL     1       4.598   3.493  17.002  0.00  0.00    +0.000 C 
BRANCH  22  23
ATOM     23  C   UNL     1       3.076   3.376  17.005  0.00  0.00    +0.000 C 
BRANCH  23  24
ATOM     24  C   UNL     1       2.565   3.229  18.412  0.00  0.00    +0.000 A 
ATOM     25  C   UNL     1       3.450   2.944  19.463  0.00  0.00    +0.000 A 
ATOM     26  C   UNL     1       2.963   2.730  20.753  0.00  0.00    +0.000 A 
ATOM     27  C   UNL     1       1.596   2.800  20.992  0.00  0.00    +0.000 A 
ATOM     28  F   UNL     1       1.131   2.586  22.228  0.00  0.00    +0.000 F 
ATOM     29  C   UNL     1       0.704   3.082  19.965  0.00  0.00    +0.000 A 
ATOM     30  C   UNL     1       1.187   3.296  18.673  0.00  0.00    +0.000 A 
ENDBRANCH  23  24
ENDBRANCH  22  23
ENDBRANCH  21  22
ENDBRANCH  20  21
ENDBRANCH  19  20
ENDBRANCH  18  19
ENDBRANCH   4  18
TORSDOF 14
ENDMDL
MODEL 7
REMARK VINA RESULT:      -6.6      3.717      8.814
REMARK  Name = 
REMARK  16 active torsions:
REMARK  status: ('A' for Active; 'I' for Inactive)
REMARK    1  A    between atoms: C_1  and  C_2
REMARK    2  A    between atoms: C_2  and  C_3
REMARK    3  A    between atoms: C_2  and  N_4
REMARK    4  A    between atoms: N_4  and  C_5
REMARK    5  A    between atoms: C_5  and  C_6
REMARK    6  A    between atoms: C_6  and  O_7
REMARK    7  A    between atoms: C_6  and  C_8
REMARK    8  A    between atoms: C_8  and  O_9
REMARK    9  A    between atoms: O_9  and  C_10
REMARK   10  A    between atoms: C_13  and  O_14
REMARK   11  A    between atoms: O_14  and  C_15
REMARK   12  A    between atoms: C_15  and  C_16
REMARK   13  A    between atoms: C_16  and  O_17
REMARK   14  A    between atoms: O_17  and  C_18
REMARK   15  A    between atoms: C_18  and  C_19
REMARK   16  A    between atoms: C_19  and  C_20
REMARK                            x       y       z     vdW  Elec       q    Type
REMARK                         _______ _______ _______ _____ _____    ______ ____
ROOT
ATOM      1  C   UNL     1       1.162   9.671  18.683  0.00  0.00    +0.000 A 
ATOM      2  C   UNL     1       1.918   8.931  17.779  0.00  0.00    +0.000 A 
ATOM      3  C   UNL     1       2.514   7.743  18.159  0.00  0.00    +0.000 A 
ATOM      4  C   UNL     1       2.385   7.255  19.457  0.00  0.00    +0.000 A 
ATOM      5  C   UNL     1       1.635   7.992  20.379  0.00  0.00    +0.000 A 
ATOM      6  C   UNL     1       1.024   9.199  19.992  0.00  0.00    +0.000 A 
ENDROOT
BRANCH   1   7
ATOM      7  O   UNL     1       0.538  10.850  18.359  0.00  0.00    +0.000 OA
BRANCH   7   8
ATOM      8  C   UNL     1      -0.653  11.099  19.130  0.00  0.00    +0.000 C 
BRANCH   8   9
ATOM      9  C   UNL     1      -1.256  12.455  18.791  0.00  0.00    +0.000 C 
BRANCH   9  10
ATOM     10  O   UNL     1      -1.101  12.728  17.393  0.00  0.00    +0.000 OA
ATOM     11  H   UNL     1      -1.997  12.891  17.045  0.00  0.00    +0.000 HD
ENDBRANCH   9  10
BRANCH   9  12
ATOM     12  C   UNL     1      -0.597  13.556  19.632  0.00  0.00    +0.000 C 
BRANCH  12  13
ATOM     13  N   UNL     1       0.796  13.191  19.902  0.00  0.00    +0.000 NA
ATOM     14  H   UNL     1       0.864  12.935  20.891  0.00  0.00    +0.000 HD
BRANCH  13  16
ATOM     15  C   UNL     1       2.842  13.662  18.708  0.00  0.00    +0.000 C 
ATOM     16  C   UNL     1       1.740  14.261  19.580  0.00  0.00    +0.000 C 
ATOM     17  C   UNL     1       1.060  15.415  18.838  0.00  0.00    +0.000 C 
ENDBRANCH  13  16
ENDBRANCH  12  13
ENDBRANCH   9  12
ENDBRANCH   8   9
ENDBRANCH   7   8
ENDBRANCH   1   7
BRANCH   4  18
ATOM     18  O   UNL     1       2.959   6.084  19.891  0.00  0.00    +0.000 OA
BRANCH  18  19
ATOM     19  C   UNL     1       2.015   5.021  20.060  0.00  0.00    +0.000 C 
BRANCH  19  20
ATOM     20  C   UNL     1       2.688   3.671  20.174  0.00  0.00    +0.000 C 
BRANCH  20  21
ATOM     21  O   UNL     1       2.324   2.910  19.017  0.00  0.00    +0.000 OA
BRANCH  21  22
ATOM     22  C   UNL     1       2.647   3.604  17.818  0.00  0.00    +0.000 C 
BRANCH  22  23
ATOM     23  C   UNL     1       4.056   3.216  17.373  0.00  0.00    +0.000 C 
BRANCH  23  24
ATOM     24  C   UNL     1       4.953   4.424  17.361  0.00  0.00    +0.000 A 
ATOM     25  C   UNL     1       5.901   4.615  18.377  0.00  0.00    +0.000 A 
ATOM     26  C   UNL     1       6.676   5.774  18.405  0.00  0.00    +0.000 A 
ATOM     27  C   UNL     1       6.503   6.740  17.422  0.00  0.00    +0.000 A 
ATOM     28  F   UNL     1       7.242   7.857  17.456  0.00  0.00    +0.000 F 
ATOM     29  C   UNL     1       5.570   6.569  16.407  0.00  0.00    +0.000 A 
ATOM     30  C   UNL     1       4.793   5.411  16.375  0.00  0.00    +0.000 A 
ENDBRANCH  23  24
ENDBRANCH  22  23
ENDBRANCH  21  22
ENDBRANCH  20  21
ENDBRANCH  19  20
ENDBRANCH  18  19
ENDBRANCH   4  18
TORSDOF 14
ENDMDL
MODEL 8
REMARK VINA RESULT:      -6.5      3.357      4.989
REMARK  Name = 
REMARK  16 active torsions:
REMARK  status: ('A' for Active; 'I' for Inactive)
REMARK    1  A    between atoms: C_1  and  C_2
REMARK    2  A    between atoms: C_2  and  C_3
REMARK    3  A    between atoms: C_2  and  N_4
REMARK    4  A    between atoms: N_4  and  C_5
REMARK    5  A    between atoms: C_5  and  C_6
REMARK    6  A    between atoms: C_6  and  O_7
REMARK    7  A    between atoms: C_6  and  C_8
REMARK    8  A    between atoms: C_8  and  O_9
REMARK    9  A    between atoms: O_9  and  C_10
REMARK   10  A    between atoms: C_13  and  O_14
REMARK   11  A    between atoms: O_14  and  C_15
REMARK   12  A    between atoms: C_15  and  C_16
REMARK   13  A    between atoms: C_16  and  O_17
REMARK   14  A    between atoms: O_17  and  C_18
REMARK   15  A    between atoms: C_18  and  C_19
REMARK   16  A    between atoms: C_19  and  C_20
REMARK                            x       y       z     vdW  Elec       q    Type
REMARK                         _______ _______ _______ _____ _____    ______ ____
ROOT
ATOM      1  C   UNL     1       3.533   3.803  17.002  0.00  0.00    +0.000 A 
ATOM      2  C   UNL     1       2.169   4.034  17.151  0.00  0.00    +0.000 A 
ATOM      3  C   UNL     1       1.438   3.372  18.120  0.00  0.00    +0.000 A 
ATOM      4  C   UNL     1       2.041   2.447  18.969  0.00  0.00    +0.000 A 
ATOM      5  C   UNL     1       3.410   2.197  18.825  0.00  0.00    +0.000 A 
ATOM      6  C   UNL     1       4.154   2.874  17.843  0.00  0.00    +0.000 A 
ENDROOT
BRANCH   1   7
ATOM      7  O   UNL     1       4.310   4.439  16.066  0.00  0.00    +0.000 OA
BRANCH   7   8
ATOM      8  C   UNL     1       5.243   3.563  15.404  0.00  0.00    +0.000 C 
BRANCH   8   9
ATOM      9  C   UNL     1       6.195   4.347  14.511  0.00  0.00    +0.000 C 
BRANCH   9  10
ATOM     10  O   UNL     1       6.591   3.547  13.391  0.00  0.00    +0.000 OA
ATOM     11  H   UNL     1       7.023   4.153  12.761  0.00  0.00    +0.000 HD
ENDBRANCH   9  10
BRANCH   9  12
ATOM     12  C   UNL     1       7.423   4.800  15.312  0.00  0.00    +0.000 C 
BRANCH  12  13
ATOM     13  N   UNL     1       7.149   6.101  15.926  0.00  0.00    +0.000 NA
ATOM     14  H   UNL     1       7.891   6.744  15.637  0.00  0.00    +0.000 HD
BRANCH  13  16
ATOM     15  C   UNL     1       7.638   4.694  17.828  0.00  0.00    +0.000 C 
ATOM     16  C   UNL     1       7.061   6.037  17.385  0.00  0.00    +0.000 C 
ATOM     17  C   UNL     1       7.834   7.179  18.051  0.00  0.00    +0.000 C 
ENDBRANCH  13  16
ENDBRANCH  12  13
ENDBRANCH   9  12
ENDBRANCH   8   9
ENDBRANCH   7   8
ENDBRANCH   1   7
BRANCH   4  18
ATOM     18  O   UNL     1       1.365   1.756  19.946  0.00  0.00    +0.000 OA
BRANCH  18  19
ATOM     19  C   UNL     1       1.318   2.448  21.198  0.00  0.00    +0.000 C 
BRANCH  19  20
ATOM     20  C   UNL     1       2.622   3.148  21.513  0.00  0.00    +0.000 C 
BRANCH  20  21
ATOM     21  O   UNL     1       2.305   4.485  21.919  0.00  0.00    +0.000 OA
BRANCH  21  22
ATOM     22  C   UNL     1       1.695   5.216  20.861  0.00  0.00    +0.000 C 
BRANCH  22  23
ATOM     23  C   UNL     1       2.767   5.990  20.097  0.00  0.00    +0.000 C 
BRANCH  23  24
ATOM     24  C   UNL     1       2.232   7.324  19.652  0.00  0.00    +0.000 A 
ATOM     25  C   UNL     1       1.523   8.140  20.547  0.00  0.00    +0.000 A 
ATOM     26  C   UNL     1       0.961   9.339  20.109  0.00  0.00    +0.000 A 
ATOM     27  C   UNL     1       1.106   9.722  18.782  0.00  0.00    +0.000 A 
ATOM     28  F   UNL     1       0.558  10.869  18.362  0.00  0.00    +0.000 F 
ATOM     29  C   UNL     1       1.805   8.929  17.880  0.00  0.00    +0.000 A 
ATOM     30  C   UNL     1       2.368   7.728  18.314  0.00  0.00    +0.000 A 
ENDBRANCH  23  24
ENDBRANCH  22  23
ENDBRANCH  21  22
ENDBRANCH  20  21
ENDBRANCH  19  20
ENDBRANCH  18  19
ENDBRANCH   4  18
TORSDOF 14
ENDMDL
MODEL 9
REMARK VINA RESULT:      -6.4      3.067      4.358
REMARK  Name = 
REMARK  16 active torsions:
REMARK  status: ('A' for Active; 'I' for Inactive)
REMARK    1  A    between atoms: C_1  and  C_2
REMARK    2  A    between atoms: C_2  and  C_3
REMARK    3  A    between atoms: C_2  and  N_4
REMARK    4  A    between atoms: N_4  and  C_5
REMARK    5  A    between atoms: C_5  and  C_6
REMARK    6  A    between atoms: C_6  and  O_7
REMARK    7  A    between atoms: C_6  and  C_8
REMARK    8  A    between atoms: C_8  and  O_9
REMARK    9  A    between atoms: O_9  and  C_10
REMARK   10  A    between atoms: C_13  and  O_14
REMARK   11  A    between atoms: O_14  and  C_15
REMARK   12  A    between atoms: C_15  and  C_16
REMARK   13  A    between atoms: C_16  and  O_17
REMARK   14  A    between atoms: O_17  and  C_18
REMARK   15  A    between atoms: C_18  and  C_19
REMARK   16  A    between atoms: C_19  and  C_20
REMARK                            x       y       z     vdW  Elec       q    Type
REMARK                         _______ _______ _______ _____ _____    ______ ____
ROOT
ATOM      1  C   UNL     1       2.856   7.088  18.314  0.00  0.00    +0.000 A 
ATOM      2  C   UNL     1       2.437   8.304  17.781  0.00  0.00    +0.000 A 
ATOM      3  C   UNL     1       1.693   9.191  18.536  0.00  0.00    +0.000 A 
ATOM      4  C   UNL     1       1.333   8.893  19.848  0.00  0.00    +0.000 A 
ATOM      5  C   UNL     1       1.739   7.672  20.395  0.00  0.00    +0.000 A 
ATOM      6  C   UNL     1       2.500   6.771  19.629  0.00  0.00    +0.000 A 
ENDROOT
BRANCH   1   7
ATOM      7  O   UNL     1       3.605   6.174  17.616  0.00  0.00    +0.000 OA
BRANCH   7   8
ATOM      8  C   UNL     1       4.730   5.667  18.360  0.00  0.00    +0.000 C 
BRANCH   8   9
ATOM      9  C   UNL     1       5.206   4.334  17.798  0.00  0.00    +0.000 C 
BRANCH   9  10
ATOM     10  O   UNL     1       5.503   4.465  16.402  0.00  0.00    +0.000 OA
ATOM     11  H   UNL     1       4.698   4.196  15.924  0.00  0.00    +0.000 HD
ENDBRANCH   9  10
BRANCH   9  12
ATOM     12  C   UNL     1       4.143   3.252  18.024  0.00  0.00    +0.000 C 
BRANCH  12  13
ATOM     13  N   UNL     1       3.541   3.432  19.346  0.00  0.00    +0.000 NA
ATOM     14  H   UNL     1       4.166   3.004  20.035  0.00  0.00    +0.000 HD
BRANCH  13  16
ATOM     15  C   UNL     1       1.713   3.059  20.881  0.00  0.00    +0.000 C 
ATOM     16  C   UNL     1       2.198   2.860  19.446  0.00  0.00    +0.000 C 
ATOM     17  C   UNL     1       1.223   3.526  18.471  0.00  0.00    +0.000 C 
ENDBRANCH  13  16
ENDBRANCH  12  13
ENDBRANCH   9  12
ENDBRANCH   8   9
ENDBRANCH   7   8
ENDBRANCH   1   7
BRANCH   4  18
ATOM     18  O   UNL     1       0.591   9.734  20.643  0.00  0.00    +0.000 OA
BRANCH  18  19
ATOM     19  C   UNL     1       0.771   9.493  22.043  0.00  0.00    +0.000 C 
BRANCH  19  20
ATOM     20  C   UNL     1      -0.514   9.663  22.822  0.00  0.00    +0.000 C 
BRANCH  20  21
ATOM     21  O   UNL     1      -0.508  10.984  23.378  0.00  0.00    +0.000 OA
BRANCH  21  22
ATOM     22  C   UNL     1      -1.440  11.829  22.713  0.00  0.00    +0.000 C 
BRANCH  22  23
ATOM     23  C   UNL     1      -0.767  13.157  22.376  0.00  0.00    +0.000 C 
BRANCH  23  24
ATOM     24  C   UNL     1       0.011  13.039  21.093  0.00  0.00    +0.000 A 
ATOM     25  C   UNL     1       1.407  13.170  21.094  0.00  0.00    +0.000 A 
ATOM     26  C   UNL     1       2.117  13.138  19.894  0.00  0.00    +0.000 A 
ATOM     27  C   UNL     1       1.433  12.977  18.695  0.00  0.00    +0.000 A 
ATOM     28  F   UNL     1       2.115  12.956  17.543  0.00  0.00    +0.000 F 
ATOM     29  C   UNL     1       0.050  12.845  18.673  0.00  0.00    +0.000 A 
ATOM     30  C   UNL     1      -0.664  12.877  19.872  0.00  0.00    +0.000 A 
ENDBRANCH  23  24
ENDBRANCH  22  23
ENDBRANCH  21  22
ENDBRANCH  20  21
ENDBRANCH  19  20
ENDBRANCH  18  19
ENDBRANCH   4  18
TORSDOF 14
ENDMDL
