MODEL 1
REMARK VINA RESULT:      -6.9      0.000      0.000
REMARK  Name = 
REMARK  5 active torsions:
REMARK  status: ('A' for Active; 'I' for Inactive)
REMARK    1  A    between atoms: C_1  and  O_2
REMARK    2  A    between atoms: O_2  and  C_3
REMARK    3  A    between atoms: C_7  and  C_8
REMARK    4  A    between atoms: C_9  and  C_10
REMARK    5  A    between atoms: C_10  and  C_12
REMARK                            x       y       z     vdW  Elec       q    Type
REMARK                         _______ _______ _______ _____ _____    ______ ____
ROOT
ATOM      1  C   UNL     1       5.140   4.277  17.686  0.00  0.00    +0.000 C 
ATOM      2  C   UNL     1       5.384   4.841  16.494  0.00  0.00    +0.000 C 
ENDROOT
BRANCH   1   7
ATOM      3  C   UNL     1       2.273   3.938  20.156  0.00  0.00    +0.000 A 
ATOM      4  C   UNL     1       1.186   3.935  19.285  0.00  0.00    +0.000 A 
ATOM      5  C   UNL     1       1.386   4.040  17.908  0.00  0.00    +0.000 A 
ATOM      6  C   UNL     1       2.680   4.151  17.396  0.00  0.00    +0.000 A 
ATOM      7  C   UNL     1       3.784   4.172  18.254  0.00  0.00    +0.000 A 
ATOM      8  C   UNL     1       3.565   4.055  19.637  0.00  0.00    +0.000 A 
BRANCH   3  10
ATOM      9  C   UNL     1       1.674   2.493  21.945  0.00  0.00    +0.000 C 
ATOM     10  O   UNL     1       1.961   3.808  21.484  0.00  0.00    +0.000 OA
ENDBRANCH   3  10
ENDBRANCH   1   7
BRANCH   2  11
ATOM     11  C   UNL     1       6.752   4.903  15.894  0.00  0.00    +0.000 C 
ATOM     12  O   UNL     1       7.740   5.104  16.602  0.00  0.00    +0.000 OA
BRANCH  11  13
ATOM     13  C   UNL     1       6.849   4.686  14.460  0.00  0.00    +0.000 A 
ATOM     14  C   UNL     1       6.201   3.803  13.610  0.00  0.00    +0.000 A 
ATOM     15  C   UNL     1       6.709   3.986  12.302  0.00  0.00    +0.000 A 
ATOM     16  C   UNL     1       7.648   4.986  12.371  0.00  0.00    +0.000 A 
ATOM     17  N   UNL     1       7.711   5.419  13.669  0.00  0.00    +0.000 N 
ATOM     18  H   UNL     1       8.315   6.153  14.024  0.00  0.00    +0.000 HD
ENDBRANCH  11  13
ENDBRANCH   2  11
TORSDOF 4
ENDMDL
MODEL 2
REMARK VINA RESULT:      -6.8      1.654      2.172
REMARK  Name = 
REMARK  5 active torsions:
REMARK  status: ('A' for Active; 'I' for Inactive)
REMARK    1  A    between atoms: C_1  and  O_2
REMARK    2  A    between atoms: O_2  and  C_3
REMARK    3  A    between atoms: C_7  and  C_8
REMARK    4  A    between atoms: C_9  and  C_10
REMARK    5  A    between atoms: C_10  and  C_12
REMARK                            x       y       z     vdW  Elec       q    Type
REMARK                         _______ _______ _______ _____ _____    ______ ____
ROOT
ATOM      1  C   UNL     1       4.683   3.893  18.244  0.00  0.00    +0.000 C 
ATOM      2  C   UNL     1       5.745   4.704  18.362  0.00  0.00    +0.000 C 
ENDROOT
BRANCH   1   7
ATOM      3  C   UNL     1       1.943   5.478  20.344  0.00  0.00    +0.000 A 
ATOM      4  C   UNL     1       1.097   4.385  20.524  0.00  0.00    +0.000 A 
ATOM      5  C   UNL     1       1.418   3.146  19.969  0.00  0.00    +0.000 A 
ATOM      6  C   UNL     1       2.591   2.995  19.226  0.00  0.00    +0.000 A 
ATOM      7  C   UNL     1       3.446   4.083  19.020  0.00  0.00    +0.000 A 
ATOM      8  C   UNL     1       3.112   5.321  19.595  0.00  0.00    +0.000 A 
BRANCH   3  10
ATOM      9  C   UNL     1       1.750   7.844  20.224  0.00  0.00    +0.000 C 
ATOM     10  O   UNL     1       1.540   6.638  20.951  0.00  0.00    +0.000 OA
ENDBRANCH   3  10
ENDBRANCH   1   7
BRANCH   2  11
ATOM     11  C   UNL     1       6.982   4.541  17.537  0.00  0.00    +0.000 C 
ATOM     12  O   UNL     1       8.085   4.437  18.074  0.00  0.00    +0.000 OA
BRANCH  11  13
ATOM     13  C   UNL     1       6.805   4.484  16.095  0.00  0.00    +0.000 A 
ATOM     14  C   UNL     1       5.948   3.744  15.295  0.00  0.00    +0.000 A 
ATOM     15  C   UNL     1       6.229   4.044  13.941  0.00  0.00    +0.000 A 
ATOM     16  C   UNL     1       7.243   4.972  13.936  0.00  0.00    +0.000 A 
ATOM     17  N   UNL     1       7.570   5.249  15.237  0.00  0.00    +0.000 N 
ATOM     18  H   UNL     1       8.283   5.900  15.547  0.00  0.00    +0.000 HD
ENDBRANCH  11  13
ENDBRANCH   2  11
TORSDOF 4
ENDMDL
MODEL 3
REMARK VINA RESULT:      -6.8      1.578      1.858
REMARK  Name = 
REMARK  5 active torsions:
REMARK  status: ('A' for Active; 'I' for Inactive)
REMARK    1  A    between atoms: C_1  and  O_2
REMARK    2  A    between atoms: O_2  and  C_3
REMARK    3  A    between atoms: C_7  and  C_8
REMARK    4  A    between atoms: C_9  and  C_10
REMARK    5  A    between atoms: C_10  and  C_12
REMARK                            x       y       z     vdW  Elec       q    Type
REMARK                         _______ _______ _______ _____ _____    ______ ____
ROOT
ATOM      1  C   UNL     1       4.969   5.567  18.173  0.00  0.00    +0.000 C 
ATOM      2  C   UNL     1       5.884   4.596  18.315  0.00  0.00    +0.000 C 
ENDROOT
BRANCH   1   7
ATOM      3  C   UNL     1       2.289   4.812  20.759  0.00  0.00    +0.000 A 
ATOM      4  C   UNL     1       1.576   6.009  20.742  0.00  0.00    +0.000 A 
ATOM      5  C   UNL     1       1.963   7.049  19.896  0.00  0.00    +0.000 A 
ATOM      6  C   UNL     1       3.072   6.894  19.061  0.00  0.00    +0.000 A 
ATOM      7  C   UNL     1       3.811   5.707  19.074  0.00  0.00    +0.000 A 
ATOM      8  C   UNL     1       3.401   4.667  19.926  0.00  0.00    +0.000 A 
BRANCH   3  10
ATOM      9  C   UNL     1       2.023   2.499  21.234  0.00  0.00    +0.000 C 
ATOM     10  O   UNL     1       1.807   3.854  21.612  0.00  0.00    +0.000 OA
ENDBRANCH   3  10
ENDBRANCH   1   7
BRANCH   2  11
ATOM     11  C   UNL     1       7.085   4.484  17.432  0.00  0.00    +0.000 C 
ATOM     12  O   UNL     1       8.215   4.404  17.916  0.00  0.00    +0.000 OA
BRANCH  11  13
ATOM     13  C   UNL     1       6.844   4.446  15.999  0.00  0.00    +0.000 A 
ATOM     14  C   UNL     1       5.946   3.721  15.230  0.00  0.00    +0.000 A 
ATOM     15  C   UNL     1       6.168   4.036  13.868  0.00  0.00    +0.000 A 
ATOM     16  C   UNL     1       7.187   4.957  13.828  0.00  0.00    +0.000 A 
ATOM     17  N   UNL     1       7.574   5.216  15.116  0.00  0.00    +0.000 N 
ATOM     18  H   UNL     1       8.306   5.858  15.401  0.00  0.00    +0.000 HD
ENDBRANCH  11  13
ENDBRANCH   2  11
TORSDOF 4
ENDMDL
MODEL 4
REMARK VINA RESULT:      -6.7      1.379      1.733
REMARK  Name = 
REMARK  5 active torsions:
REMARK  status: ('A' for Active; 'I' for Inactive)
REMARK    1  A    between atoms: C_1  and  O_2
REMARK    2  A    between atoms: O_2  and  C_3
REMARK    3  A    between atoms: C_7  and  C_8
REMARK    4  A    between atoms: C_9  and  C_10
REMARK    5  A    between atoms: C_10  and  C_12
REMARK                            x       y       z     vdW  Elec       q    Type
REMARK                         _______ _______ _______ _____ _____    ______ ____
ROOT
ATOM      1  C   UNL     1       4.579   4.559  16.581  0.00  0.00    +0.000 C 
ATOM      2  C   UNL     1       5.890   4.292  16.488  0.00  0.00    +0.000 C 
ENDROOT
BRANCH   1   7
ATOM      3  C   UNL     1       2.027   3.874  19.311  0.00  0.00    +0.000 A 
ATOM      4  C   UNL     1       2.041   2.481  19.327  0.00  0.00    +0.000 A 
ATOM      5  C   UNL     1       2.874   1.773  18.461  0.00  0.00    +0.000 A 
ATOM      6  C   UNL     1       3.699   2.461  17.568  0.00  0.00    +0.000 A 
ATOM      7  C   UNL     1       3.689   3.859  17.524  0.00  0.00    +0.000 A 
ATOM      8  C   UNL     1       2.850   4.555  18.411  0.00  0.00    +0.000 A 
BRANCH   3  10
ATOM      9  C   UNL     1       1.600   5.719  20.748  0.00  0.00    +0.000 C 
ATOM     10  O   UNL     1       1.187   4.463  20.220  0.00  0.00    +0.000 OA
ENDBRANCH   3  10
ENDBRANCH   1   7
BRANCH   2  11
ATOM     11  C   UNL     1       6.803   5.037  15.568  0.00  0.00    +0.000 C 
ATOM     12  O   UNL     1       7.495   5.966  15.986  0.00  0.00    +0.000 OA
BRANCH  11  13
ATOM     13  C   UNL     1       6.846   4.590  14.185  0.00  0.00    +0.000 A 
ATOM     14  C   UNL     1       7.512   5.082  13.072  0.00  0.00    +0.000 A 
ATOM     15  C   UNL     1       7.164   4.286  11.955  0.00  0.00    +0.000 A 
ATOM     16  C   UNL     1       6.304   3.314  12.404  0.00  0.00    +0.000 A 
ATOM     17  N   UNL     1       6.134   3.489  13.752  0.00  0.00    +0.000 N 
ATOM     18  H   UNL     1       5.555   2.919  14.359  0.00  0.00    +0.000 HD
ENDBRANCH  11  13
ENDBRANCH   2  11
TORSDOF 4
ENDMDL
MODEL 5
REMARK VINA RESULT:      -6.7      1.826      2.318
REMARK  Name = 
REMARK  5 active torsions:
REMARK  status: ('A' for Active; 'I' for Inactive)
REMARK    1  A    between atoms: C_1  and  O_2
REMARK    2  A    between atoms: O_2  and  C_3
REMARK    3  A    between atoms: C_7  and  C_8
REMARK    4  A    between atoms: C_9  and  C_10
REMARK    5  A    between atoms: C_10  and  C_12
REMARK                            x       y       z     vdW  Elec       q    Type
REMARK                         _______ _______ _______ _____ _____    ______ ____
ROOT
ATOM      1  C   UNL     1       5.051   4.144  15.868  0.00  0.00    +0.000 C 
ATOM      2  C   UNL     1       5.681   5.070  15.131  0.00  0.00    +0.000 C 
ENDROOT
BRANCH   1   7
ATOM      3  C   UNL     1       2.209   4.005  18.386  0.00  0.00    +0.000 A 
ATOM      4  C   UNL     1       2.400   5.214  19.051  0.00  0.00    +0.000 A 
ATOM      5  C   UNL     1       3.441   6.066  18.682  0.00  0.00    +0.000 A 
ATOM      6  C   UNL     1       4.301   5.707  17.641  0.00  0.00    +0.000 A 
ATOM      7  C   UNL     1       4.137   4.490  16.971  0.00  0.00    +0.000 A 
ATOM      8  C   UNL     1       3.077   3.650  17.350  0.00  0.00    +0.000 A 
BRANCH   3  10
ATOM      9  C   UNL     1       0.896   3.253  20.219  0.00  0.00    +0.000 C 
ATOM     10  O   UNL     1       1.143   3.259  18.818  0.00  0.00    +0.000 OA
ENDBRANCH   3  10
ENDBRANCH   1   7
BRANCH   2  11
ATOM     11  C   UNL     1       6.569   4.720  13.980  0.00  0.00    +0.000 C 
ATOM     12  O   UNL     1       7.733   5.121  13.939  0.00  0.00    +0.000 OA
BRANCH  11  13
ATOM     13  C   UNL     1       5.998   3.870  12.948  0.00  0.00    +0.000 A 
ATOM     14  C   UNL     1       4.778   3.904  12.290  0.00  0.00    +0.000 A 
ATOM     15  C   UNL     1       4.718   2.804  11.402  0.00  0.00    +0.000 A 
ATOM     16  C   UNL     1       5.906   2.125  11.520  0.00  0.00    +0.000 A 
ATOM     17  N   UNL     1       6.681   2.785  12.437  0.00  0.00    +0.000 N 
ATOM     18  H   UNL     1       7.615   2.518  12.730  0.00  0.00    +0.000 HD
ENDBRANCH  11  13
ENDBRANCH   2  11
TORSDOF 4
ENDMDL
MODEL 6
REMARK VINA RESULT:      -6.7      2.956      7.156
REMARK  Name = 
REMARK  5 active torsions:
REMARK  status: ('A' for Active; 'I' for Inactive)
REMARK    1  A    between atoms: C_1  and  O_2
REMARK    2  A    between atoms: O_2  and  C_3
REMARK    3  A    between atoms: C_7  and  C_8
REMARK    4  A    between atoms: C_9  and  C_10
REMARK    5  A    between atoms: C_10  and  C_12
REMARK                            x       y       z     vdW  Elec       q    Type
REMARK                         _______ _______ _______ _____ _____    ______ ____
ROOT
ATOM      1  C   UNL     1       3.624   5.073  18.256  0.00  0.00    +0.000 C 
ATOM      2  C   UNL     1       3.356   6.066  19.117  0.00  0.00    +0.000 C 
ENDROOT
BRANCH   1   7
ATOM      3  C   UNL     1       6.835   6.123  16.518  0.00  0.00    +0.000 A 
ATOM      4  C   UNL     1       6.899   5.168  15.505  0.00  0.00    +0.000 A 
ATOM      5  C   UNL     1       5.906   4.195  15.389  0.00  0.00    +0.000 A 
ATOM      6  C   UNL     1       4.840   4.173  16.292  0.00  0.00    +0.000 A 
ATOM      7  C   UNL     1       4.765   5.112  17.326  0.00  0.00    +0.000 A 
ATOM      8  C   UNL     1       5.769   6.090  17.421  0.00  0.00    +0.000 A 
BRANCH   3  10
ATOM      9  C   UNL     1       7.801   8.041  17.536  0.00  0.00    +0.000 C 
ATOM     10  O   UNL     1       7.851   7.042  16.524  0.00  0.00    +0.000 OA
ENDBRANCH   3  10
ENDBRANCH   1   7
BRANCH   2  11
ATOM     11  C   UNL     1       2.227   6.004  20.096  0.00  0.00    +0.000 C 
ATOM     12  O   UNL     1       1.651   7.031  20.456  0.00  0.00    +0.000 OA
BRANCH  11  13
ATOM     13  C   UNL     1       1.839   4.684  20.566  0.00  0.00    +0.000 A 
ATOM     14  C   UNL     1       0.842   3.811  20.157  0.00  0.00    +0.000 A 
ATOM     15  C   UNL     1       0.876   2.670  20.993  0.00  0.00    +0.000 A 
ATOM     16  C   UNL     1       1.901   2.857  21.889  0.00  0.00    +0.000 A 
ATOM     17  N   UNL     1       2.491   4.062  21.612  0.00  0.00    +0.000 N 
ATOM     18  H   UNL     1       3.277   4.468  22.107  0.00  0.00    +0.000 HD
ENDBRANCH  11  13
ENDBRANCH   2  11
TORSDOF 4
ENDMDL
MODEL 7
REMARK VINA RESULT:      -6.7      2.772      7.029
REMARK  Name = 
REMARK  5 active torsions:
REMARK  status: ('A' for Active; 'I' for Inactive)
REMARK    1  A    between atoms: C_1  and  O_2
REMARK    2  A    between atoms: O_2  and  C_3
REMARK    3  A    between atoms: C_7  and  C_8
REMARK    4  A    between atoms: C_9  and  C_10
REMARK    5  A    between atoms: C_10  and  C_12
REMARK                            x       y       z     vdW  Elec       q    Type
REMARK                         _______ _______ _______ _____ _____    ______ ____
ROOT
ATOM      1  C   UNL     1       6.531   5.130  15.892  0.00  0.00    +0.000 C 
ATOM      2  C   UNL     1       7.172   4.478  16.873  0.00  0.00    +0.000 C 
ENDROOT
BRANCH   1   7
ATOM      3  C   UNL     1       6.145   3.465  12.499  0.00  0.00    +0.000 A 
ATOM      4  C   UNL     1       7.100   4.164  11.763  0.00  0.00    +0.000 A 
ATOM      5  C   UNL     1       7.862   5.164  12.367  0.00  0.00    +0.000 A 
ATOM      6  C   UNL     1       7.669   5.472  13.715  0.00  0.00    +0.000 A 
ATOM      7  C   UNL     1       6.705   4.794  14.468  0.00  0.00    +0.000 A 
ATOM      8  C   UNL     1       5.953   3.783  13.845  0.00  0.00    +0.000 A 
BRANCH   3  10
ATOM      9  C   UNL     1       6.255   1.426  11.282  0.00  0.00    +0.000 C 
ATOM     10  O   UNL     1       5.471   2.490  11.810  0.00  0.00    +0.000 OA
ENDBRANCH   3  10
ENDBRANCH   1   7
BRANCH   2  11
ATOM     11  C   UNL     1       6.958   4.786  18.321  0.00  0.00    +0.000 C 
ATOM     12  O   UNL     1       7.877   5.227  19.012  0.00  0.00    +0.000 OA
BRANCH  11  13
ATOM     13  C   UNL     1       5.620   4.566  18.847  0.00  0.00    +0.000 A 
ATOM     14  C   UNL     1       4.586   5.441  19.143  0.00  0.00    +0.000 A 
ATOM     15  C   UNL     1       3.508   4.695  19.676  0.00  0.00    +0.000 A 
ATOM     16  C   UNL     1       3.895   3.377  19.685  0.00  0.00    +0.000 A 
ATOM     17  N   UNL     1       5.160   3.304  19.163  0.00  0.00    +0.000 N 
ATOM     18  H   UNL     1       5.707   2.458  19.041  0.00  0.00    +0.000 HD
ENDBRANCH  11  13
ENDBRANCH   2  11
TORSDOF 4
ENDMDL
MODEL 8
REMARK VINA RESULT:      -6.6      1.115      1.379
REMARK  Name = 
REMARK  5 active torsions:
REMARK  status: ('A' for Active; 'I' for Inactive)
REMARK    1  A    between atoms: C_1  and  O_2
REMARK    2  A    between atoms: O_2  and  C_3
REMARK    3  A    between atoms: C_7  and  C_8
REMARK    4  A    between atoms: C_9  and  C_10
REMARK    5  A    between atoms: C_10  and  C_12
REMARK                            x       y       z     vdW  Elec       q    Type
REMARK                         _______ _______ _______ _____ _____    ______ ____
ROOT
ATOM      1  C   UNL     1       4.919   4.089  17.229  0.00  0.00    +0.000 C 
ATOM      2  C   UNL     1       5.252   5.292  16.736  0.00  0.00    +0.000 C 
ENDROOT
BRANCH   1   7
ATOM      3  C   UNL     1       1.981   4.436  19.613  0.00  0.00    +0.000 A 
ATOM      4  C   UNL     1       1.242   3.305  19.270  0.00  0.00    +0.000 A 
ATOM      5  C   UNL     1       1.697   2.440  18.275  0.00  0.00    +0.000 A 
ATOM      6  C   UNL     1       2.899   2.704  17.615  0.00  0.00    +0.000 A 
ATOM      7  C   UNL     1       3.649   3.842  17.933  0.00  0.00    +0.000 A 
ATOM      8  C   UNL     1       3.179   4.697  18.944  0.00  0.00    +0.000 A 
BRANCH   3  10
ATOM      9  C   UNL     1       1.718   6.599  20.562  0.00  0.00    +0.000 C 
ATOM     10  O   UNL     1       1.451   5.202  20.618  0.00  0.00    +0.000 OA
ENDBRANCH   3  10
ENDBRANCH   1   7
BRANCH   2  11
ATOM     11  C   UNL     1       6.519   5.531  15.978  0.00  0.00    +0.000 C 
ATOM     12  O   UNL     1       7.440   6.174  16.482  0.00  0.00    +0.000 OA
BRANCH  11  13
ATOM     13  C   UNL     1       6.607   4.948  14.649  0.00  0.00    +0.000 A 
ATOM     14  C   UNL     1       5.855   3.970  14.014  0.00  0.00    +0.000 A 
ATOM     15  C   UNL     1       6.405   3.748  12.729  0.00  0.00    +0.000 A 
ATOM     16  C   UNL     1       7.473   4.601  12.594  0.00  0.00    +0.000 A 
ATOM     17  N   UNL     1       7.576   5.336  13.745  0.00  0.00    +0.000 N 
ATOM     18  H   UNL     1       8.270   6.051  13.936  0.00  0.00    +0.000 HD
ENDBRANCH  11  13
ENDBRANCH   2  11
TORSDOF 4
ENDMDL
MODEL 9
REMARK VINA RESULT:      -6.6      2.405      3.563
REMARK  Name = 
REMARK  5 active torsions:
REMARK  status: ('A' for Active; 'I' for Inactive)
REMARK    1  A    between atoms: C_1  and  O_2
REMARK    2  A    between atoms: O_2  and  C_3
REMARK    3  A    between atoms: C_7  and  C_8
REMARK    4  A    between atoms: C_9  and  C_10
REMARK    5  A    between atoms: C_10  and  C_12
REMARK                            x       y       z     vdW  Elec       q    Type
REMARK                         _______ _______ _______ _____ _____    ______ ____
ROOT
ATOM      1  C   UNL     1       5.742   4.015  15.197  0.00  0.00    +0.000 C 
ATOM      2  C   UNL     1       6.651   4.794  14.593  0.00  0.00    +0.000 C 
ENDROOT
BRANCH   1   7
ATOM      3  C   UNL     1       5.886   4.825  18.906  0.00  0.00    +0.000 A 
ATOM      4  C   UNL     1       4.601   4.454  19.297  0.00  0.00    +0.000 A 
ATOM      5  C   UNL     1       3.699   3.943  18.363  0.00  0.00    +0.000 A 
ATOM      6  C   UNL     1       4.082   3.803  17.027  0.00  0.00    +0.000 A 
ATOM      7  C   UNL     1       5.361   4.185  16.610  0.00  0.00    +0.000 A 
ATOM      8  C   UNL     1       6.259   4.689  17.567  0.00  0.00    +0.000 A 
BRANCH   3  10
ATOM      9  C   UNL     1       7.969   5.789  19.523  0.00  0.00    +0.000 C 
ATOM     10  O   UNL     1       6.692   5.294  19.910  0.00  0.00    +0.000 OA
ENDBRANCH   3  10
ENDBRANCH   1   7
BRANCH   2  11
ATOM     11  C   UNL     1       7.001   4.654  13.145  0.00  0.00    +0.000 C 
ATOM     12  O   UNL     1       7.896   5.337  12.647  0.00  0.00    +0.000 OA
BRANCH  11  13
ATOM     13  C   UNL     1       6.256   3.664  12.385  0.00  0.00    +0.000 A 
ATOM     14  C   UNL     1       4.946   3.636  11.932  0.00  0.00    +0.000 A 
ATOM     15  C   UNL     1       4.725   2.402  11.276  0.00  0.00    +0.000 A 
ATOM     16  C   UNL     1       5.906   1.702  11.325  0.00  0.00    +0.000 A 
ATOM     17  N   UNL     1       6.830   2.477  11.975  0.00  0.00    +0.000 N 
ATOM     18  H   UNL     1       7.795   2.224  12.161  0.00  0.00    +0.000 HD
ENDBRANCH  11  13
ENDBRANCH   2  11
TORSDOF 4
ENDMDL
