MODEL 1
REMARK VINA RESULT:      -7.3      0.000      0.000
REMARK  Name = 
REMARK  7 active torsions:
REMARK  status: ('A' for Active; 'I' for Inactive)
REMARK    1  A    between atoms: C_1  and  C_2
REMARK    2  A    between atoms: C_2  and  C_3
REMARK    3  A    between atoms: N_5  and  C_6
REMARK    4  A    between atoms: C_6  and  C_7
REMARK    5  A    between atoms: C_7  and  O_8
REMARK    6  A    between atoms: O_8  and  C_9
REMARK    7  A    between atoms: C_9  and  C_10
REMARK                            x       y       z     vdW  Elec       q    Type
REMARK                         _______ _______ _______ _____ _____    ______ ____
ROOT
ATOM      1  C   UNL     1      -5.465  12.141  17.685  0.00  0.00    +0.000 A 
ATOM      2  N   UNL     1      -5.079  11.351  16.675  0.00  0.00    +0.000 NA
ATOM      3  N   UNL     1      -3.840  10.937  17.031  0.00  0.00    +0.000 N 
ATOM      4  C   UNL     1      -3.415  11.462  18.229  0.00  0.00    +0.000 A 
ATOM      5  C   UNL     1      -2.301  11.337  19.045  0.00  0.00    +0.000 A 
ATOM      6  N   UNL     1      -1.224  10.479  18.838  0.00  0.00    +0.000 N 
ATOM      7  C   UNL     1      -0.326   9.964  19.784  0.00  0.00    +0.000 A 
ATOM      8  C   UNL     1      -0.566  10.032  21.153  0.00  0.00    +0.000 A 
ATOM      9  C   UNL     1       0.360   9.466  21.992  0.00  0.00    +0.000 A 
ATOM     10  N   UNL     1       1.468   8.857  21.550  0.00  0.00    +0.000 NA
ATOM     11  C   UNL     1       1.607   8.828  20.215  0.00  0.00    +0.000 A 
ATOM     12  N   UNL     1       0.761   9.343  19.305  0.00  0.00    +0.000 NA
ATOM     13  N   UNL     1      -2.315  12.090  20.170  0.00  0.00    +0.000 NA
ATOM     14  C   UNL     1      -3.369  12.820  20.561  0.00  0.00    +0.000 A 
ATOM     15  N   UNL     1      -3.281  13.367  21.824  0.00  0.00    +0.000 N 
ATOM     16  C   UNL     1      -4.417  14.097  22.384  0.00  0.00    +0.000 C 
ATOM     17  C   UNL     1      -4.267  14.142  23.929  0.00  0.00    +0.000 C 
ATOM     18  N   UNL     1      -2.970  14.672  24.399  0.00  0.00    +0.000 NA
ATOM     19  C   UNL     1      -1.865  13.943  23.746  0.00  0.00    +0.000 C 
ATOM     20  C   UNL     1      -1.975  13.915  22.206  0.00  0.00    +0.000 C 
ATOM     21  N   UNL     1      -4.485  12.915  19.848  0.00  0.00    +0.000 NA
ATOM     22  C   UNL     1      -4.470  12.243  18.679  0.00  0.00    +0.000 A 
ATOM     23  H   UNL     1      -0.932  10.279  17.896  0.00  0.00    +0.000 HD
ATOM     24  H   UNL     1      -2.902  14.534  25.407  0.00  0.00    +0.000 HD
ENDROOT
BRANCH   1  26
ATOM     25  C   UNL     1      -6.779  14.072  16.830  0.00  0.00    +0.000 C 
ATOM     26  C   UNL     1      -6.794  12.809  17.675  0.00  0.00    +0.000 C 
ENDBRANCH   1  26
BRANCH   3  27
ATOM     27  C   UNL     1      -3.124  10.033  16.142  0.00  0.00    +0.000 C 
BRANCH  27  28
ATOM     28  C   UNL     1      -3.149  10.448  14.664  0.00  0.00    +0.000 C 
BRANCH  28  29
ATOM     29  O   UNL     1      -4.228   9.796  13.975  0.00  0.00    +0.000 OA
BRANCH  29  30
ATOM     30  C   UNL     1      -4.021   9.827  12.546  0.00  0.00    +0.000 C 
BRANCH  30  31
ATOM     31  C   UNL     1      -5.273   9.495  11.725  0.00  0.00    +0.000 C 
ATOM     32  F   UNL     1      -5.004   8.790  10.607  0.00  0.00    +0.000 F 
ATOM     33  F   UNL     1      -6.151   8.771  12.461  0.00  0.00    +0.000 F 
ATOM     34  F   UNL     1      -5.915  10.628  11.348  0.00  0.00    +0.000 F 
ENDBRANCH  30  31
ENDBRANCH  29  30
ENDBRANCH  28  29
ENDBRANCH  27  28
ENDBRANCH   3  27
TORSDOF 6
ENDMDL
MODEL 2
REMARK VINA RESULT:      -6.7      0.834      1.068
REMARK  Name = 
REMARK  7 active torsions:
REMARK  status: ('A' for Active; 'I' for Inactive)
REMARK    1  A    between atoms: C_1  and  C_2
REMARK    2  A    between atoms: C_2  and  C_3
REMARK    3  A    between atoms: N_5  and  C_6
REMARK    4  A    between atoms: C_6  and  C_7
REMARK    5  A    between atoms: C_7  and  O_8
REMARK    6  A    between atoms: O_8  and  C_9
REMARK    7  A    between atoms: C_9  and  C_10
REMARK                            x       y       z     vdW  Elec       q    Type
REMARK                         _______ _______ _______ _____ _____    ______ ____
ROOT
ATOM      1  C   UNL     1      -5.498  12.277  17.220  0.00  0.00    +0.000 A 
ATOM      2  N   UNL     1      -4.894  11.765  16.139  0.00  0.00    +0.000 NA
ATOM      3  N   UNL     1      -3.669  11.399  16.585  0.00  0.00    +0.000 N 
ATOM      4  C   UNL     1      -3.465  11.687  17.914  0.00  0.00    +0.000 A 
ATOM      5  C   UNL     1      -2.456  11.491  18.845  0.00  0.00    +0.000 A 
ATOM      6  N   UNL     1      -1.265  10.802  18.630  0.00  0.00    +0.000 N 
ATOM      7  C   UNL     1      -0.438  10.178  19.576  0.00  0.00    +0.000 A 
ATOM      8  C   UNL     1      -0.855   9.923  20.878  0.00  0.00    +0.000 A 
ATOM      9  C   UNL     1       0.019   9.276  21.714  0.00  0.00    +0.000 A 
ATOM     10  N   UNL     1       1.240   8.884  21.327  0.00  0.00    +0.000 NA
ATOM     11  C   UNL     1       1.549   9.159  20.050  0.00  0.00    +0.000 A 
ATOM     12  N   UNL     1       0.768   9.780  19.148  0.00  0.00    +0.000 NA
ATOM     13  N   UNL     1      -2.704  11.975  20.084  0.00  0.00    +0.000 NA
ATOM     14  C   UNL     1      -3.880  12.503  20.454  0.00  0.00    +0.000 A 
ATOM     15  N   UNL     1      -4.020  12.767  21.800  0.00  0.00    +0.000 N 
ATOM     16  C   UNL     1      -5.297  13.248  22.321  0.00  0.00    +0.000 C 
ATOM     17  C   UNL     1      -5.351  12.969  23.847  0.00  0.00    +0.000 C 
ATOM     18  N   UNL     1      -4.197  13.501  24.604  0.00  0.00    +0.000 NA
ATOM     19  C   UNL     1      -2.939  13.038  23.988  0.00  0.00    +0.000 C 
ATOM     20  C   UNL     1      -2.849  13.336  22.476  0.00  0.00    +0.000 C 
ATOM     21  N   UNL     1      -4.901  12.647  19.617  0.00  0.00    +0.000 NA
ATOM     22  C   UNL     1      -4.656  12.251  18.350  0.00  0.00    +0.000 A 
ATOM     23  H   UNL     1      -0.834  10.840  17.722  0.00  0.00    +0.000 HD
ATOM     24  H   UNL     1      -4.241  13.153  25.561  0.00  0.00    +0.000 HD
ENDROOT
BRANCH   1  26
ATOM     25  C   UNL     1      -6.909  14.266  16.728  0.00  0.00    +0.000 C 
ATOM     26  C   UNL     1      -6.886  12.805  17.147  0.00  0.00    +0.000 C 
ENDBRANCH   1  26
BRANCH   3  27
ATOM     27  C   UNL     1      -2.741  10.782  15.648  0.00  0.00    +0.000 C 
BRANCH  27  28
ATOM     28  C   UNL     1      -3.335   9.612  14.849  0.00  0.00    +0.000 C 
BRANCH  28  29
ATOM     29  O   UNL     1      -3.661  10.027  13.513  0.00  0.00    +0.000 OA
BRANCH  29  30
ATOM     30  C   UNL     1      -4.921   9.463  13.090  0.00  0.00    +0.000 C 
BRANCH  30  31
ATOM     31  C   UNL     1      -5.305   9.803  11.644  0.00  0.00    +0.000 C 
ATOM     32  F   UNL     1      -6.625  10.032  11.486  0.00  0.00    +0.000 F 
ATOM     33  F   UNL     1      -4.647  10.909  11.221  0.00  0.00    +0.000 F 
ATOM     34  F   UNL     1      -4.962   8.795  10.806  0.00  0.00    +0.000 F 
ENDBRANCH  30  31
ENDBRANCH  29  30
ENDBRANCH  28  29
ENDBRANCH  27  28
ENDBRANCH   3  27
TORSDOF 6
ENDMDL
MODEL 3
REMARK VINA RESULT:      -6.6      4.633      6.686
REMARK  Name = 
REMARK  7 active torsions:
REMARK  status: ('A' for Active; 'I' for Inactive)
REMARK    1  A    between atoms: C_1  and  C_2
REMARK    2  A    between atoms: C_2  and  C_3
REMARK    3  A    between atoms: N_5  and  C_6
REMARK    4  A    between atoms: C_6  and  C_7
REMARK    5  A    between atoms: C_7  and  O_8
REMARK    6  A    between atoms: O_8  and  C_9
REMARK    7  A    between atoms: C_9  and  C_10
REMARK                            x       y       z     vdW  Elec       q    Type
REMARK                         _______ _______ _______ _____ _____    ______ ____
ROOT
ATOM      1  C   UNL     1      -2.991  11.635  18.740  0.00  0.00    +0.000 A 
ATOM      2  N   UNL     1      -1.703  11.761  18.393  0.00  0.00    +0.000 NA
ATOM      3  N   UNL     1      -1.206  12.658  19.278  0.00  0.00    +0.000 N 
ATOM      4  C   UNL     1      -2.148  13.128  20.163  0.00  0.00    +0.000 A 
ATOM      5  C   UNL     1      -2.168  13.984  21.254  0.00  0.00    +0.000 A 
ATOM      6  N   UNL     1      -1.062  14.610  21.824  0.00  0.00    +0.000 N 
ATOM      7  C   UNL     1      -0.914  15.092  23.133  0.00  0.00    +0.000 A 
ATOM      8  C   UNL     1      -1.793  14.751  24.157  0.00  0.00    +0.000 A 
ATOM      9  C   UNL     1      -1.537  15.247  25.410  0.00  0.00    +0.000 A 
ATOM     10  N   UNL     1      -0.488  16.035  25.681  0.00  0.00    +0.000 NA
ATOM     11  C   UNL     1       0.312  16.298  24.635  0.00  0.00    +0.000 A 
ATOM     12  N   UNL     1       0.158  15.859  23.373  0.00  0.00    +0.000 NA
ATOM     13  N   UNL     1      -3.378  14.163  21.832  0.00  0.00    +0.000 NA
ATOM     14  C   UNL     1      -4.477  13.483  21.480  0.00  0.00    +0.000 A 
ATOM     15  N   UNL     1      -5.573  13.650  22.300  0.00  0.00    +0.000 N 
ATOM     16  C   UNL     1      -6.790  12.877  22.061  0.00  0.00    +0.000 C 
ATOM     17  C   UNL     1      -7.631  12.856  23.366  0.00  0.00    +0.000 C 
ATOM     18  N   UNL     1      -7.916  14.194  23.928  0.00  0.00    +0.000 NA
ATOM     19  C   UNL     1      -6.657  14.951  24.079  0.00  0.00    +0.000 C 
ATOM     20  C   UNL     1      -5.820  15.014  22.784  0.00  0.00    +0.000 C 
ATOM     21  N   UNL     1      -4.492  12.600  20.488  0.00  0.00    +0.000 NA
ATOM     22  C   UNL     1      -3.320  12.460  19.835  0.00  0.00    +0.000 A 
ATOM     23  H   UNL     1      -0.300  14.894  21.232  0.00  0.00    +0.000 HD
ATOM     24  H   UNL     1      -8.343  14.082  24.847  0.00  0.00    +0.000 HD
ENDROOT
BRANCH   1  26
ATOM     25  C   UNL     1      -4.252  11.282  16.625  0.00  0.00    +0.000 C 
ATOM     26  C   UNL     1      -3.902  10.726  17.996  0.00  0.00    +0.000 C 
ENDBRANCH   1  26
BRANCH   3  27
ATOM     27  C   UNL     1       0.202  13.018  19.190  0.00  0.00    +0.000 C 
BRANCH  27  28
ATOM     28  C   UNL     1       1.125  12.183  20.088  0.00  0.00    +0.000 C 
BRANCH  28  29
ATOM     29  O   UNL     1       0.422  11.736  21.258  0.00  0.00    +0.000 OA
BRANCH  29  30
ATOM     30  C   UNL     1       0.517  10.302  21.402  0.00  0.00    +0.000 C 
BRANCH  30  31
ATOM     31  C   UNL     1      -0.243   9.742  22.610  0.00  0.00    +0.000 C 
ATOM     32  F   UNL     1      -0.910   8.602  22.335  0.00  0.00    +0.000 F 
ATOM     33  F   UNL     1       0.607   9.480  23.632  0.00  0.00    +0.000 F 
ATOM     34  F   UNL     1      -1.147  10.642  23.069  0.00  0.00    +0.000 F 
ENDBRANCH  30  31
ENDBRANCH  29  30
ENDBRANCH  28  29
ENDBRANCH  27  28
ENDBRANCH   3  27
TORSDOF 6
ENDMDL
MODEL 4
REMARK VINA RESULT:      -6.6      1.581      4.965
REMARK  Name = 
REMARK  7 active torsions:
REMARK  status: ('A' for Active; 'I' for Inactive)
REMARK    1  A    between atoms: C_1  and  C_2
REMARK    2  A    between atoms: C_2  and  C_3
REMARK    3  A    between atoms: N_5  and  C_6
REMARK    4  A    between atoms: C_6  and  C_7
REMARK    5  A    between atoms: C_7  and  O_8
REMARK    6  A    between atoms: O_8  and  C_9
REMARK    7  A    between atoms: C_9  and  C_10
REMARK                            x       y       z     vdW  Elec       q    Type
REMARK                         _______ _______ _______ _____ _____    ______ ____
ROOT
ATOM      1  C   UNL     1      -0.426  10.260  18.478  0.00  0.00    +0.000 A 
ATOM      2  N   UNL     1      -0.965   9.767  17.356  0.00  0.00    +0.000 NA
ATOM      3  N   UNL     1      -2.250  10.195  17.388  0.00  0.00    +0.000 N 
ATOM      4  C   UNL     1      -2.551  10.926  18.512  0.00  0.00    +0.000 A 
ATOM      5  C   UNL     1      -3.652  11.610  19.005  0.00  0.00    +0.000 A 
ATOM      6  N   UNL     1      -4.866  11.792  18.347  0.00  0.00    +0.000 N 
ATOM      7  C   UNL     1      -5.820  12.802  18.542  0.00  0.00    +0.000 A 
ATOM      8  C   UNL     1      -5.543  13.959  19.262  0.00  0.00    +0.000 A 
ATOM      9  C   UNL     1      -6.534  14.901  19.364  0.00  0.00    +0.000 A 
ATOM     10  N   UNL     1      -7.741  14.752  18.801  0.00  0.00    +0.000 NA
ATOM     11  C   UNL     1      -7.911  13.612  18.114  0.00  0.00    +0.000 A 
ATOM     12  N   UNL     1      -7.008  12.629  17.947  0.00  0.00    +0.000 NA
ATOM     13  N   UNL     1      -3.483  12.194  20.214  0.00  0.00    +0.000 NA
ATOM     14  C   UNL     1      -2.311  12.233  20.862  0.00  0.00    +0.000 A 
ATOM     15  N   UNL     1      -2.274  13.034  21.985  0.00  0.00    +0.000 N 
ATOM     16  C   UNL     1      -1.018  13.224  22.705  0.00  0.00    +0.000 C 
ATOM     17  C   UNL     1      -1.124  14.516  23.560  0.00  0.00    +0.000 C 
ATOM     18  N   UNL     1      -2.299  14.558  24.456  0.00  0.00    +0.000 NA
ATOM     19  C   UNL     1      -3.527  14.289  23.683  0.00  0.00    +0.000 C 
ATOM     20  C   UNL     1      -3.457  12.990  22.852  0.00  0.00    +0.000 C 
ATOM     21  N   UNL     1      -1.210  11.654  20.397  0.00  0.00    +0.000 NA
ATOM     22  C   UNL     1      -1.367  10.990  19.233  0.00  0.00    +0.000 A 
ATOM     23  H   UNL     1      -5.209  11.065  17.742  0.00  0.00    +0.000 HD
ATOM     24  H   UNL     1      -2.368  15.489  24.867  0.00  0.00    +0.000 HD
ENDROOT
BRANCH   1  26
ATOM     25  C   UNL     1       1.690   9.166  17.762  0.00  0.00    +0.000 C 
ATOM     26  C   UNL     1       0.998  10.006  18.823  0.00  0.00    +0.000 C 
ENDBRANCH   1  26
BRANCH   3  27
ATOM     27  C   UNL     1      -3.131   9.841  16.284  0.00  0.00    +0.000 C 
BRANCH  27  28
ATOM     28  C   UNL     1      -2.952  10.707  15.029  0.00  0.00    +0.000 C 
BRANCH  28  29
ATOM     29  O   UNL     1      -3.128   9.917  13.842  0.00  0.00    +0.000 OA
BRANCH  29  30
ATOM     30  C   UNL     1      -4.481  10.020  13.349  0.00  0.00    +0.000 C 
BRANCH  30  31
ATOM     31  C   UNL     1      -4.625   9.731  11.849  0.00  0.00    +0.000 C 
ATOM     32  F   UNL     1      -3.440   9.628  11.213  0.00  0.00    +0.000 F 
ATOM     33  F   UNL     1      -5.297   8.571  11.647  0.00  0.00    +0.000 F 
ATOM     34  F   UNL     1      -5.333  10.710  11.236  0.00  0.00    +0.000 F 
ENDBRANCH  30  31
ENDBRANCH  29  30
ENDBRANCH  28  29
ENDBRANCH  27  28
ENDBRANCH   3  27
TORSDOF 6
ENDMDL
MODEL 5
REMARK VINA RESULT:      -6.6      5.690      7.090
REMARK  Name = 
REMARK  7 active torsions:
REMARK  status: ('A' for Active; 'I' for Inactive)
REMARK    1  A    between atoms: C_1  and  C_2
REMARK    2  A    between atoms: C_2  and  C_3
REMARK    3  A    between atoms: N_5  and  C_6
REMARK    4  A    between atoms: C_6  and  C_7
REMARK    5  A    between atoms: C_7  and  O_8
REMARK    6  A    between atoms: O_8  and  C_9
REMARK    7  A    between atoms: C_9  and  C_10
REMARK                            x       y       z     vdW  Elec       q    Type
REMARK                         _______ _______ _______ _____ _____    ______ ____
ROOT
ATOM      1  C   UNL     1       0.085   9.994  21.233  0.00  0.00    +0.000 A 
ATOM      2  N   UNL     1       0.741   9.459  20.194  0.00  0.00    +0.000 NA
ATOM      3  N   UNL     1       1.191  10.531  19.499  0.00  0.00    +0.000 N 
ATOM      4  C   UNL     1       0.818  11.733  20.051  0.00  0.00    +0.000 A 
ATOM      5  C   UNL     1       1.039  13.077  19.785  0.00  0.00    +0.000 A 
ATOM      6  N   UNL     1       1.860  13.590  18.784  0.00  0.00    +0.000 N 
ATOM      7  C   UNL     1       2.486  14.844  18.729  0.00  0.00    +0.000 A 
ATOM      8  C   UNL     1       2.590  15.674  19.841  0.00  0.00    +0.000 A 
ATOM      9  C   UNL     1       3.253  16.865  19.689  0.00  0.00    +0.000 A 
ATOM     10  N   UNL     1       3.797  17.253  18.528  0.00  0.00    +0.000 NA
ATOM     11  C   UNL     1       3.659  16.382  17.516  0.00  0.00    +0.000 A 
ATOM     12  N   UNL     1       3.037  15.190  17.558  0.00  0.00    +0.000 NA
ATOM     13  N   UNL     1       0.433  13.945  20.627  0.00  0.00    +0.000 NA
ATOM     14  C   UNL     1      -0.239  13.569  21.724  0.00  0.00    +0.000 A 
ATOM     15  N   UNL     1      -0.624  14.589  22.569  0.00  0.00    +0.000 N 
ATOM     16  C   UNL     1      -1.273  14.278  23.840  0.00  0.00    +0.000 C 
ATOM     17  C   UNL     1      -1.126  15.500  24.787  0.00  0.00    +0.000 C 
ATOM     18  N   UNL     1      -1.599  16.777  24.210  0.00  0.00    +0.000 NA
ATOM     19  C   UNL     1      -0.962  16.999  22.897  0.00  0.00    +0.000 C 
ATOM     20  C   UNL     1      -1.126  15.810  21.927  0.00  0.00    +0.000 C 
ATOM     21  N   UNL     1      -0.417  12.296  22.060  0.00  0.00    +0.000 NA
ATOM     22  C   UNL     1       0.104  11.403  21.194  0.00  0.00    +0.000 A 
ATOM     23  H   UNL     1       1.940  13.093  17.913  0.00  0.00    +0.000 HD
ATOM     24  H   UNL     1      -1.336  17.539  24.834  0.00  0.00    +0.000 HD
ENDROOT
BRANCH   1  26
ATOM     25  C   UNL     1       0.021   9.347  23.634  0.00  0.00    +0.000 C 
ATOM     26  C   UNL     1      -0.573   9.133  22.251  0.00  0.00    +0.000 C 
ENDBRANCH   1  26
BRANCH   3  27
ATOM     27  C   UNL     1       1.974  10.301  18.293  0.00  0.00    +0.000 C 
BRANCH  27  28
ATOM     28  C   UNL     1       1.821   8.893  17.699  0.00  0.00    +0.000 C 
BRANCH  28  29
ATOM     29  O   UNL     1       2.989   8.101  17.970  0.00  0.00    +0.000 OA
BRANCH  29  30
ATOM     30  C   UNL     1       2.643   6.905  18.701  0.00  0.00    +0.000 C 
BRANCH  30  31
ATOM     31  C   UNL     1       3.053   5.603  18.001  0.00  0.00    +0.000 C 
ATOM     32  F   UNL     1       3.883   5.801  16.956  0.00  0.00    +0.000 F 
ATOM     33  F   UNL     1       3.682   4.771  18.867  0.00  0.00    +0.000 F 
ATOM     34  F   UNL     1       1.965   4.942  17.538  0.00  0.00    +0.000 F 
ENDBRANCH  30  31
ENDBRANCH  29  30
ENDBRANCH  28  29
ENDBRANCH  27  28
ENDBRANCH   3  27
TORSDOF 6
ENDMDL
MODEL 6
REMARK VINA RESULT:      -6.6     11.551     13.460
REMARK  Name = 
REMARK  7 active torsions:
REMARK  status: ('A' for Active; 'I' for Inactive)
REMARK    1  A    between atoms: C_1  and  C_2
REMARK    2  A    between atoms: C_2  and  C_3
REMARK    3  A    between atoms: N_5  and  C_6
REMARK    4  A    between atoms: C_6  and  C_7
REMARK    5  A    between atoms: C_7  and  O_8
REMARK    6  A    between atoms: O_8  and  C_9
REMARK    7  A    between atoms: C_9  and  C_10
REMARK                            x       y       z     vdW  Elec       q    Type
REMARK                         _______ _______ _______ _____ _____    ______ ____
ROOT
ATOM      1  C   UNL     1      10.684  12.795  17.893  0.00  0.00    +0.000 A 
ATOM      2  N   UNL     1      10.267  11.523  17.833  0.00  0.00    +0.000 NA
ATOM      3  N   UNL     1       9.778  11.275  19.071  0.00  0.00    +0.000 N 
ATOM      4  C   UNL     1       9.895  12.345  19.927  0.00  0.00    +0.000 A 
ATOM      5  C   UNL     1       9.530  12.636  21.233  0.00  0.00    +0.000 A 
ATOM      6  N   UNL     1       8.799  11.810  22.083  0.00  0.00    +0.000 N 
ATOM      7  C   UNL     1       8.020  12.173  23.191  0.00  0.00    +0.000 A 
ATOM      8  C   UNL     1       7.640  13.489  23.436  0.00  0.00    +0.000 A 
ATOM      9  C   UNL     1       6.847  13.732  24.529  0.00  0.00    +0.000 A 
ATOM     10  N   UNL     1       6.429  12.763  25.355  0.00  0.00    +0.000 NA
ATOM     11  C   UNL     1       6.833  11.525  25.031  0.00  0.00    +0.000 A 
ATOM     12  N   UNL     1       7.602  11.176  23.984  0.00  0.00    +0.000 NA
ATOM     13  N   UNL     1       9.880  13.866  21.675  0.00  0.00    +0.000 NA
ATOM     14  C   UNL     1      10.430  14.807  20.895  0.00  0.00    +0.000 A 
ATOM     15  N   UNL     1      10.543  16.061  21.459  0.00  0.00    +0.000 N 
ATOM     16  C   UNL     1      11.037  17.179  20.660  0.00  0.00    +0.000 C 
ATOM     17  C   UNL     1      10.584  18.507  21.326  0.00  0.00    +0.000 C 
ATOM     18  N   UNL     1      10.953  18.628  22.753  0.00  0.00    +0.000 NA
ATOM     19  C   UNL     1      10.489  17.437  23.492  0.00  0.00    +0.000 C 
ATOM     20  C   UNL     1      10.957  16.106  22.866  0.00  0.00    +0.000 C 
ATOM     21  N   UNL     1      10.733  14.599  19.619  0.00  0.00    +0.000 NA
ATOM     22  C   UNL     1      10.475  13.354  19.170  0.00  0.00    +0.000 A 
ATOM     23  H   UNL     1       8.917  10.813  22.018  0.00  0.00    +0.000 HD
ATOM     24  H   UNL     1      10.498  19.453  23.143  0.00  0.00    +0.000 HD
ENDROOT
BRANCH   1  26
ATOM     25  C   UNL     1      11.835  14.838  17.063  0.00  0.00    +0.000 C 
ATOM     26  C   UNL     1      11.301  13.458  16.714  0.00  0.00    +0.000 C 
ENDBRANCH   1  26
BRANCH   3  27
ATOM     27  C   UNL     1       9.219   9.960  19.349  0.00  0.00    +0.000 C 
BRANCH  27  28
ATOM     28  C   UNL     1       8.437   9.345  18.180  0.00  0.00    +0.000 C 
BRANCH  28  29
ATOM     29  O   UNL     1       8.324   7.922  18.340  0.00  0.00    +0.000 OA
BRANCH  29  30
ATOM     30  C   UNL     1       7.309   7.382  17.466  0.00  0.00    +0.000 C 
BRANCH  30  31
ATOM     31  C   UNL     1       7.142   5.861  17.566  0.00  0.00    +0.000 C 
ATOM     32  F   UNL     1       5.922   5.489  18.007  0.00  0.00    +0.000 F 
ATOM     33  F   UNL     1       7.333   5.277  16.358  0.00  0.00    +0.000 F 
ATOM     34  F   UNL     1       8.060   5.330  18.411  0.00  0.00    +0.000 F 
ENDBRANCH  30  31
ENDBRANCH  29  30
ENDBRANCH  28  29
ENDBRANCH  27  28
ENDBRANCH   3  27
TORSDOF 6
ENDMDL
MODEL 7
REMARK VINA RESULT:      -6.5      5.926      7.227
REMARK  Name = 
REMARK  7 active torsions:
REMARK  status: ('A' for Active; 'I' for Inactive)
REMARK    1  A    between atoms: C_1  and  C_2
REMARK    2  A    between atoms: C_2  and  C_3
REMARK    3  A    between atoms: N_5  and  C_6
REMARK    4  A    between atoms: C_6  and  C_7
REMARK    5  A    between atoms: C_7  and  O_8
REMARK    6  A    between atoms: O_8  and  C_9
REMARK    7  A    between atoms: C_9  and  C_10
REMARK                            x       y       z     vdW  Elec       q    Type
REMARK                         _______ _______ _______ _____ _____    ______ ____
ROOT
ATOM      1  C   UNL     1       0.090   9.928  21.112  0.00  0.00    +0.000 A 
ATOM      2  N   UNL     1       0.749   9.408  20.068  0.00  0.00    +0.000 NA
ATOM      3  N   UNL     1       1.199  10.489  19.387  0.00  0.00    +0.000 N 
ATOM      4  C   UNL     1       0.823  11.684  19.954  0.00  0.00    +0.000 A 
ATOM      5  C   UNL     1       1.041  13.031  19.706  0.00  0.00    +0.000 A 
ATOM      6  N   UNL     1       1.864  13.559  18.713  0.00  0.00    +0.000 N 
ATOM      7  C   UNL     1       2.487  14.815  18.676  0.00  0.00    +0.000 A 
ATOM      8  C   UNL     1       2.587  15.631  19.798  0.00  0.00    +0.000 A 
ATOM      9  C   UNL     1       3.248  16.825  19.663  0.00  0.00    +0.000 A 
ATOM     10  N   UNL     1       3.793  17.229  18.508  0.00  0.00    +0.000 NA
ATOM     11  C   UNL     1       3.659  16.370  17.484  0.00  0.00    +0.000 A 
ATOM     12  N   UNL     1       3.040  15.176  17.510  0.00  0.00    +0.000 NA
ATOM     13  N   UNL     1       0.432  13.888  20.558  0.00  0.00    +0.000 NA
ATOM     14  C   UNL     1      -0.242  13.496  21.648  0.00  0.00    +0.000 A 
ATOM     15  N   UNL     1      -0.631  14.505  22.505  0.00  0.00    +0.000 N 
ATOM     16  C   UNL     1      -1.283  14.177  23.771  0.00  0.00    +0.000 C 
ATOM     17  C   UNL     1      -1.139  15.387  24.734  0.00  0.00    +0.000 C 
ATOM     18  N   UNL     1      -1.614  16.670  24.172  0.00  0.00    +0.000 NA
ATOM     19  C   UNL     1      -0.974  16.910  22.863  0.00  0.00    +0.000 C 
ATOM     20  C   UNL     1      -1.134  15.732  21.877  0.00  0.00    +0.000 C 
ATOM     21  N   UNL     1      -0.418  12.219  21.968  0.00  0.00    +0.000 NA
ATOM     22  C   UNL     1       0.106  11.338  21.091  0.00  0.00    +0.000 A 
ATOM     23  H   UNL     1       1.947  13.073  17.836  0.00  0.00    +0.000 HD
ATOM     24  H   UNL     1      -1.354  17.425  24.806  0.00  0.00    +0.000 HD
ENDROOT
BRANCH   1  26
ATOM     25  C   UNL     1      -0.096   9.367  23.528  0.00  0.00    +0.000 C 
ATOM     26  C   UNL     1      -0.569   9.053  22.118  0.00  0.00    +0.000 C 
ENDBRANCH   1  26
BRANCH   3  27
ATOM     27  C   UNL     1       1.985  10.276  18.181  0.00  0.00    +0.000 C 
BRANCH  27  28
ATOM     28  C   UNL     1       1.925   8.843  17.632  0.00  0.00    +0.000 C 
BRANCH  28  29
ATOM     29  O   UNL     1       2.924   8.021  18.256  0.00  0.00    +0.000 OA
BRANCH  29  30
ATOM     30  C   UNL     1       2.562   6.625  18.185  0.00  0.00    +0.000 C 
BRANCH  30  31
ATOM     31  C   UNL     1       2.623   5.893  19.531  0.00  0.00    +0.000 C 
ATOM     32  F   UNL     1       2.000   6.558  20.526  0.00  0.00    +0.000 F 
ATOM     33  F   UNL     1       2.047   4.669  19.437  0.00  0.00    +0.000 F 
ATOM     34  F   UNL     1       3.908   5.696  19.914  0.00  0.00    +0.000 F 
ENDBRANCH  30  31
ENDBRANCH  29  30
ENDBRANCH  28  29
ENDBRANCH  27  28
ENDBRANCH   3  27
TORSDOF 6
ENDMDL
MODEL 8
REMARK VINA RESULT:      -6.4      4.065      4.824
REMARK  Name = 
REMARK  7 active torsions:
REMARK  status: ('A' for Active; 'I' for Inactive)
REMARK    1  A    between atoms: C_1  and  C_2
REMARK    2  A    between atoms: C_2  and  C_3
REMARK    3  A    between atoms: N_5  and  C_6
REMARK    4  A    between atoms: C_6  and  C_7
REMARK    5  A    between atoms: C_7  and  O_8
REMARK    6  A    between atoms: O_8  and  C_9
REMARK    7  A    between atoms: C_9  and  C_10
REMARK                            x       y       z     vdW  Elec       q    Type
REMARK                         _______ _______ _______ _____ _____    ______ ____
ROOT
ATOM      1  C   UNL     1      -5.526  11.952  20.071  0.00  0.00    +0.000 A 
ATOM      2  N   UNL     1      -5.252  11.397  18.882  0.00  0.00    +0.000 NA
ATOM      3  N   UNL     1      -3.998  11.824  18.598  0.00  0.00    +0.000 N 
ATOM      4  C   UNL     1      -3.476  12.656  19.560  0.00  0.00    +0.000 A 
ATOM      5  C   UNL     1      -2.272  13.308  19.783  0.00  0.00    +0.000 A 
ATOM      6  N   UNL     1      -1.126  13.206  18.999  0.00  0.00    +0.000 N 
ATOM      7  C   UNL     1       0.206  13.436  19.370  0.00  0.00    +0.000 A 
ATOM      8  C   UNL     1       0.602  13.541  20.700  0.00  0.00    +0.000 A 
ATOM      9  C   UNL     1       1.936  13.732  20.956  0.00  0.00    +0.000 A 
ATOM     10  N   UNL     1       2.859  13.817  19.989  0.00  0.00    +0.000 NA
ATOM     11  C   UNL     1       2.386  13.689  18.739  0.00  0.00    +0.000 A 
ATOM     12  N   UNL     1       1.105  13.494  18.377  0.00  0.00    +0.000 NA
ATOM     13  N   UNL     1      -2.217  14.062  20.906  0.00  0.00    +0.000 NA
ATOM     14  C   UNL     1      -3.194  14.100  21.823  0.00  0.00    +0.000 A 
ATOM     15  N   UNL     1      -2.890  14.765  22.993  0.00  0.00    +0.000 N 
ATOM     16  C   UNL     1      -3.849  14.778  24.095  0.00  0.00    +0.000 C 
ATOM     17  C   UNL     1      -3.093  15.113  25.410  0.00  0.00    +0.000 C 
ATOM     18  N   UNL     1      -2.287  16.351  25.349  0.00  0.00    +0.000 NA
ATOM     19  C   UNL     1      -1.391  16.308  24.177  0.00  0.00    +0.000 C 
ATOM     20  C   UNL     1      -2.127  16.011  22.853  0.00  0.00    +0.000 C 
ATOM     21  N   UNL     1      -4.336  13.436  21.688  0.00  0.00    +0.000 NA
ATOM     22  C   UNL     1      -4.457  12.742  20.538  0.00  0.00    +0.000 A 
ATOM     23  H   UNL     1      -1.223  13.083  18.005  0.00  0.00    +0.000 HD
ATOM     24  H   UNL     1      -1.718  16.417  26.193  0.00  0.00    +0.000 HD
ENDROOT
BRANCH   1  26
ATOM     25  C   UNL     1      -7.415  10.365  20.391  0.00  0.00    +0.000 C 
ATOM     26  C   UNL     1      -6.835  11.725  20.740  0.00  0.00    +0.000 C 
ENDBRANCH   1  26
BRANCH   3  27
ATOM     27  C   UNL     1      -3.376  11.384  17.358  0.00  0.00    +0.000 C 
BRANCH  27  28
ATOM     28  C   UNL     1      -2.523  10.114  17.494  0.00  0.00    +0.000 C 
BRANCH  28  29
ATOM     29  O   UNL     1      -1.147  10.453  17.727  0.00  0.00    +0.000 OA
BRANCH  29  30
ATOM     30  C   UNL     1      -0.662   9.839  18.941  0.00  0.00    +0.000 C 
BRANCH  30  31
ATOM     31  C   UNL     1       0.866   9.817  19.065  0.00  0.00    +0.000 C 
ATOM     32  F   UNL     1       1.489  10.473  18.063  0.00  0.00    +0.000 F 
ATOM     33  F   UNL     1       1.261  10.387  20.230  0.00  0.00    +0.000 F 
ATOM     34  F   UNL     1       1.331   8.544  19.070  0.00  0.00    +0.000 F 
ENDBRANCH  30  31
ENDBRANCH  29  30
ENDBRANCH  28  29
ENDBRANCH  27  28
ENDBRANCH   3  27
TORSDOF 6
ENDMDL
MODEL 9
REMARK VINA RESULT:      -6.4      2.777      5.535
REMARK  Name = 
REMARK  7 active torsions:
REMARK  status: ('A' for Active; 'I' for Inactive)
REMARK    1  A    between atoms: C_1  and  C_2
REMARK    2  A    between atoms: C_2  and  C_3
REMARK    3  A    between atoms: N_5  and  C_6
REMARK    4  A    between atoms: C_6  and  C_7
REMARK    5  A    between atoms: C_7  and  O_8
REMARK    6  A    between atoms: O_8  and  C_9
REMARK    7  A    between atoms: C_9  and  C_10
REMARK                            x       y       z     vdW  Elec       q    Type
REMARK                         _______ _______ _______ _____ _____    ______ ____
ROOT
ATOM      1  C   UNL     1      -0.786  13.151  19.111  0.00  0.00    +0.000 A 
ATOM      2  N   UNL     1      -1.575  12.311  18.429  0.00  0.00    +0.000 NA
ATOM      3  N   UNL     1      -2.642  12.122  19.242  0.00  0.00    +0.000 N 
ATOM      4  C   UNL     1      -2.542  12.798  20.435  0.00  0.00    +0.000 A 
ATOM      5  C   UNL     1      -3.336  12.984  21.557  0.00  0.00    +0.000 A 
ATOM      6  N   UNL     1      -4.632  12.508  21.733  0.00  0.00    +0.000 N 
ATOM      7  C   UNL     1      -5.635  13.004  22.579  0.00  0.00    +0.000 A 
ATOM      8  C   UNL     1      -5.550  14.255  23.181  0.00  0.00    +0.000 A 
ATOM      9  C   UNL     1      -6.602  14.661  23.962  0.00  0.00    +0.000 A 
ATOM     10  N   UNL     1      -7.693  13.909  24.162  0.00  0.00    +0.000 NA
ATOM     11  C   UNL     1      -7.692  12.725  23.530  0.00  0.00    +0.000 A 
ATOM     12  N   UNL     1      -6.721  12.235  22.738  0.00  0.00    +0.000 NA
ATOM     13  N   UNL     1      -2.796  13.753  22.532  0.00  0.00    +0.000 NA
ATOM     14  C   UNL     1      -1.631  14.404  22.404  0.00  0.00    +0.000 A 
ATOM     15  N   UNL     1      -1.328  15.292  23.416  0.00  0.00    +0.000 N 
ATOM     16  C   UNL     1      -0.132  16.125  23.323  0.00  0.00    +0.000 C 
ATOM     17  C   UNL     1      -0.299  17.344  24.269  0.00  0.00    +0.000 C 
ATOM     18  N   UNL     1      -0.630  16.989  25.666  0.00  0.00    +0.000 NA
ATOM     19  C   UNL     1      -1.801  16.091  25.689  0.00  0.00    +0.000 C 
ATOM     20  C   UNL     1      -1.644  14.853  24.781  0.00  0.00    +0.000 C 
ATOM     21  N   UNL     1      -0.870  14.314  21.320  0.00  0.00    +0.000 NA
ATOM     22  C   UNL     1      -1.340  13.487  20.363  0.00  0.00    +0.000 A 
ATOM     23  H   UNL     1      -4.889  11.624  21.326  0.00  0.00    +0.000 HD
ATOM     24  H   UNL     1      -0.860  17.840  26.178  0.00  0.00    +0.000 HD
ENDROOT
BRANCH   1  26
ATOM     25  C   UNL     1       1.681  12.836  19.139  0.00  0.00    +0.000 C 
ATOM     26  C   UNL     1       0.513  13.611  18.552  0.00  0.00    +0.000 C 
ENDBRANCH   1  26
BRANCH   3  27
ATOM     27  C   UNL     1      -3.720  11.255  18.788  0.00  0.00    +0.000 C 
BRANCH  27  28
ATOM     28  C   UNL     1      -4.866  11.990  18.078  0.00  0.00    +0.000 C 
BRANCH  28  29
ATOM     29  O   UNL     1      -4.710  11.910  16.652  0.00  0.00    +0.000 OA
BRANCH  29  30
ATOM     30  C   UNL     1      -4.404  10.560  16.241  0.00  0.00    +0.000 C 
BRANCH  30  31
ATOM     31  C   UNL     1      -3.195  10.450  15.304  0.00  0.00    +0.000 C 
ATOM     32  F   UNL     1      -2.317  11.465  15.448  0.00  0.00    +0.000 F 
ATOM     33  F   UNL     1      -2.521   9.295  15.524  0.00  0.00    +0.000 F 
ATOM     34  F   UNL     1      -3.591  10.435  14.007  0.00  0.00    +0.000 F 
ENDBRANCH  30  31
ENDBRANCH  29  30
ENDBRANCH  28  29
ENDBRANCH  27  28
ENDBRANCH   3  27
TORSDOF 6
ENDMDL
