MODEL 1
REMARK VINA RESULT:      -7.1      0.000      0.000
REMARK  Name = 
REMARK  2 active torsions:
REMARK  status: ('A' for Active; 'I' for Inactive)
REMARK    1  A    between atoms: C_1  and  C_2
REMARK    2  A    between atoms: C_7  and  O_8
REMARK                            x       y       z     vdW  Elec       q    Type
REMARK                         _______ _______ _______ _____ _____    ______ ____
ROOT
ATOM      1  C   UNL     1       6.032   4.030  14.728  0.00  0.00    +0.000 C 
ATOM      2  C   UNL     1       5.196   4.518  15.860  0.00  0.00    +0.000 A 
ATOM      3  N   UNL     1       4.418   3.766  16.606  0.00  0.00    +0.000 NA
ATOM      4  C   UNL     1       3.777   4.542  17.574  0.00  0.00    +0.000 A 
ATOM      5  C   UNL     1       4.100   5.900  17.529  0.00  0.00    +0.000 A 
ATOM      6  C   UNL     1       3.556   6.839  18.419  0.00  0.00    +0.000 A 
ATOM      7  C   UNL     1       2.659   6.381  19.383  0.00  0.00    +0.000 A 
ATOM      8  C   UNL     1       2.292   5.030  19.482  0.00  0.00    +0.000 A 
ATOM      9  C   UNL     1       1.388   4.559  20.454  0.00  0.00    +0.000 A 
ATOM     10  C   UNL     1       1.042   3.209  20.530  0.00  0.00    +0.000 A 
ATOM     11  C   UNL     1       1.597   2.297  19.635  0.00  0.00    +0.000 A 
ATOM     12  C   UNL     1       2.496   2.734  18.660  0.00  0.00    +0.000 A 
ATOM     13  C   UNL     1       2.853   4.097  18.574  0.00  0.00    +0.000 A 
ATOM     14  S   UNL     1       5.219   6.185  16.255  0.00  0.00    +0.000 S 
ENDROOT
BRANCH   7  15
ATOM     15  O   UNL     1       2.116   7.283  20.263  0.00  0.00    +0.000 OA
ATOM     16  H   UNL     1       1.535   7.893  19.780  0.00  0.00    +0.000 HD
ENDBRANCH   7  15
TORSDOF 1
ENDMDL
MODEL 2
REMARK VINA RESULT:      -6.7      2.320      3.092
REMARK  Name = 
REMARK  2 active torsions:
REMARK  status: ('A' for Active; 'I' for Inactive)
REMARK    1  A    between atoms: C_1  and  C_2
REMARK    2  A    between atoms: C_7  and  O_8
REMARK                            x       y       z     vdW  Elec       q    Type
REMARK                         _______ _______ _______ _____ _____    ______ ____
ROOT
ATOM      1  C   UNL     1       7.412   7.110  17.402  0.00  0.00    +0.000 C 
ATOM      2  C   UNL     1       6.300   6.128  17.524  0.00  0.00    +0.000 A 
ATOM      3  N   UNL     1       5.308   6.210  18.384  0.00  0.00    +0.000 NA
ATOM      4  C   UNL     1       4.442   5.125  18.230  0.00  0.00    +0.000 A 
ATOM      5  C   UNL     1       4.817   4.228  17.228  0.00  0.00    +0.000 A 
ATOM      6  C   UNL     1       4.073   3.077  16.924  0.00  0.00    +0.000 A 
ATOM      7  C   UNL     1       2.916   2.834  17.662  0.00  0.00    +0.000 A 
ATOM      8  C   UNL     1       2.485   3.694  18.683  0.00  0.00    +0.000 A 
ATOM      9  C   UNL     1       1.316   3.456  19.432  0.00  0.00    +0.000 A 
ATOM     10  C   UNL     1       0.911   4.331  20.441  0.00  0.00    +0.000 A 
ATOM     11  C   UNL     1       1.665   5.468  20.722  0.00  0.00    +0.000 A 
ATOM     12  C   UNL     1       2.829   5.731  19.996  0.00  0.00    +0.000 A 
ATOM     13  C   UNL     1       3.248   4.853  18.974  0.00  0.00    +0.000 A 
ATOM     14  S   UNL     1       6.269   4.769  16.483  0.00  0.00    +0.000 S 
ENDROOT
BRANCH   7  15
ATOM     15  O   UNL     1       2.176   1.713  17.381  0.00  0.00    +0.000 OA
ATOM     16  H   UNL     1       1.444   1.951  16.789  0.00  0.00    +0.000 HD
ENDBRANCH   7  15
TORSDOF 1
ENDMDL
MODEL 3
REMARK VINA RESULT:      -6.6      2.750      5.231
REMARK  Name = 
REMARK  2 active torsions:
REMARK  status: ('A' for Active; 'I' for Inactive)
REMARK    1  A    between atoms: C_1  and  C_2
REMARK    2  A    between atoms: C_7  and  O_8
REMARK                            x       y       z     vdW  Elec       q    Type
REMARK                         _______ _______ _______ _____ _____    ______ ____
ROOT
ATOM      1  C   UNL     1       1.327   7.921  21.009  0.00  0.00    +0.000 C 
ATOM      2  C   UNL     1       1.969   6.822  20.236  0.00  0.00    +0.000 A 
ATOM      3  N   UNL     1       2.724   6.985  19.172  0.00  0.00    +0.000 NA
ATOM      4  C   UNL     1       3.162   5.748  18.694  0.00  0.00    +0.000 A 
ATOM      5  C   UNL     1       2.709   4.653  19.434  0.00  0.00    +0.000 A 
ATOM      6  C   UNL     1       3.042   3.329  19.108  0.00  0.00    +0.000 A 
ATOM      7  C   UNL     1       3.859   3.115  17.999  0.00  0.00    +0.000 A 
ATOM      8  C   UNL     1       4.345   4.171  17.213  0.00  0.00    +0.000 A 
ATOM      9  C   UNL     1       5.173   3.963  16.092  0.00  0.00    +0.000 A 
ATOM     10  C   UNL     1       5.643   5.033  15.329  0.00  0.00    +0.000 A 
ATOM     11  C   UNL     1       5.300   6.338  15.675  0.00  0.00    +0.000 A 
ATOM     12  C   UNL     1       4.481   6.576  16.781  0.00  0.00    +0.000 A 
ATOM     13  C   UNL     1       4.000   5.501  17.559  0.00  0.00    +0.000 A 
ATOM     14  S   UNL     1       1.730   5.201  20.736  0.00  0.00    +0.000 S 
ENDROOT
BRANCH   7  15
ATOM     15  O   UNL     1       4.195   1.827  17.664  0.00  0.00    +0.000 OA
ATOM     16  H   UNL     1       4.734   1.441  18.373  0.00  0.00    +0.000 HD
ENDBRANCH   7  15
TORSDOF 1
ENDMDL
MODEL 4
REMARK VINA RESULT:      -6.5      2.522      4.997
REMARK  Name = 
REMARK  2 active torsions:
REMARK  status: ('A' for Active; 'I' for Inactive)
REMARK    1  A    between atoms: C_1  and  C_2
REMARK    2  A    between atoms: C_7  and  O_8
REMARK                            x       y       z     vdW  Elec       q    Type
REMARK                         _______ _______ _______ _____ _____    ______ ____
ROOT
ATOM      1  C   UNL     1       0.873   2.553  18.726  0.00  0.00    +0.000 C 
ATOM      2  C   UNL     1       2.199   3.214  18.574  0.00  0.00    +0.000 A 
ATOM      3  N   UNL     1       2.876   3.305  17.451  0.00  0.00    +0.000 NA
ATOM      4  C   UNL     1       4.078   3.984  17.662  0.00  0.00    +0.000 A 
ATOM      5  C   UNL     1       4.280   4.398  18.980  0.00  0.00    +0.000 A 
ATOM      6  C   UNL     1       5.428   5.094  19.389  0.00  0.00    +0.000 A 
ATOM      7  C   UNL     1       6.397   5.377  18.427  0.00  0.00    +0.000 A 
ATOM      8  C   UNL     1       6.256   4.988  17.087  0.00  0.00    +0.000 A 
ATOM      9  C   UNL     1       7.230   5.271  16.108  0.00  0.00    +0.000 A 
ATOM     10  C   UNL     1       7.061   4.872  14.781  0.00  0.00    +0.000 A 
ATOM     11  C   UNL     1       5.912   4.185  14.401  0.00  0.00    +0.000 A 
ATOM     12  C   UNL     1       4.929   3.889  15.348  0.00  0.00    +0.000 A 
ATOM     13  C   UNL     1       5.088   4.287  16.693  0.00  0.00    +0.000 A 
ATOM     14  S   UNL     1       2.938   3.924  19.946  0.00  0.00    +0.000 S 
ENDROOT
BRANCH   7  15
ATOM     15  O   UNL     1       7.528   6.056  18.807  0.00  0.00    +0.000 OA
ATOM     16  H   UNL     1       7.544   6.136  19.774  0.00  0.00    +0.000 HD
ENDBRANCH   7  15
TORSDOF 1
ENDMDL
MODEL 5
REMARK VINA RESULT:      -6.4      2.819      4.999
REMARK  Name = 
REMARK  2 active torsions:
REMARK  status: ('A' for Active; 'I' for Inactive)
REMARK    1  A    between atoms: C_1  and  C_2
REMARK    2  A    between atoms: C_7  and  O_8
REMARK                            x       y       z     vdW  Elec       q    Type
REMARK                         _______ _______ _______ _____ _____    ______ ____
ROOT
ATOM      1  C   UNL     1       1.479   9.423  18.294  0.00  0.00    +0.000 C 
ATOM      2  C   UNL     1       2.301   8.182  18.346  0.00  0.00    +0.000 A 
ATOM      3  N   UNL     1       3.115   7.773  17.398  0.00  0.00    +0.000 NA
ATOM      4  C   UNL     1       3.727   6.573  17.769  0.00  0.00    +0.000 A 
ATOM      5  C   UNL     1       3.343   6.096  19.024  0.00  0.00    +0.000 A 
ATOM      6  C   UNL     1       3.848   4.905  19.569  0.00  0.00    +0.000 A 
ATOM      7  C   UNL     1       4.770   4.181  18.814  0.00  0.00    +0.000 A 
ATOM      8  C   UNL     1       5.195   4.604  17.546  0.00  0.00    +0.000 A 
ATOM      9  C   UNL     1       6.128   3.879  16.778  0.00  0.00    +0.000 A 
ATOM     10  C   UNL     1       6.535   4.326  15.520  0.00  0.00    +0.000 A 
ATOM     11  C   UNL     1       6.020   5.512  15.002  0.00  0.00    +0.000 A 
ATOM     12  C   UNL     1       5.094   6.253  15.740  0.00  0.00    +0.000 A 
ATOM     13  C   UNL     1       4.675   5.811  17.013  0.00  0.00    +0.000 A 
ATOM     14  S   UNL     1       2.207   7.177  19.729  0.00  0.00    +0.000 S 
ENDROOT
BRANCH   7  15
ATOM     15  O   UNL     1       5.274   3.013  19.329  0.00  0.00    +0.000 OA
ATOM     16  H   UNL     1       4.576   2.339  19.342  0.00  0.00    +0.000 HD
ENDBRANCH   7  15
TORSDOF 1
ENDMDL
MODEL 6
REMARK VINA RESULT:      -6.4      2.292      2.678
REMARK  Name = 
REMARK  2 active torsions:
REMARK  status: ('A' for Active; 'I' for Inactive)
REMARK    1  A    between atoms: C_1  and  C_2
REMARK    2  A    between atoms: C_7  and  O_8
REMARK                            x       y       z     vdW  Elec       q    Type
REMARK                         _______ _______ _______ _____ _____    ______ ____
ROOT
ATOM      1  C   UNL     1       7.917   5.804  19.131  0.00  0.00    +0.000 C 
ATOM      2  C   UNL     1       6.498   5.427  18.880  0.00  0.00    +0.000 A 
ATOM      3  N   UNL     1       5.720   4.798  19.732  0.00  0.00    +0.000 NA
ATOM      4  C   UNL     1       4.453   4.601  19.178  0.00  0.00    +0.000 A 
ATOM      5  C   UNL     1       4.308   5.101  17.883  0.00  0.00    +0.000 A 
ATOM      6  C   UNL     1       3.109   4.998  17.160  0.00  0.00    +0.000 A 
ATOM      7  C   UNL     1       2.028   4.367  17.774  0.00  0.00    +0.000 A 
ATOM      8  C   UNL     1       2.109   3.841  19.072  0.00  0.00    +0.000 A 
ATOM      9  C   UNL     1       1.021   3.204  19.701  0.00  0.00    +0.000 A 
ATOM     10  C   UNL     1       1.129   2.691  20.995  0.00  0.00    +0.000 A 
ATOM     11  C   UNL     1       2.329   2.809  21.692  0.00  0.00    +0.000 A 
ATOM     12  C   UNL     1       3.426   3.435  21.095  0.00  0.00    +0.000 A 
ATOM     13  C   UNL     1       3.327   3.957  19.787  0.00  0.00    +0.000 A 
ATOM     14  S   UNL     1       5.783   5.823  17.375  0.00  0.00    +0.000 S 
ENDROOT
BRANCH   7  15
ATOM     15  O   UNL     1       0.848   4.255  17.083  0.00  0.00    +0.000 OA
ATOM     16  H   UNL     1       0.328   3.522  17.452  0.00  0.00    +0.000 HD
ENDBRANCH   7  15
TORSDOF 1
ENDMDL
MODEL 7
REMARK VINA RESULT:      -6.3      2.235      4.563
REMARK  Name = 
REMARK  2 active torsions:
REMARK  status: ('A' for Active; 'I' for Inactive)
REMARK    1  A    between atoms: C_1  and  C_2
REMARK    2  A    between atoms: C_7  and  O_8
REMARK                            x       y       z     vdW  Elec       q    Type
REMARK                         _______ _______ _______ _____ _____    ______ ____
ROOT
ATOM      1  C   UNL     1       2.235   2.498  21.589  0.00  0.00    +0.000 C 
ATOM      2  C   UNL     1       2.541   3.592  20.626  0.00  0.00    +0.000 A 
ATOM      3  N   UNL     1       3.379   3.501  19.618  0.00  0.00    +0.000 NA
ATOM      4  C   UNL     1       3.429   4.709  18.918  0.00  0.00    +0.000 A 
ATOM      5  C   UNL     1       2.602   5.708  19.436  0.00  0.00    +0.000 A 
ATOM      6  C   UNL     1       2.516   6.989  18.871  0.00  0.00    +0.000 A 
ATOM      7  C   UNL     1       3.294   7.261  17.746  0.00  0.00    +0.000 A 
ATOM      8  C   UNL     1       4.147   6.303  17.179  0.00  0.00    +0.000 A 
ATOM      9  C   UNL     1       4.936   6.569  16.042  0.00  0.00    +0.000 A 
ATOM     10  C   UNL     1       5.775   5.595  15.497  0.00  0.00    +0.000 A 
ATOM     11  C   UNL     1       5.841   4.330  16.076  0.00  0.00    +0.000 A 
ATOM     12  C   UNL     1       5.071   4.036  17.204  0.00  0.00    +0.000 A 
ATOM     13  C   UNL     1       4.219   5.013  17.763  0.00  0.00    +0.000 A 
ATOM     14  S   UNL     1       1.761   5.106  20.810  0.00  0.00    +0.000 S 
ENDROOT
BRANCH   7  15
ATOM     15  O   UNL     1       3.225   8.509  17.179  0.00  0.00    +0.000 OA
ATOM     16  H   UNL     1       3.833   9.107  17.644  0.00  0.00    +0.000 HD
ENDBRANCH   7  15
TORSDOF 1
ENDMDL
MODEL 8
REMARK VINA RESULT:      -6.1      2.163      2.870
REMARK  Name = 
REMARK  2 active torsions:
REMARK  status: ('A' for Active; 'I' for Inactive)
REMARK    1  A    between atoms: C_1  and  C_2
REMARK    2  A    between atoms: C_7  and  O_8
REMARK                            x       y       z     vdW  Elec       q    Type
REMARK                         _______ _______ _______ _____ _____    ______ ____
ROOT
ATOM      1  C   UNL     1       6.000   3.771  12.545  0.00  0.00    +0.000 C 
ATOM      2  C   UNL     1       5.982   4.041  14.009  0.00  0.00    +0.000 A 
ATOM      3  N   UNL     1       4.965   3.810  14.810  0.00  0.00    +0.000 NA
ATOM      4  C   UNL     1       5.285   4.179  16.119  0.00  0.00    +0.000 A 
ATOM      5  C   UNL     1       6.573   4.695  16.272  0.00  0.00    +0.000 A 
ATOM      6  C   UNL     1       7.077   5.121  17.511  0.00  0.00    +0.000 A 
ATOM      7  C   UNL     1       6.244   5.019  18.624  0.00  0.00    +0.000 A 
ATOM      8  C   UNL     1       4.939   4.512  18.538  0.00  0.00    +0.000 A 
ATOM      9  C   UNL     1       4.091   4.403  19.658  0.00  0.00    +0.000 A 
ATOM     10  C   UNL     1       2.797   3.892  19.542  0.00  0.00    +0.000 A 
ATOM     11  C   UNL     1       2.323   3.475  18.302  0.00  0.00    +0.000 A 
ATOM     12  C   UNL     1       3.139   3.570  17.173  0.00  0.00    +0.000 A 
ATOM     13  C   UNL     1       4.449   4.084  17.278  0.00  0.00    +0.000 A 
ATOM     14  S   UNL     1       7.375   4.706  14.751  0.00  0.00    +0.000 S 
ENDROOT
BRANCH   7  15
ATOM     15  O   UNL     1       6.717   5.431  19.845  0.00  0.00    +0.000 OA
ATOM     16  H   UNL     1       7.688   5.454  19.822  0.00  0.00    +0.000 HD
ENDBRANCH   7  15
TORSDOF 1
ENDMDL
MODEL 9
REMARK VINA RESULT:      -6.1      2.637      3.267
REMARK  Name = 
REMARK  2 active torsions:
REMARK  status: ('A' for Active; 'I' for Inactive)
REMARK    1  A    between atoms: C_1  and  C_2
REMARK    2  A    between atoms: C_7  and  O_8
REMARK                            x       y       z     vdW  Elec       q    Type
REMARK                         _______ _______ _______ _____ _____    ______ ____
ROOT
ATOM      1  C   UNL     1       8.306   6.027  19.458  0.00  0.00    +0.000 C 
ATOM      2  C   UNL     1       7.030   5.428  18.977  0.00  0.00    +0.000 A 
ATOM      3  N   UNL     1       5.916   5.359  19.671  0.00  0.00    +0.000 NA
ATOM      4  C   UNL     1       4.915   4.736  18.922  0.00  0.00    +0.000 A 
ATOM      5  C   UNL     1       5.316   4.339  17.645  0.00  0.00    +0.000 A 
ATOM      6  C   UNL     1       4.452   3.697  16.745  0.00  0.00    +0.000 A 
ATOM      7  C   UNL     1       3.143   3.451  17.158  0.00  0.00    +0.000 A 
ATOM      8  C   UNL     1       2.678   3.823  18.428  0.00  0.00    +0.000 A 
ATOM      9  C   UNL     1       1.357   3.581  18.853  0.00  0.00    +0.000 A 
ATOM     10  C   UNL     1       0.921   3.963  20.123  0.00  0.00    +0.000 A 
ATOM     11  C   UNL     1       1.798   4.602  20.996  0.00  0.00    +0.000 A 
ATOM     12  C   UNL     1       3.114   4.855  20.604  0.00  0.00    +0.000 A 
ATOM     13  C   UNL     1       3.565   4.473  19.323  0.00  0.00    +0.000 A 
ATOM     14  S   UNL     1       6.965   4.762  17.400  0.00  0.00    +0.000 S 
ENDROOT
BRANCH   7  15
ATOM     15  O   UNL     1       2.283   2.823  16.293  0.00  0.00    +0.000 OA
ATOM     16  H   UNL     1       1.961   2.002  16.699  0.00  0.00    +0.000 HD
ENDBRANCH   7  15
TORSDOF 1
ENDMDL
