MODEL 1
REMARK VINA RESULT:      -5.9      0.000      0.000
REMARK  Name = 
REMARK  10 active torsions:
REMARK  status: ('A' for Active; 'I' for Inactive)
REMARK    1  A    between atoms: C_2  and  C_3
REMARK    2  A    between atoms: C_3  and  O_4
REMARK    3  A    between atoms: C_3  and  C_5
REMARK    4  A    between atoms: C_5  and  O_6
REMARK    5  A    between atoms: C_5  and  C_7
REMARK    6  A    between atoms: C_7  and  S_8
REMARK    7  A    between atoms: C_10  and  O_11
REMARK    8  A    between atoms: C_12  and  O_13
REMARK    9  A    between atoms: C_14  and  C_15
REMARK   10  A    between atoms: C_15  and  O_16
REMARK                            x       y       z     vdW  Elec       q    Type
REMARK                         _______ _______ _______ _____ _____    ______ ____
ROOT
ATOM      1  S   UNL     1       4.335   4.284  19.160  0.00  0.00    +0.000 S 
ATOM      2  C   UNL     1       2.575   4.746  19.138  0.00  0.00    +0.000 C 
ATOM      3  C   UNL     1       2.054   4.205  20.459  0.00  0.00    +0.000 C 
ATOM      4  C   UNL     1       2.571   2.753  20.574  0.00  0.00    +0.000 C 
ATOM      5  C   UNL     1       3.868   2.592  19.734  0.00  0.00    +0.000 C 
ENDROOT
BRANCH   3   6
ATOM      6  O   UNL     1       0.629   4.267  20.527  0.00  0.00    +0.000 OA
ATOM      7  H   UNL     1       0.285   4.239  19.617  0.00  0.00    +0.000 HD
ENDBRANCH   3   6
BRANCH   4   8
ATOM      8  O   UNL     1       2.839   2.439  21.952  0.00  0.00    +0.000 OA
ATOM      9  H   UNL     1       2.382   3.107  22.494  0.00  0.00    +0.000 HD
ENDBRANCH   4   8
BRANCH   1  10
ATOM     10  C   UNL     1       4.554   4.055  17.348  0.00  0.00    +0.000 C 
BRANCH  10  11
ATOM     11  C   UNL     1       6.010   4.264  16.891  0.00  0.00    +0.000 C 
BRANCH  11  12
ATOM     12  O   UNL     1       6.852   4.279  18.072  0.00  0.00    +0.000 OA
ATOM     13  H   UNL     1       6.334   3.751  18.716  0.00  0.00    +0.000 HD
ENDBRANCH  11  12
BRANCH  11  14
ATOM     14  C   UNL     1       6.246   5.623  16.197  0.00  0.00    +0.000 C 
BRANCH  14  16
ATOM     15  O   UNL     1       7.637   7.240  17.096  0.00  0.00    +0.000 OA
ATOM     16  C   UNL     1       6.362   6.860  17.134  0.00  0.00    +0.000 C 
ENDBRANCH  14  16
BRANCH  14  17
ATOM     17  O   UNL     1       7.462   5.523  15.419  0.00  0.00    +0.000 OA
ATOM     18  H   UNL     1       7.070   5.151  14.588  0.00  0.00    +0.000 HD
ENDBRANCH  14  17
ENDBRANCH  11  14
ENDBRANCH  10  11
ENDBRANCH   1  10
BRANCH   5  19
ATOM     19  C   UNL     1       3.684   1.525  18.649  0.00  0.00    +0.000 C 
BRANCH  19  20
ATOM     20  O   UNL     1       2.315   1.414  18.261  0.00  0.00    +0.000 OA
ATOM     21  H   UNL     1       2.281   0.875  17.452  0.00  0.00    +0.000 HD
ENDBRANCH  19  20
ENDBRANCH   5  19
TORSDOF 10
ENDMDL
MODEL 2
REMARK VINA RESULT:      -5.8      1.554      1.979
REMARK  Name = 
REMARK  10 active torsions:
REMARK  status: ('A' for Active; 'I' for Inactive)
REMARK    1  A    between atoms: C_2  and  C_3
REMARK    2  A    between atoms: C_3  and  O_4
REMARK    3  A    between atoms: C_3  and  C_5
REMARK    4  A    between atoms: C_5  and  O_6
REMARK    5  A    between atoms: C_5  and  C_7
REMARK    6  A    between atoms: C_7  and  S_8
REMARK    7  A    between atoms: C_10  and  O_11
REMARK    8  A    between atoms: C_12  and  O_13
REMARK    9  A    between atoms: C_14  and  C_15
REMARK   10  A    between atoms: C_15  and  O_16
REMARK                            x       y       z     vdW  Elec       q    Type
REMARK                         _______ _______ _______ _____ _____    ______ ____
ROOT
ATOM      1  S   UNL     1       3.264   4.795  18.740  0.00  0.00    +0.000 S 
ATOM      2  C   UNL     1       1.662   4.005  18.390  0.00  0.00    +0.000 C 
ATOM      3  C   UNL     1       1.145   3.633  19.769  0.00  0.00    +0.000 C 
ATOM      4  C   UNL     1       2.314   2.940  20.505  0.00  0.00    +0.000 C 
ATOM      5  C   UNL     1       3.666   3.425  19.911  0.00  0.00    +0.000 C 
ENDROOT
BRANCH   3   6
ATOM      6  O   UNL     1      -0.005   2.791  19.690  0.00  0.00    +0.000 OA
ATOM      7  H   UNL     1      -0.280   2.748  18.758  0.00  0.00    +0.000 HD
ENDBRANCH   3   6
BRANCH   4   8
ATOM      8  O   UNL     1       2.259   3.249  21.909  0.00  0.00    +0.000 OA
ATOM      9  H   UNL     1       1.805   4.106  21.997  0.00  0.00    +0.000 HD
ENDBRANCH   4   8
BRANCH   1  10
ATOM     10  C   UNL     1       4.134   4.286  17.202  0.00  0.00    +0.000 C 
BRANCH  10  11
ATOM     11  C   UNL     1       5.452   5.050  16.980  0.00  0.00    +0.000 C 
BRANCH  11  12
ATOM     12  O   UNL     1       5.172   6.190  16.129  0.00  0.00    +0.000 OA
ATOM     13  H   UNL     1       4.992   5.774  15.259  0.00  0.00    +0.000 HD
ENDBRANCH  11  12
BRANCH  11  14
ATOM     14  C   UNL     1       6.521   4.226  16.229  0.00  0.00    +0.000 C 
BRANCH  14  16
ATOM     15  O   UNL     1       7.640   5.420  14.591  0.00  0.00    +0.000 OA
ATOM     16  C   UNL     1       6.666   4.519  14.707  0.00  0.00    +0.000 C 
ENDBRANCH  14  16
BRANCH  14  17
ATOM     17  O   UNL     1       7.799   4.463  16.865  0.00  0.00    +0.000 OA
ATOM     18  H   UNL     1       8.312   3.737  16.429  0.00  0.00    +0.000 HD
ENDBRANCH  14  17
ENDBRANCH  11  14
ENDBRANCH  10  11
ENDBRANCH   1  10
BRANCH   5  19
ATOM     19  C   UNL     1       4.463   2.246  19.342  0.00  0.00    +0.000 C 
BRANCH  19  20
ATOM     20  O   UNL     1       5.227   1.598  20.360  0.00  0.00    +0.000 OA
ATOM     21  H   UNL     1       5.766   2.276  20.800  0.00  0.00    +0.000 HD
ENDBRANCH  19  20
ENDBRANCH   5  19
TORSDOF 10
ENDMDL
MODEL 3
REMARK VINA RESULT:      -5.8      1.588      5.739
REMARK  Name = 
REMARK  10 active torsions:
REMARK  status: ('A' for Active; 'I' for Inactive)
REMARK    1  A    between atoms: C_2  and  C_3
REMARK    2  A    between atoms: C_3  and  O_4
REMARK    3  A    between atoms: C_3  and  C_5
REMARK    4  A    between atoms: C_5  and  O_6
REMARK    5  A    between atoms: C_5  and  C_7
REMARK    6  A    between atoms: C_7  and  S_8
REMARK    7  A    between atoms: C_10  and  O_11
REMARK    8  A    between atoms: C_12  and  O_13
REMARK    9  A    between atoms: C_14  and  C_15
REMARK   10  A    between atoms: C_15  and  O_16
REMARK                            x       y       z     vdW  Elec       q    Type
REMARK                         _______ _______ _______ _____ _____    ______ ____
ROOT
ATOM      1  S   UNL     1       4.311   5.915  17.996  0.00  0.00    +0.000 S 
ATOM      2  C   UNL     1       5.524   5.258  19.183  0.00  0.00    +0.000 C 
ATOM      3  C   UNL     1       6.855   5.724  18.619  0.00  0.00    +0.000 C 
ATOM      4  C   UNL     1       6.838   5.379  17.112  0.00  0.00    +0.000 C 
ATOM      5  C   UNL     1       5.370   5.317  16.606  0.00  0.00    +0.000 C 
ENDROOT
BRANCH   3   6
ATOM      6  O   UNL     1       7.954   5.109  19.290  0.00  0.00    +0.000 OA
ATOM      7  H   UNL     1       8.672   5.764  19.351  0.00  0.00    +0.000 HD
ENDBRANCH   3   6
BRANCH   4   8
ATOM      8  O   UNL     1       7.567   6.377  16.375  0.00  0.00    +0.000 OA
ATOM      9  H   UNL     1       7.711   7.130  16.976  0.00  0.00    +0.000 HD
ENDBRANCH   4   8
BRANCH   1  10
ATOM     10  C   UNL     1       3.056   4.580  18.157  0.00  0.00    +0.000 C 
BRANCH  10  11
ATOM     11  C   UNL     1       3.172   3.809  19.484  0.00  0.00    +0.000 C 
BRANCH  11  12
ATOM     12  O   UNL     1       3.079   2.392  19.188  0.00  0.00    +0.000 OA
ATOM     13  H   UNL     1       2.554   2.376  18.359  0.00  0.00    +0.000 HD
ENDBRANCH  11  12
BRANCH  11  14
ATOM     14  C   UNL     1       2.019   4.103  20.468  0.00  0.00    +0.000 C 
BRANCH  14  16
ATOM     15  O   UNL     1       2.653   2.566  22.080  0.00  0.00    +0.000 OA
ATOM     16  C   UNL     1       1.577   2.919  21.379  0.00  0.00    +0.000 C 
ENDBRANCH  14  16
BRANCH  14  17
ATOM     17  O   UNL     1       2.421   5.205  21.314  0.00  0.00    +0.000 OA
ATOM     18  H   UNL     1       2.432   4.724  22.181  0.00  0.00    +0.000 HD
ENDBRANCH  14  17
ENDBRANCH  11  14
ENDBRANCH  10  11
ENDBRANCH   1  10
BRANCH   5  19
ATOM     19  C   UNL     1       5.047   3.928  16.045  0.00  0.00    +0.000 C 
BRANCH  19  20
ATOM     20  O   UNL     1       6.233   3.248  15.634  0.00  0.00    +0.000 OA
ATOM     21  H   UNL     1       6.551   2.727  16.390  0.00  0.00    +0.000 HD
ENDBRANCH  19  20
ENDBRANCH   5  19
TORSDOF 10
ENDMDL
MODEL 4
REMARK VINA RESULT:      -5.8      1.389      2.628
REMARK  Name = 
REMARK  10 active torsions:
REMARK  status: ('A' for Active; 'I' for Inactive)
REMARK    1  A    between atoms: C_2  and  C_3
REMARK    2  A    between atoms: C_3  and  O_4
REMARK    3  A    between atoms: C_3  and  C_5
REMARK    4  A    between atoms: C_5  and  O_6
REMARK    5  A    between atoms: C_5  and  C_7
REMARK    6  A    between atoms: C_7  and  S_8
REMARK    7  A    between atoms: C_10  and  O_11
REMARK    8  A    between atoms: C_12  and  O_13
REMARK    9  A    between atoms: C_14  and  C_15
REMARK   10  A    between atoms: C_15  and  O_16
REMARK                            x       y       z     vdW  Elec       q    Type
REMARK                         _______ _______ _______ _____ _____    ______ ____
ROOT
ATOM      1  S   UNL     1       3.511   3.730  18.268  0.00  0.00    +0.000 S 
ATOM      2  C   UNL     1       4.011   3.091  19.897  0.00  0.00    +0.000 C 
ATOM      3  C   UNL     1       2.688   2.745  20.560  0.00  0.00    +0.000 C 
ATOM      4  C   UNL     1       1.761   3.963  20.351  0.00  0.00    +0.000 C 
ATOM      5  C   UNL     1       2.205   4.749  19.085  0.00  0.00    +0.000 C 
ENDROOT
BRANCH   3   6
ATOM      6  O   UNL     1       2.858   2.439  21.944  0.00  0.00    +0.000 OA
ATOM      7  H   UNL     1       1.983   2.226  22.312  0.00  0.00    +0.000 HD
ENDBRANCH   3   6
BRANCH   4   8
ATOM      8  O   UNL     1       0.401   3.521  20.198  0.00  0.00    +0.000 OA
ATOM      9  H   UNL     1      -0.050   3.676  21.047  0.00  0.00    +0.000 HD
ENDBRANCH   4   8
BRANCH   1  10
ATOM     10  C   UNL     1       4.884   4.931  18.040  0.00  0.00    +0.000 C 
BRANCH  10  11
ATOM     11  C   UNL     1       5.654   4.715  16.724  0.00  0.00    +0.000 C 
BRANCH  11  12
ATOM     12  O   UNL     1       5.767   3.287  16.500  0.00  0.00    +0.000 OA
ATOM     13  H   UNL     1       6.622   3.066  16.926  0.00  0.00    +0.000 HD
ENDBRANCH  11  12
BRANCH  11  14
ATOM     14  C   UNL     1       7.105   5.243  16.768  0.00  0.00    +0.000 C 
BRANCH  14  16
ATOM     15  O   UNL     1       7.624   7.494  16.925  0.00  0.00    +0.000 OA
ATOM     16  C   UNL     1       7.365   6.453  17.713  0.00  0.00    +0.000 C 
ENDBRANCH  14  16
BRANCH  14  17
ATOM     17  O   UNL     1       7.966   4.153  17.172  0.00  0.00    +0.000 OA
ATOM     18  H   UNL     1       7.909   3.611  16.344  0.00  0.00    +0.000 HD
ENDBRANCH  14  17
ENDBRANCH  11  14
ENDBRANCH  10  11
ENDBRANCH   1  10
BRANCH   5  19
ATOM     19  C   UNL     1       2.584   6.190  19.445  0.00  0.00    +0.000 C 
BRANCH  19  20
ATOM     20  O   UNL     1       2.184   6.511  20.778  0.00  0.00    +0.000 OA
ATOM     21  H   UNL     1       2.366   5.736  21.335  0.00  0.00    +0.000 HD
ENDBRANCH  19  20
ENDBRANCH   5  19
TORSDOF 10
ENDMDL
MODEL 5
REMARK VINA RESULT:      -5.8      1.400      1.495
REMARK  Name = 
REMARK  10 active torsions:
REMARK  status: ('A' for Active; 'I' for Inactive)
REMARK    1  A    between atoms: C_2  and  C_3
REMARK    2  A    between atoms: C_3  and  O_4
REMARK    3  A    between atoms: C_3  and  C_5
REMARK    4  A    between atoms: C_5  and  O_6
REMARK    5  A    between atoms: C_5  and  C_7
REMARK    6  A    between atoms: C_7  and  S_8
REMARK    7  A    between atoms: C_10  and  O_11
REMARK    8  A    between atoms: C_12  and  O_13
REMARK    9  A    between atoms: C_14  and  C_15
REMARK   10  A    between atoms: C_15  and  O_16
REMARK                            x       y       z     vdW  Elec       q    Type
REMARK                         _______ _______ _______ _____ _____    ______ ____
ROOT
ATOM      1  S   UNL     1       3.282   4.585  18.408  0.00  0.00    +0.000 S 
ATOM      2  C   UNL     1       1.618   3.875  18.216  0.00  0.00    +0.000 C 
ATOM      3  C   UNL     1       1.124   3.744  19.647  0.00  0.00    +0.000 C 
ATOM      4  C   UNL     1       2.267   3.078  20.446  0.00  0.00    +0.000 C 
ATOM      5  C   UNL     1       3.628   3.370  19.755  0.00  0.00    +0.000 C 
ENDROOT
BRANCH   3   6
ATOM      6  O   UNL     1      -0.084   2.987  19.719  0.00  0.00    +0.000 OA
ATOM      7  H   UNL     1       0.091   2.197  20.261  0.00  0.00    +0.000 HD
ENDBRANCH   3   6
BRANCH   4   8
ATOM      8  O   UNL     1       2.283   3.587  21.791  0.00  0.00    +0.000 OA
ATOM      9  H   UNL     1       3.097   4.113  21.890  0.00  0.00    +0.000 HD
ENDBRANCH   4   8
BRANCH   1  10
ATOM     10  C   UNL     1       4.060   3.799  16.939  0.00  0.00    +0.000 C 
BRANCH  10  11
ATOM     11  C   UNL     1       5.361   4.498  16.506  0.00  0.00    +0.000 C 
BRANCH  11  12
ATOM     12  O   UNL     1       6.425   4.048  17.383  0.00  0.00    +0.000 OA
ATOM     13  H   UNL     1       6.128   3.150  17.644  0.00  0.00    +0.000 HD
ENDBRANCH  11  12
BRANCH  11  14
ATOM     14  C   UNL     1       5.316   6.034  16.664  0.00  0.00    +0.000 C 
BRANCH  14  16
ATOM     15  O   UNL     1       7.548   6.632  16.524  0.00  0.00    +0.000 OA
ATOM     16  C   UNL     1       6.534   6.684  17.385  0.00  0.00    +0.000 C 
ENDBRANCH  14  16
BRANCH  14  17
ATOM     17  O   UNL     1       5.200   6.617  15.346  0.00  0.00    +0.000 OA
ATOM     18  H   UNL     1       5.956   6.145  14.913  0.00  0.00    +0.000 HD
ENDBRANCH  14  17
ENDBRANCH  11  14
ENDBRANCH  10  11
ENDBRANCH   1  10
BRANCH   5  19
ATOM     19  C   UNL     1       4.320   2.066  19.343  0.00  0.00    +0.000 C 
BRANCH  19  20
ATOM     20  O   UNL     1       5.264   1.648  20.329  0.00  0.00    +0.000 OA
ATOM     21  H   UNL     1       4.790   1.104  20.979  0.00  0.00    +0.000 HD
ENDBRANCH  19  20
ENDBRANCH   5  19
TORSDOF 10
ENDMDL
MODEL 6
REMARK VINA RESULT:      -5.7      1.530      5.620
REMARK  Name = 
REMARK  10 active torsions:
REMARK  status: ('A' for Active; 'I' for Inactive)
REMARK    1  A    between atoms: C_2  and  C_3
REMARK    2  A    between atoms: C_3  and  O_4
REMARK    3  A    between atoms: C_3  and  C_5
REMARK    4  A    between atoms: C_5  and  O_6
REMARK    5  A    between atoms: C_5  and  C_7
REMARK    6  A    between atoms: C_7  and  S_8
REMARK    7  A    between atoms: C_10  and  O_11
REMARK    8  A    between atoms: C_12  and  O_13
REMARK    9  A    between atoms: C_14  and  C_15
REMARK   10  A    between atoms: C_15  and  O_16
REMARK                            x       y       z     vdW  Elec       q    Type
REMARK                         _______ _______ _______ _____ _____    ______ ____
ROOT
ATOM      1  S   UNL     1       4.414   5.871  17.966  0.00  0.00    +0.000 S 
ATOM      2  C   UNL     1       5.647   5.024  19.003  0.00  0.00    +0.000 C 
ATOM      3  C   UNL     1       6.949   5.715  18.636  0.00  0.00    +0.000 C 
ATOM      4  C   UNL     1       6.999   5.767  17.092  0.00  0.00    +0.000 C 
ATOM      5  C   UNL     1       5.554   5.728  16.520  0.00  0.00    +0.000 C 
ENDROOT
BRANCH   3   6
ATOM      6  O   UNL     1       8.078   5.031  19.179  0.00  0.00    +0.000 OA
ATOM      7  H   UNL     1       8.370   4.371  18.526  0.00  0.00    +0.000 HD
ENDBRANCH   3   6
BRANCH   4   8
ATOM      8  O   UNL     1       7.660   6.971  16.665  0.00  0.00    +0.000 OA
ATOM      9  H   UNL     1       7.881   6.859  15.723  0.00  0.00    +0.000 HD
ENDBRANCH   4   8
BRANCH   1  10
ATOM     10  C   UNL     1       3.271   4.451  17.727  0.00  0.00    +0.000 C 
BRANCH  10  11
ATOM     11  C   UNL     1       3.608   3.253  18.634  0.00  0.00    +0.000 C 
BRANCH  11  12
ATOM     12  O   UNL     1       4.065   2.167  17.790  0.00  0.00    +0.000 OA
ATOM     13  H   UNL     1       4.868   1.850  18.257  0.00  0.00    +0.000 HD
ENDBRANCH  11  12
BRANCH  11  14
ATOM     14  C   UNL     1       2.386   2.698  19.397  0.00  0.00    +0.000 C 
BRANCH  14  16
ATOM     15  O   UNL     1       1.119   4.098  20.737  0.00  0.00    +0.000 OA
ATOM     16  C   UNL     1       1.148   3.639  19.488  0.00  0.00    +0.000 C 
ENDBRANCH  14  16
BRANCH  14  17
ATOM     17  O   UNL     1       1.978   1.467  18.755  0.00  0.00    +0.000 OA
ATOM     18  H   UNL     1       2.813   1.284  18.253  0.00  0.00    +0.000 HD
ENDBRANCH  14  17
ENDBRANCH  11  14
ENDBRANCH  10  11
ENDBRANCH   1  10
BRANCH   5  19
ATOM     19  C   UNL     1       5.361   4.509  15.612  0.00  0.00    +0.000 C 
BRANCH  19  20
ATOM     20  O   UNL     1       6.176   3.416  16.035  0.00  0.00    +0.000 OA
ATOM     21  H   UNL     1       7.055   3.533  15.638  0.00  0.00    +0.000 HD
ENDBRANCH  19  20
ENDBRANCH   5  19
TORSDOF 10
ENDMDL
MODEL 7
REMARK VINA RESULT:      -5.7      0.969      1.337
REMARK  Name = 
REMARK  10 active torsions:
REMARK  status: ('A' for Active; 'I' for Inactive)
REMARK    1  A    between atoms: C_2  and  C_3
REMARK    2  A    between atoms: C_3  and  O_4
REMARK    3  A    between atoms: C_3  and  C_5
REMARK    4  A    between atoms: C_5  and  O_6
REMARK    5  A    between atoms: C_5  and  C_7
REMARK    6  A    between atoms: C_7  and  S_8
REMARK    7  A    between atoms: C_10  and  O_11
REMARK    8  A    between atoms: C_12  and  O_13
REMARK    9  A    between atoms: C_14  and  C_15
REMARK   10  A    between atoms: C_15  and  O_16
REMARK                            x       y       z     vdW  Elec       q    Type
REMARK                         _______ _______ _______ _____ _____    ______ ____
ROOT
ATOM      1  S   UNL     1       4.005   4.740  19.239  0.00  0.00    +0.000 S 
ATOM      2  C   UNL     1       2.191   4.859  19.148  0.00  0.00    +0.000 C 
ATOM      3  C   UNL     1       1.730   4.191  20.432  0.00  0.00    +0.000 C 
ATOM      4  C   UNL     1       2.510   2.860  20.538  0.00  0.00    +0.000 C 
ATOM      5  C   UNL     1       3.847   2.974  19.754  0.00  0.00    +0.000 C 
ENDROOT
BRANCH   3   6
ATOM      6  O   UNL     1       0.319   3.979  20.437  0.00  0.00    +0.000 OA
ATOM      7  H   UNL     1      -0.028   4.255  19.570  0.00  0.00    +0.000 HD
ENDBRANCH   3   6
BRANCH   4   8
ATOM      8  O   UNL     1       2.778   2.561  21.919  0.00  0.00    +0.000 OA
ATOM      9  H   UNL     1       3.713   2.775  22.084  0.00  0.00    +0.000 HD
ENDBRANCH   4   8
BRANCH   1  10
ATOM     10  C   UNL     1       4.336   4.611  17.435  0.00  0.00    +0.000 C 
BRANCH  10  11
ATOM     11  C   UNL     1       5.777   5.004  17.062  0.00  0.00    +0.000 C 
BRANCH  11  12
ATOM     12  O   UNL     1       6.640   3.878  17.360  0.00  0.00    +0.000 OA
ATOM     13  H   UNL     1       7.070   3.698  16.497  0.00  0.00    +0.000 HD
ENDBRANCH  11  12
BRANCH  11  14
ATOM     14  C   UNL     1       6.328   6.180  17.898  0.00  0.00    +0.000 C 
BRANCH  14  16
ATOM     15  O   UNL     1       7.315   5.469  19.868  0.00  0.00    +0.000 OA
ATOM     16  C   UNL     1       7.659   5.914  18.661  0.00  0.00    +0.000 C 
ENDBRANCH  14  16
BRANCH  14  17
ATOM     17  O   UNL     1       6.527   7.306  17.011  0.00  0.00    +0.000 OA
ATOM     18  H   UNL     1       6.237   6.876  16.167  0.00  0.00    +0.000 HD
ENDBRANCH  14  17
ENDBRANCH  11  14
ENDBRANCH  10  11
ENDBRANCH   1  10
BRANCH   5  19
ATOM     19  C   UNL     1       3.914   1.924  18.639  0.00  0.00    +0.000 C 
BRANCH  19  20
ATOM     20  O   UNL     1       2.610   1.462  18.286  0.00  0.00    +0.000 OA
ATOM     21  H   UNL     1       2.278   0.924  19.024  0.00  0.00    +0.000 HD
ENDBRANCH  19  20
ENDBRANCH   5  19
TORSDOF 10
ENDMDL
MODEL 8
REMARK VINA RESULT:      -5.7      0.940      1.373
REMARK  Name = 
REMARK  10 active torsions:
REMARK  status: ('A' for Active; 'I' for Inactive)
REMARK    1  A    between atoms: C_2  and  C_3
REMARK    2  A    between atoms: C_3  and  O_4
REMARK    3  A    between atoms: C_3  and  C_5
REMARK    4  A    between atoms: C_5  and  O_6
REMARK    5  A    between atoms: C_5  and  C_7
REMARK    6  A    between atoms: C_7  and  S_8
REMARK    7  A    between atoms: C_10  and  O_11
REMARK    8  A    between atoms: C_12  and  O_13
REMARK    9  A    between atoms: C_14  and  C_15
REMARK   10  A    between atoms: C_15  and  O_16
REMARK                            x       y       z     vdW  Elec       q    Type
REMARK                         _______ _______ _______ _____ _____    ______ ____
ROOT
ATOM      1  S   UNL     1       4.663   4.427  19.219  0.00  0.00    +0.000 S 
ATOM      2  C   UNL     1       2.989   5.135  19.301  0.00  0.00    +0.000 C 
ATOM      3  C   UNL     1       2.414   4.532  20.571  0.00  0.00    +0.000 C 
ATOM      4  C   UNL     1       2.716   3.017  20.513  0.00  0.00    +0.000 C 
ATOM      5  C   UNL     1       3.964   2.766  19.621  0.00  0.00    +0.000 C 
ENDROOT
BRANCH   3   6
ATOM      6  O   UNL     1       1.015   4.789  20.689  0.00  0.00    +0.000 OA
ATOM      7  H   UNL     1       0.561   4.306  19.977  0.00  0.00    +0.000 HD
ENDBRANCH   3   6
BRANCH   4   8
ATOM      8  O   UNL     1       2.956   2.515  21.839  0.00  0.00    +0.000 OA
ATOM      9  H   UNL     1       3.887   2.702  22.053  0.00  0.00    +0.000 HD
ENDBRANCH   4   8
BRANCH   1  10
ATOM     10  C   UNL     1       4.820   4.372  17.387  0.00  0.00    +0.000 C 
BRANCH  10  11
ATOM     11  C   UNL     1       6.267   4.134  16.918  0.00  0.00    +0.000 C 
BRANCH  11  12
ATOM     12  O   UNL     1       7.130   4.190  18.082  0.00  0.00    +0.000 OA
ATOM     13  H   UNL     1       6.617   4.744  18.708  0.00  0.00    +0.000 HD
ENDBRANCH  11  12
BRANCH  11  14
ATOM     14  C   UNL     1       6.791   5.227  15.962  0.00  0.00    +0.000 C 
BRANCH  14  16
ATOM     15  O   UNL     1       7.926   5.605  13.980  0.00  0.00    +0.000 OA
ATOM     16  C   UNL     1       6.989   4.801  14.477  0.00  0.00    +0.000 C 
ENDBRANCH  14  16
BRANCH  14  17
ATOM     17  O   UNL     1       5.864   6.337  15.999  0.00  0.00    +0.000 OA
ATOM     18  H   UNL     1       5.212   6.002  15.331  0.00  0.00    +0.000 HD
ENDBRANCH  14  17
ENDBRANCH  11  14
ENDBRANCH  10  11
ENDBRANCH   1  10
BRANCH   5  19
ATOM     19  C   UNL     1       3.611   1.864  18.433  0.00  0.00    +0.000 C 
BRANCH  19  20
ATOM     20  O   UNL     1       2.200   1.661  18.340  0.00  0.00    +0.000 OA
ATOM     21  H   UNL     1       1.863   1.515  19.240  0.00  0.00    +0.000 HD
ENDBRANCH  19  20
ENDBRANCH   5  19
TORSDOF 10
ENDMDL
MODEL 9
REMARK VINA RESULT:      -5.7      1.720      6.113
REMARK  Name = 
REMARK  10 active torsions:
REMARK  status: ('A' for Active; 'I' for Inactive)
REMARK    1  A    between atoms: C_2  and  C_3
REMARK    2  A    between atoms: C_3  and  O_4
REMARK    3  A    between atoms: C_3  and  C_5
REMARK    4  A    between atoms: C_5  and  O_6
REMARK    5  A    between atoms: C_5  and  C_7
REMARK    6  A    between atoms: C_7  and  S_8
REMARK    7  A    between atoms: C_10  and  O_11
REMARK    8  A    between atoms: C_12  and  O_13
REMARK    9  A    between atoms: C_14  and  C_15
REMARK   10  A    between atoms: C_15  and  O_16
REMARK                            x       y       z     vdW  Elec       q    Type
REMARK                         _______ _______ _______ _____ _____    ______ ____
ROOT
ATOM      1  S   UNL     1       4.715   4.251  18.187  0.00  0.00    +0.000 S 
ATOM      2  C   UNL     1       4.388   5.635  17.051  0.00  0.00    +0.000 C 
ATOM      3  C   UNL     1       5.513   5.529  16.036  0.00  0.00    +0.000 C 
ATOM      4  C   UNL     1       6.819   5.357  16.845  0.00  0.00    +0.000 C 
ATOM      5  C   UNL     1       6.499   4.726  18.228  0.00  0.00    +0.000 C 
ENDROOT
BRANCH   3   6
ATOM      6  O   UNL     1       5.564   6.674  15.186  0.00  0.00    +0.000 OA
ATOM      7  H   UNL     1       4.809   7.246  15.410  0.00  0.00    +0.000 HD
ENDBRANCH   3   6
BRANCH   4   8
ATOM      8  O   UNL     1       7.733   4.513  16.123  0.00  0.00    +0.000 OA
ATOM      9  H   UNL     1       8.632   4.836  16.309  0.00  0.00    +0.000 HD
ENDBRANCH   4   8
BRANCH   1  10
ATOM     10  C   UNL     1       4.051   5.024  19.718  0.00  0.00    +0.000 C 
BRANCH  10  11
ATOM     11  C   UNL     1       2.513   4.986  19.788  0.00  0.00    +0.000 C 
BRANCH  11  12
ATOM     12  O   UNL     1       2.098   5.756  20.945  0.00  0.00    +0.000 OA
ATOM     13  H   UNL     1       2.514   5.272  21.690  0.00  0.00    +0.000 HD
ENDBRANCH  11  12
BRANCH  11  14
ATOM     14  C   UNL     1       1.943   3.568  20.009  0.00  0.00    +0.000 C 
BRANCH  14  16
ATOM     15  O   UNL     1       2.135   3.126  22.273  0.00  0.00    +0.000 OA
ATOM     16  C   UNL     1       2.637   2.715  21.111  0.00  0.00    +0.000 C 
ENDBRANCH  14  16
BRANCH  14  17
ATOM     17  O   UNL     1       0.541   3.696  20.345  0.00  0.00    +0.000 OA
ATOM     18  H   UNL     1       0.645   4.130  21.230  0.00  0.00    +0.000 HD
ENDBRANCH  14  17
ENDBRANCH  11  14
ENDBRANCH  10  11
ENDBRANCH   1  10
BRANCH   5  19
ATOM     19  C   UNL     1       6.936   5.657  19.365  0.00  0.00    +0.000 C 
BRANCH  19  20
ATOM     20  O   UNL     1       8.153   6.330  19.042  0.00  0.00    +0.000 OA
ATOM     21  H   UNL     1       8.156   7.178  19.518  0.00  0.00    +0.000 HD
ENDBRANCH  19  20
ENDBRANCH   5  19
TORSDOF 10
ENDMDL
