MODEL 1
REMARK VINA RESULT:      -7.7      0.000      0.000
REMARK  Name = 
REMARK  2 active torsions:
REMARK  status: ('A' for Active; 'I' for Inactive)
REMARK    1  A    between atoms: C_1  and  N_2
REMARK    2  A    between atoms: C_18  and  C_19
REMARK                            x       y       z     vdW  Elec       q    Type
REMARK                         _______ _______ _______ _____ _____    ______ ____
ROOT
ATOM      1  C   UNL     1      -3.159  13.294  24.148  0.00  0.00    +0.000 C 
ATOM      2  N   UNL     1      -2.325  13.391  22.973  0.00  0.00    +0.000 N 
ATOM      3  C   UNL     1      -1.259  14.385  22.899  0.00  0.00    +0.000 C 
ATOM      4  C   UNL     1      -0.046  13.986  22.020  0.00  0.00    +0.000 C 
ATOM      5  O   UNL     1       1.095  14.368  22.314  0.00  0.00    +0.000 OA
ATOM      6  N   UNL     1      -0.363  13.305  20.801  0.00  0.00    +0.000 N 
ATOM      7  C   UNL     1      -1.543  12.442  20.947  0.00  0.00    +0.000 C 
ATOM      8  C   UNL     1      -1.961  11.833  19.639  0.00  0.00    +0.000 C 
ATOM      9  C   UNL     1      -0.820  11.059  19.046  0.00  0.00    +0.000 C 
ATOM     10  C   UNL     1      -0.068   9.972  19.802  0.00  0.00    +0.000 A 
ATOM     11  C   UNL     1       0.013   9.475  21.090  0.00  0.00    +0.000 A 
ATOM     12  C   UNL     1       0.969   8.482  21.377  0.00  0.00    +0.000 A 
ATOM     13  C   UNL     1       1.736   7.909  20.354  0.00  0.00    +0.000 A 
ATOM     14  C   UNL     1       1.735   8.497  19.098  0.00  0.00    +0.000 A 
ATOM     15  C   UNL     1       0.998   9.655  18.973  0.00  0.00    +0.000 A 
ATOM     16  N   UNL     1       1.308  10.744  18.096  0.00  0.00    +0.000 N 
ATOM     17  C   UNL     1       0.413  11.871  18.648  0.00  0.00    +0.000 C 
ATOM     18  C   UNL     1       0.813  12.781  19.950  0.00  0.00    +0.000 C 
ATOM     19  C   UNL     1      -2.779  12.884  21.766  0.00  0.00    +0.000 C 
ATOM     20  O   UNL     1      -3.937  12.505  21.586  0.00  0.00    +0.000 OA
ATOM     21  H   UNL     1       0.920  10.436  17.193  0.00  0.00    +0.000 HD
ENDROOT
BRANCH  18  22
ATOM     22  C   UNL     1       1.668  13.950  19.457  0.00  0.00    +0.000 A 
ATOM     23  C   UNL     1       1.008  15.084  18.936  0.00  0.00    +0.000 A 
ATOM     24  C   UNL     1       1.712  16.229  18.572  0.00  0.00    +0.000 A 
ATOM     25  C   UNL     1       3.077  16.226  18.751  0.00  0.00    +0.000 A 
ATOM     26  C   UNL     1       3.744  15.116  19.213  0.00  0.00    +0.000 A 
ATOM     27  C   UNL     1       3.076  13.953  19.559  0.00  0.00    +0.000 A 
ATOM     28  O   UNL     1       5.088  15.323  19.310  0.00  0.00    +0.000 OA
ATOM     29  C   UNL     1       5.178  16.708  18.912  0.00  0.00    +0.000 C 
ATOM     30  O   UNL     1       3.914  17.274  18.510  0.00  0.00    +0.000 OA
ENDBRANCH  18  22
TORSDOF 1
ENDMDL
MODEL 2
REMARK VINA RESULT:      -7.5      1.354      2.032
REMARK  Name = 
REMARK  2 active torsions:
REMARK  status: ('A' for Active; 'I' for Inactive)
REMARK    1  A    between atoms: C_1  and  N_2
REMARK    2  A    between atoms: C_18  and  C_19
REMARK                            x       y       z     vdW  Elec       q    Type
REMARK                         _______ _______ _______ _____ _____    ______ ____
ROOT
ATOM      1  C   UNL     1      -3.888  13.210  24.478  0.00  0.00    +0.000 C 
ATOM      2  N   UNL     1      -3.168  13.439  23.247  0.00  0.00    +0.000 N 
ATOM      3  C   UNL     1      -2.277  14.587  23.110  0.00  0.00    +0.000 C 
ATOM      4  C   UNL     1      -1.085  14.382  22.140  0.00  0.00    +0.000 C 
ATOM      5  O   UNL     1       0.002  14.937  22.357  0.00  0.00    +0.000 OA
ATOM      6  N   UNL     1      -1.382  13.665  20.938  0.00  0.00    +0.000 N 
ATOM      7  C   UNL     1      -2.400  12.629  21.157  0.00  0.00    +0.000 C 
ATOM      8  C   UNL     1      -2.814  11.966  19.874  0.00  0.00    +0.000 C 
ATOM      9  C   UNL     1      -1.614  11.380  19.189  0.00  0.00    +0.000 C 
ATOM     10  C   UNL     1      -0.650  10.420  19.873  0.00  0.00    +0.000 A 
ATOM     11  C   UNL     1      -0.398   9.938  21.144  0.00  0.00    +0.000 A 
ATOM     12  C   UNL     1       0.719   9.105  21.347  0.00  0.00    +0.000 A 
ATOM     13  C   UNL     1       1.487   8.661  20.264  0.00  0.00    +0.000 A 
ATOM     14  C   UNL     1       1.303   9.245  19.020  0.00  0.00    +0.000 A 
ATOM     15  C   UNL     1       0.389  10.275  18.965  0.00  0.00    +0.000 A 
ATOM     16  N   UNL     1       0.462  11.401  18.084  0.00  0.00    +0.000 N 
ATOM     17  C   UNL     1      -0.554  12.375  18.714  0.00  0.00    +0.000 C 
ATOM     18  C   UNL     1      -0.205  13.332  19.997  0.00  0.00    +0.000 C 
ATOM     19  C   UNL     1      -3.626  12.871  22.069  0.00  0.00    +0.000 C 
ATOM     20  O   UNL     1      -4.722  12.318  21.968  0.00  0.00    +0.000 OA
ATOM     21  H   UNL     1       0.060  11.039  17.207  0.00  0.00    +0.000 HD
ENDROOT
BRANCH  18  22
ATOM     22  C   UNL     1       0.420  14.620  19.460  0.00  0.00    +0.000 A 
ATOM     23  C   UNL     1       1.826  14.747  19.504  0.00  0.00    +0.000 A 
ATOM     24  C   UNL     1       2.474  15.840  18.933  0.00  0.00    +0.000 A 
ATOM     25  C   UNL     1       1.699  16.790  18.309  0.00  0.00    +0.000 A 
ATOM     26  C   UNL     1       0.326  16.709  18.295  0.00  0.00    +0.000 A 
ATOM     27  C   UNL     1      -0.350  15.649  18.876  0.00  0.00    +0.000 A 
ATOM     28  O   UNL     1      -0.247  17.753  17.631  0.00  0.00    +0.000 OA
ATOM     29  C   UNL     1       0.927  18.464  17.181  0.00  0.00    +0.000 C 
ATOM     30  O   UNL     1       2.163  17.886  17.647  0.00  0.00    +0.000 OA
ENDBRANCH  18  22
TORSDOF 1
ENDMDL
MODEL 3
REMARK VINA RESULT:      -7.5      5.129      8.324
REMARK  Name = 
REMARK  2 active torsions:
REMARK  status: ('A' for Active; 'I' for Inactive)
REMARK    1  A    between atoms: C_1  and  N_2
REMARK    2  A    between atoms: C_18  and  C_19
REMARK                            x       y       z     vdW  Elec       q    Type
REMARK                         _______ _______ _______ _____ _____    ______ ____
ROOT
ATOM      1  C   UNL     1       2.131   1.704  21.182  0.00  0.00    +0.000 C 
ATOM      2  N   UNL     1       2.125   2.940  20.436  0.00  0.00    +0.000 N 
ATOM      3  C   UNL     1       1.390   4.101  20.928  0.00  0.00    +0.000 C 
ATOM      4  C   UNL     1       1.977   5.476  20.513  0.00  0.00    +0.000 C 
ATOM      5  O   UNL     1       1.883   6.451  21.270  0.00  0.00    +0.000 OA
ATOM      6  N   UNL     1       2.467   5.559  19.170  0.00  0.00    +0.000 N 
ATOM      7  C   UNL     1       3.055   4.289  18.723  0.00  0.00    +0.000 C 
ATOM      8  C   UNL     1       3.446   4.329  17.273  0.00  0.00    +0.000 C 
ATOM      9  C   UNL     1       4.404   5.460  17.032  0.00  0.00    +0.000 C 
ATOM     10  C   UNL     1       5.689   5.647  17.826  0.00  0.00    +0.000 A 
ATOM     11  C   UNL     1       6.296   5.121  18.952  0.00  0.00    +0.000 A 
ATOM     12  C   UNL     1       7.497   5.696  19.409  0.00  0.00    +0.000 A 
ATOM     13  C   UNL     1       8.139   6.696  18.668  0.00  0.00    +0.000 A 
ATOM     14  C   UNL     1       7.466   7.297  17.617  0.00  0.00    +0.000 A 
ATOM     15  C   UNL     1       6.166   6.884  17.416  0.00  0.00    +0.000 A 
ATOM     16  N   UNL     1       5.106   7.701  16.908  0.00  0.00    +0.000 N 
ATOM     17  C   UNL     1       3.856   6.869  17.261  0.00  0.00    +0.000 C 
ATOM     18  C   UNL     1       3.168   6.867  18.747  0.00  0.00    +0.000 C 
ATOM     19  C   UNL     1       2.418   2.925  19.081  0.00  0.00    +0.000 C 
ATOM     20  O   UNL     1       2.513   1.888  18.423  0.00  0.00    +0.000 OA
ATOM     21  H   UNL     1       5.244   7.658  15.888  0.00  0.00    +0.000 HD
ENDROOT
BRANCH  18  22
ATOM     22  C   UNL     1       2.183   8.035  18.806  0.00  0.00    +0.000 A 
ATOM     23  C   UNL     1       1.574   8.454  17.603  0.00  0.00    +0.000 A 
ATOM     24  C   UNL     1       0.585   9.435  17.594  0.00  0.00    +0.000 A 
ATOM     25  C   UNL     1       0.207   9.975  18.802  0.00  0.00    +0.000 A 
ATOM     26  C   UNL     1       0.820   9.614  19.979  0.00  0.00    +0.000 A 
ATOM     27  C   UNL     1       1.823   8.662  20.020  0.00  0.00    +0.000 A 
ATOM     28  O   UNL     1       0.299  10.271  21.056  0.00  0.00    +0.000 OA
ATOM     29  C   UNL     1      -0.747  11.040  20.423  0.00  0.00    +0.000 C 
ATOM     30  O   UNL     1      -0.781  10.894  18.989  0.00  0.00    +0.000 OA
ENDBRANCH  18  22
TORSDOF 1
ENDMDL
MODEL 4
REMARK VINA RESULT:      -7.3      3.015      6.039
REMARK  Name = 
REMARK  2 active torsions:
REMARK  status: ('A' for Active; 'I' for Inactive)
REMARK    1  A    between atoms: C_1  and  N_2
REMARK    2  A    between atoms: C_18  and  C_19
REMARK                            x       y       z     vdW  Elec       q    Type
REMARK                         _______ _______ _______ _____ _____    ______ ____
ROOT
ATOM      1  C   UNL     1      -5.523  12.446  18.414  0.00  0.00    +0.000 C 
ATOM      2  N   UNL     1      -4.217  11.995  18.838  0.00  0.00    +0.000 N 
ATOM      3  C   UNL     1      -3.573  10.864  18.178  0.00  0.00    +0.000 C 
ATOM      4  C   UNL     1      -2.022  10.901  18.175  0.00  0.00    +0.000 C 
ATOM      5  O   UNL     1      -1.386  10.426  17.224  0.00  0.00    +0.000 OA
ATOM      6  N   UNL     1      -1.412  11.358  19.386  0.00  0.00    +0.000 N 
ATOM      7  C   UNL     1      -2.219  12.393  20.048  0.00  0.00    +0.000 C 
ATOM      8  C   UNL     1      -1.654  12.779  21.385  0.00  0.00    +0.000 C 
ATOM      9  C   UNL     1      -0.236  13.246  21.227  0.00  0.00    +0.000 C 
ATOM     10  C   UNL     1       0.176  14.344  20.257  0.00  0.00    +0.000 A 
ATOM     11  C   UNL     1      -0.381  15.075  19.223  0.00  0.00    +0.000 A 
ATOM     12  C   UNL     1       0.439  15.958  18.495  0.00  0.00    +0.000 A 
ATOM     13  C   UNL     1       1.761  16.196  18.889  0.00  0.00    +0.000 A 
ATOM     14  C   UNL     1       2.342  15.373  19.841  0.00  0.00    +0.000 A 
ATOM     15  C   UNL     1       1.563  14.331  20.296  0.00  0.00    +0.000 A 
ATOM     16  N   UNL     1       2.053  13.055  20.722  0.00  0.00    +0.000 N 
ATOM     17  C   UNL     1       0.768  12.202  20.738  0.00  0.00    +0.000 C 
ATOM     18  C   UNL     1       0.122  11.526  19.393  0.00  0.00    +0.000 C 
ATOM     19  C   UNL     1      -3.762  12.307  20.109  0.00  0.00    +0.000 C 
ATOM     20  O   UNL     1      -4.480  12.804  20.979  0.00  0.00    +0.000 OA
ATOM     21  H   UNL     1       2.338  13.226  21.697  0.00  0.00    +0.000 HD
ENDROOT
BRANCH  18  22
ATOM     22  C   UNL     1       0.800  10.172  19.179  0.00  0.00    +0.000 A 
ATOM     23  C   UNL     1       1.576   9.993  18.013  0.00  0.00    +0.000 A 
ATOM     24  C   UNL     1       2.313   8.829  17.805  0.00  0.00    +0.000 A 
ATOM     25  C   UNL     1       2.273   7.862  18.782  0.00  0.00    +0.000 A 
ATOM     26  C   UNL     1       1.488   7.997  19.903  0.00  0.00    +0.000 A 
ATOM     27  C   UNL     1       0.723   9.129  20.128  0.00  0.00    +0.000 A 
ATOM     28  O   UNL     1       1.590   6.924  20.739  0.00  0.00    +0.000 OA
ATOM     29  C   UNL     1       2.574   6.130  20.040  0.00  0.00    +0.000 C 
ATOM     30  O   UNL     1       2.976   6.695  18.776  0.00  0.00    +0.000 OA
ENDBRANCH  18  22
TORSDOF 1
ENDMDL
MODEL 5
REMARK VINA RESULT:      -7.1      3.077      6.164
REMARK  Name = 
REMARK  2 active torsions:
REMARK  status: ('A' for Active; 'I' for Inactive)
REMARK    1  A    between atoms: C_1  and  N_2
REMARK    2  A    between atoms: C_18  and  C_19
REMARK                            x       y       z     vdW  Elec       q    Type
REMARK                         _______ _______ _______ _____ _____    ______ ____
ROOT
ATOM      1  C   UNL     1      -5.252  11.846  17.451  0.00  0.00    +0.000 C 
ATOM      2  N   UNL     1      -4.037  11.505  18.152  0.00  0.00    +0.000 N 
ATOM      3  C   UNL     1      -3.252  10.340  17.755  0.00  0.00    +0.000 C 
ATOM      4  C   UNL     1      -1.730  10.447  18.028  0.00  0.00    +0.000 C 
ATOM      5  O   UNL     1      -0.917   9.902  17.269  0.00  0.00    +0.000 OA
ATOM      6  N   UNL     1      -1.366  11.062  19.268  0.00  0.00    +0.000 N 
ATOM      7  C   UNL     1      -2.307  12.124  19.649  0.00  0.00    +0.000 C 
ATOM      8  C   UNL     1      -2.008  12.679  21.013  0.00  0.00    +0.000 C 
ATOM      9  C   UNL     1      -0.597  13.191  21.060  0.00  0.00    +0.000 C 
ATOM     10  C   UNL     1      -0.041  14.196  20.060  0.00  0.00    +0.000 A 
ATOM     11  C   UNL     1      -0.417  14.782  18.865  0.00  0.00    +0.000 A 
ATOM     12  C   UNL     1       0.501  15.617  18.200  0.00  0.00    +0.000 A 
ATOM     13  C   UNL     1       1.721  15.958  18.796  0.00  0.00    +0.000 A 
ATOM     14  C   UNL     1       2.137  15.272  19.926  0.00  0.00    +0.000 A 
ATOM     15  C   UNL     1       1.314  14.251  20.350  0.00  0.00    +0.000 A 
ATOM     16  N   UNL     1       1.749  13.052  21.002  0.00  0.00    +0.000 N 
ATOM     17  C   UNL     1       0.506  12.148  20.884  0.00  0.00    +0.000 C 
ATOM     18  C   UNL     1       0.136  11.300  19.532  0.00  0.00    +0.000 C 
ATOM     19  C   UNL     1      -3.832  11.975  19.440  0.00  0.00    +0.000 C 
ATOM     20  O   UNL     1      -4.710  12.529  20.102  0.00  0.00    +0.000 OA
ATOM     21  H   UNL     1       1.845  13.342  21.986  0.00  0.00    +0.000 HD
ENDROOT
BRANCH  18  22
ATOM     22  C   UNL     1       0.876   9.964  19.603  0.00  0.00    +0.000 A 
ATOM     23  C   UNL     1       0.677   9.151  20.740  0.00  0.00    +0.000 A 
ATOM     24  C   UNL     1       1.228   7.875  20.825  0.00  0.00    +0.000 A 
ATOM     25  C   UNL     1       1.963   7.422  19.754  0.00  0.00    +0.000 A 
ATOM     26  C   UNL     1       2.208   8.215  18.657  0.00  0.00    +0.000 A 
ATOM     27  C   UNL     1       1.697   9.497  18.553  0.00  0.00    +0.000 A 
ATOM     28  O   UNL     1       2.961   7.577  17.716  0.00  0.00    +0.000 OA
ATOM     29  C   UNL     1       3.109   6.275  18.324  0.00  0.00    +0.000 C 
ATOM     30  O   UNL     1       2.520   6.184  19.637  0.00  0.00    +0.000 OA
ENDBRANCH  18  22
TORSDOF 1
ENDMDL
MODEL 6
REMARK VINA RESULT:      -7.1      1.047      1.059
REMARK  Name = 
REMARK  2 active torsions:
REMARK  status: ('A' for Active; 'I' for Inactive)
REMARK    1  A    between atoms: C_1  and  N_2
REMARK    2  A    between atoms: C_18  and  C_19
REMARK                            x       y       z     vdW  Elec       q    Type
REMARK                         _______ _______ _______ _____ _____    ______ ____
ROOT
ATOM      1  C   UNL     1      -4.072  12.787  24.344  0.00  0.00    +0.000 C 
ATOM      2  N   UNL     1      -3.183  13.098  23.249  0.00  0.00    +0.000 N 
ATOM      3  C   UNL     1      -2.203  14.172  23.370  0.00  0.00    +0.000 C 
ATOM      4  C   UNL     1      -0.912  13.984  22.533  0.00  0.00    +0.000 C 
ATOM      5  O   UNL     1       0.173  14.412  22.949  0.00  0.00    +0.000 OA
ATOM      6  N   UNL     1      -1.099  13.443  21.221  0.00  0.00    +0.000 N 
ATOM      7  C   UNL     1      -2.208  12.480  21.179  0.00  0.00    +0.000 C 
ATOM      8  C   UNL     1      -2.497  12.013  19.780  0.00  0.00    +0.000 C 
ATOM      9  C   UNL     1      -1.261  11.412  19.175  0.00  0.00    +0.000 C 
ATOM     10  C   UNL     1      -0.465  10.298  19.841  0.00  0.00    +0.000 A 
ATOM     11  C   UNL     1      -0.416   9.647  21.060  0.00  0.00    +0.000 A 
ATOM     12  C   UNL     1       0.603   8.703  21.287  0.00  0.00    +0.000 A 
ATOM     13  C   UNL     1       1.473   8.327  20.256  0.00  0.00    +0.000 A 
ATOM     14  C   UNL     1       1.495   9.069  19.085  0.00  0.00    +0.000 A 
ATOM     15  C   UNL     1       0.671  10.173  19.054  0.00  0.00    +0.000 A 
ATOM     16  N   UNL     1       0.937  11.386  18.341  0.00  0.00    +0.000 N 
ATOM     17  C   UNL     1      -0.081  12.361  18.965  0.00  0.00    +0.000 C 
ATOM     18  C   UNL     1       0.164  13.125  20.393  0.00  0.00    +0.000 C 
ATOM     19  C   UNL     1      -3.522  12.716  21.960  0.00  0.00    +0.000 C 
ATOM     20  O   UNL     1      -4.632  12.276  21.658  0.00  0.00    +0.000 OA
ATOM     21  H   UNL     1       0.628  11.168  17.383  0.00  0.00    +0.000 HD
ENDROOT
BRANCH  18  22
ATOM     22  C   UNL     1       0.943  14.409  20.107  0.00  0.00    +0.000 A 
ATOM     23  C   UNL     1       0.252  15.490  19.519  0.00  0.00    +0.000 A 
ATOM     24  C   UNL     1       0.865  16.727  19.331  0.00  0.00    +0.000 A 
ATOM     25  C   UNL     1       2.167  16.868  19.753  0.00  0.00    +0.000 A 
ATOM     26  C   UNL     1       2.873  15.814  20.286  0.00  0.00    +0.000 A 
ATOM     27  C   UNL     1       2.301  14.565  20.462  0.00  0.00    +0.000 A 
ATOM     28  O   UNL     1       4.144  16.166  20.633  0.00  0.00    +0.000 OA
ATOM     29  C   UNL     1       4.133  17.574  20.310  0.00  0.00    +0.000 C 
ATOM     30  O   UNL     1       2.900  18.015  19.708  0.00  0.00    +0.000 OA
ENDBRANCH  18  22
TORSDOF 1
ENDMDL
MODEL 7
REMARK VINA RESULT:      -7.1      7.293      9.623
REMARK  Name = 
REMARK  2 active torsions:
REMARK  status: ('A' for Active; 'I' for Inactive)
REMARK    1  A    between atoms: C_1  and  N_2
REMARK    2  A    between atoms: C_18  and  C_19
REMARK                            x       y       z     vdW  Elec       q    Type
REMARK                         _______ _______ _______ _____ _____    ______ ____
ROOT
ATOM      1  C   UNL     1       7.447  18.584  20.406  0.00  0.00    +0.000 C 
ATOM      2  N   UNL     1       7.736  17.351  21.100  0.00  0.00    +0.000 N 
ATOM      3  C   UNL     1       6.811  16.827  22.100  0.00  0.00    +0.000 C 
ATOM      4  C   UNL     1       6.806  15.283  22.248  0.00  0.00    +0.000 C 
ATOM      5  O   UNL     1       5.763  14.685  22.544  0.00  0.00    +0.000 OA
ATOM      6  N   UNL     1       8.090  14.652  22.181  0.00  0.00    +0.000 N 
ATOM      7  C   UNL     1       8.993  15.348  21.254  0.00  0.00    +0.000 C 
ATOM      8  C   UNL     1      10.381  14.773  21.282  0.00  0.00    +0.000 C 
ATOM      9  C   UNL     1      10.334  13.307  20.962  0.00  0.00    +0.000 C 
ATOM     10  C   UNL     1       9.666  12.747  19.714  0.00  0.00    +0.000 A 
ATOM     11  C   UNL     1       8.850  13.191  18.690  0.00  0.00    +0.000 A 
ATOM     12  C   UNL     1       8.359  12.257  17.758  0.00  0.00    +0.000 A 
ATOM     13  C   UNL     1       8.791  10.925  17.783  0.00  0.00    +0.000 A 
ATOM     14  C   UNL     1       9.505  10.467  18.879  0.00  0.00    +0.000 A 
ATOM     15  C   UNL     1       9.691  11.372  19.901  0.00  0.00    +0.000 A 
ATOM     16  N   UNL     1       9.782  11.045  21.292  0.00  0.00    +0.000 N 
ATOM     17  C   UNL     1       9.594  12.420  21.964  0.00  0.00    +0.000 C 
ATOM     18  C   UNL     1       8.127  13.110  22.203  0.00  0.00    +0.000 C 
ATOM     19  C   UNL     1       9.042  16.892  21.168  0.00  0.00    +0.000 C 
ATOM     20  O   UNL     1      10.012  17.566  20.822  0.00  0.00    +0.000 OA
ATOM     21  H   UNL     1      10.767  10.764  21.404  0.00  0.00    +0.000 HD
ENDROOT
BRANCH  18  22
ATOM     22  C   UNL     1       7.579  12.589  23.533  0.00  0.00    +0.000 A 
ATOM     23  C   UNL     1       8.171  13.057  24.726  0.00  0.00    +0.000 A 
ATOM     24  C   UNL     1       7.655  12.715  25.974  0.00  0.00    +0.000 A 
ATOM     25  C   UNL     1       6.535  11.916  26.008  0.00  0.00    +0.000 A 
ATOM     26  C   UNL     1       5.971  11.412  24.859  0.00  0.00    +0.000 A 
ATOM     27  C   UNL     1       6.475  11.712  23.604  0.00  0.00    +0.000 A 
ATOM     28  O   UNL     1       4.876  10.641  25.116  0.00  0.00    +0.000 OA
ATOM     29  C   UNL     1       4.786  10.768  26.551  0.00  0.00    +0.000 C 
ATOM     30  O   UNL     1       5.861  11.536  27.128  0.00  0.00    +0.000 OA
ENDBRANCH  18  22
TORSDOF 1
ENDMDL
MODEL 8
REMARK VINA RESULT:      -7.1      2.686      6.710
REMARK  Name = 
REMARK  2 active torsions:
REMARK  status: ('A' for Active; 'I' for Inactive)
REMARK    1  A    between atoms: C_1  and  N_2
REMARK    2  A    between atoms: C_18  and  C_19
REMARK                            x       y       z     vdW  Elec       q    Type
REMARK                         _______ _______ _______ _____ _____    ______ ____
ROOT
ATOM      1  C   UNL     1       1.859   7.796  20.283  0.00  0.00    +0.000 C 
ATOM      2  N   UNL     1       1.003   8.948  20.453  0.00  0.00    +0.000 N 
ATOM      3  C   UNL     1       0.083   9.029  21.583  0.00  0.00    +0.000 C 
ATOM      4  C   UNL     1      -0.230  10.466  22.075  0.00  0.00    +0.000 C 
ATOM      5  O   UNL     1      -0.449  10.684  23.274  0.00  0.00    +0.000 OA
ATOM      6  N   UNL     1      -0.401  11.448  21.047  0.00  0.00    +0.000 N 
ATOM      7  C   UNL     1       0.468  11.187  19.892  0.00  0.00    +0.000 C 
ATOM      8  C   UNL     1       0.196  12.134  18.757  0.00  0.00    +0.000 C 
ATOM      9  C   UNL     1       0.358  13.552  19.222  0.00  0.00    +0.000 C 
ATOM     10  C   UNL     1       1.615  14.064  19.911  0.00  0.00    +0.000 A 
ATOM     11  C   UNL     1       2.781  13.552  20.452  0.00  0.00    +0.000 A 
ATOM     12  C   UNL     1       3.663  14.424  21.118  0.00  0.00    +0.000 A 
ATOM     13  C   UNL     1       3.436  15.806  21.120  0.00  0.00    +0.000 A 
ATOM     14  C   UNL     1       2.212  16.292  20.687  0.00  0.00    +0.000 A 
ATOM     15  C   UNL     1       1.279  15.344  20.327  0.00  0.00    +0.000 A 
ATOM     16  N   UNL     1      -0.139  15.481  20.470  0.00  0.00    +0.000 N 
ATOM     17  C   UNL     1      -0.627  14.030  20.289  0.00  0.00    +0.000 C 
ATOM     18  C   UNL     1      -0.595  12.914  21.488  0.00  0.00    +0.000 C 
ATOM     19  C   UNL     1       0.714   9.754  19.364  0.00  0.00    +0.000 C 
ATOM     20  O   UNL     1       1.000   9.451  18.205  0.00  0.00    +0.000 OA
ATOM     21  H   UNL     1      -0.409  16.019  19.634  0.00  0.00    +0.000 HD
ENDROOT
BRANCH  18  22
ATOM     22  C   UNL     1      -1.889  13.056  22.290  0.00  0.00    +0.000 A 
ATOM     23  C   UNL     1      -1.853  13.807  23.486  0.00  0.00    +0.000 A 
ATOM     24  C   UNL     1      -3.012  14.073  24.211  0.00  0.00    +0.000 A 
ATOM     25  C   UNL     1      -4.202  13.591  23.716  0.00  0.00    +0.000 A 
ATOM     26  C   UNL     1      -4.253  12.819  22.579  0.00  0.00    +0.000 A 
ATOM     27  C   UNL     1      -3.116  12.515  21.849  0.00  0.00    +0.000 A 
ATOM     28  O   UNL     1      -5.526  12.442  22.267  0.00  0.00    +0.000 OA
ATOM     29  C   UNL     1      -6.270  13.116  23.305  0.00  0.00    +0.000 C 
ATOM     30  O   UNL     1      -5.434  13.807  24.255  0.00  0.00    +0.000 OA
ENDBRANCH  18  22
TORSDOF 1
ENDMDL
MODEL 9
REMARK VINA RESULT:      -7.1      0.998      1.107
REMARK  Name = 
REMARK  2 active torsions:
REMARK  status: ('A' for Active; 'I' for Inactive)
REMARK    1  A    between atoms: C_1  and  N_2
REMARK    2  A    between atoms: C_18  and  C_19
REMARK                            x       y       z     vdW  Elec       q    Type
REMARK                         _______ _______ _______ _____ _____    ______ ____
ROOT
ATOM      1  C   UNL     1      -2.845  14.869  24.915  0.00  0.00    +0.000 C 
ATOM      2  N   UNL     1      -2.119  14.695  23.679  0.00  0.00    +0.000 N 
ATOM      3  C   UNL     1      -0.967  15.536  23.370  0.00  0.00    +0.000 C 
ATOM      4  C   UNL     1       0.111  14.872  22.474  0.00  0.00    +0.000 C 
ATOM      5  O   UNL     1       1.307  15.158  22.618  0.00  0.00    +0.000 OA
ATOM      6  N   UNL     1      -0.388  14.063  21.403  0.00  0.00    +0.000 N 
ATOM      7  C   UNL     1      -1.633  13.375  21.772  0.00  0.00    +0.000 C 
ATOM      8  C   UNL     1      -2.232  12.634  20.610  0.00  0.00    +0.000 C 
ATOM      9  C   UNL     1      -1.237  11.653  20.060  0.00  0.00    +0.000 C 
ATOM     10  C   UNL     1      -0.537  10.608  20.916  0.00  0.00    +0.000 A 
ATOM     11  C   UNL     1      -0.388  10.299  22.256  0.00  0.00    +0.000 A 
ATOM     12  C   UNL     1       0.482   9.253  22.620  0.00  0.00    +0.000 A 
ATOM     13  C   UNL     1       1.086   8.452  21.644  0.00  0.00    +0.000 A 
ATOM     14  C   UNL     1       1.030   8.845  20.316  0.00  0.00    +0.000 A 
ATOM     15  C   UNL     1       0.410  10.051  20.068  0.00  0.00    +0.000 A 
ATOM     16  N   UNL     1       0.749  10.956  19.012  0.00  0.00    +0.000 N 
ATOM     17  C   UNL     1       0.031  12.249  19.447  0.00  0.00    +0.000 C 
ATOM     18  C   UNL     1       0.643  13.286  20.558  0.00  0.00    +0.000 C 
ATOM     19  C   UNL     1      -2.734  14.073  22.604  0.00  0.00    +0.000 C 
ATOM     20  O   UNL     1      -3.937  13.811  22.574  0.00  0.00    +0.000 OA
ATOM     21  H   UNL     1       0.247  10.567  18.200  0.00  0.00    +0.000 HD
ENDROOT
BRANCH  18  22
ATOM     22  C   UNL     1       1.565  14.262  19.825  0.00  0.00    +0.000 A 
ATOM     23  C   UNL     1       0.979  15.358  19.156  0.00  0.00    +0.000 A 
ATOM     24  C   UNL     1       1.759  16.347  18.562  0.00  0.00    +0.000 A 
ATOM     25  C   UNL     1       3.126  16.231  18.662  0.00  0.00    +0.000 A 
ATOM     26  C   UNL     1       3.718  15.148  19.269  0.00  0.00    +0.000 A 
ATOM     27  C   UNL     1       2.971  14.134  19.846  0.00  0.00    +0.000 A 
ATOM     28  O   UNL     1       5.080  15.226  19.254  0.00  0.00    +0.000 OA
ATOM     29  C   UNL     1       5.270  16.510  18.620  0.00  0.00    +0.000 C 
ATOM     30  O   UNL     1       4.038  17.131  18.200  0.00  0.00    +0.000 OA
ENDBRANCH  18  22
TORSDOF 1
ENDMDL
