MODEL 1
REMARK VINA RESULT:      -7.0      0.000      0.000
REMARK  Name = 
REMARK  9 active torsions:
REMARK  status: ('A' for Active; 'I' for Inactive)
REMARK    1  A    between atoms: C_1  and  C_2
REMARK    2  A    between atoms: C_2  and  N_3
REMARK    3  A    between atoms: N_3  and  C_4
REMARK    4  A    between atoms: C_4  and  C_5
REMARK    5  A    between atoms: C_6  and  C_8
REMARK    6  A    between atoms: C_10  and  N_11
REMARK    7  A    between atoms: C_12  and  C_14
REMARK    8  A    between atoms: C_19  and  C_20
REMARK    9  A    between atoms: C_22  and  C_23
REMARK                            x       y       z     vdW  Elec       q    Type
REMARK                         _______ _______ _______ _____ _____    ______ ____
ROOT
ATOM      1  C   UNL     1       4.158   4.465  18.262  0.00  0.00    +0.000 A 
ATOM      2  S   UNL     1       3.294   5.948  18.382  0.00  0.00    +0.000 S 
ATOM      3  C   UNL     1       2.739   5.587  19.942  0.00  0.00    +0.000 A 
ATOM      4  C   UNL     1       2.915   4.257  20.247  0.00  0.00    +0.000 A 
ATOM      5  C   UNL     1       3.777   3.598  19.292  0.00  0.00    +0.000 A 
ATOM      6  C   UNL     1       4.180   2.155  19.381  0.00  0.00    +0.000 C 
ENDROOT
BRANCH   3   7
ATOM      7  N   UNL     1       2.170   6.661  20.590  0.00  0.00    +0.000 N 
ATOM      8  C   UNL     1       1.821   7.817  19.911  0.00  0.00    +0.000 C 
ATOM      9  O   UNL     1       2.033   7.987  18.716  0.00  0.00    +0.000 OA
ATOM     10  H   UNL     1       1.674   6.477  21.456  0.00  0.00    +0.000 HD
BRANCH   8  11
ATOM     11  C   UNL     1       1.082   8.807  20.705  0.00  0.00    +0.000 A 
ATOM     12  C   UNL     1       0.976   8.845  22.084  0.00  0.00    +0.000 A 
ATOM     13  C   UNL     1       0.214   9.962  22.546  0.00  0.00    +0.000 A 
ATOM     14  C   UNL     1      -0.241  10.740  21.509  0.00  0.00    +0.000 A 
ATOM     15  S   UNL     1       0.244  10.121  19.988  0.00  0.00    +0.000 S 
ENDBRANCH   8  11
ENDBRANCH   3   7
BRANCH   1  17
ATOM     16  N   UNL     1       6.370   4.437  17.073  0.00  0.00    +0.000 N 
ATOM     17  C   UNL     1       4.980   4.146  17.083  0.00  0.00    +0.000 C 
ATOM     18  O   UNL     1       4.464   3.599  16.108  0.00  0.00    +0.000 OA
BRANCH  16  20
ATOM     19  C   UNL     1       6.748   5.357  14.777  0.00  0.00    +0.000 C 
ATOM     20  C   UNL     1       7.074   4.273  15.795  0.00  0.00    +0.000 C 
ENDBRANCH  16  20
BRANCH  16  21
ATOM     21  C   UNL     1       7.072   4.978  18.240  0.00  0.00    +0.000 C 
ATOM     22  C   UNL     1       7.496   6.440  18.245  0.00  0.00    +0.000 C 
ENDBRANCH  16  21
ENDBRANCH   1  17
BRANCH   4  23
ATOM     23  C   UNL     1       2.233   3.590  21.322  0.00  0.00    +0.000 C 
ATOM     24  N   UNL     1       1.723   2.962  22.156  0.00  0.00    +0.000 NA
ENDBRANCH   4  23
TORSDOF 6
ENDMDL
MODEL 2
REMARK VINA RESULT:      -6.8      2.682      3.750
REMARK  Name = 
REMARK  9 active torsions:
REMARK  status: ('A' for Active; 'I' for Inactive)
REMARK    1  A    between atoms: C_1  and  C_2
REMARK    2  A    between atoms: C_2  and  N_3
REMARK    3  A    between atoms: N_3  and  C_4
REMARK    4  A    between atoms: C_4  and  C_5
REMARK    5  A    between atoms: C_6  and  C_8
REMARK    6  A    between atoms: C_10  and  N_11
REMARK    7  A    between atoms: C_12  and  C_14
REMARK    8  A    between atoms: C_19  and  C_20
REMARK    9  A    between atoms: C_22  and  C_23
REMARK                            x       y       z     vdW  Elec       q    Type
REMARK                         _______ _______ _______ _____ _____    ______ ____
ROOT
ATOM      1  C   UNL     1       2.518   6.458  18.518  0.00  0.00    +0.000 A 
ATOM      2  S   UNL     1       2.150   7.899  17.651  0.00  0.00    +0.000 S 
ATOM      3  C   UNL     1       1.861   8.771  19.074  0.00  0.00    +0.000 A 
ATOM      4  C   UNL     1       1.718   7.938  20.160  0.00  0.00    +0.000 A 
ATOM      5  C   UNL     1       2.137   6.588  19.857  0.00  0.00    +0.000 A 
ATOM      6  C   UNL     1       2.129   5.465  20.851  0.00  0.00    +0.000 C 
ENDROOT
BRANCH   3   7
ATOM      7  N   UNL     1       1.768  10.132  18.881  0.00  0.00    +0.000 N 
ATOM      8  C   UNL     1       0.540  10.771  18.798  0.00  0.00    +0.000 C 
ATOM      9  O   UNL     1      -0.531  10.179  18.840  0.00  0.00    +0.000 OA
ATOM     10  H   UNL     1       2.556  10.702  19.168  0.00  0.00    +0.000 HD
BRANCH   8  11
ATOM     11  C   UNL     1       0.603  12.238  18.751  0.00  0.00    +0.000 A 
ATOM     12  C   UNL     1      -0.464  13.104  18.591  0.00  0.00    +0.000 A 
ATOM     13  C   UNL     1      -0.067  14.476  18.626  0.00  0.00    +0.000 A 
ATOM     14  C   UNL     1       1.287  14.616  18.808  0.00  0.00    +0.000 A 
ATOM     15  S   UNL     1       2.074  13.101  18.929  0.00  0.00    +0.000 S 
ENDBRANCH   8  11
ENDBRANCH   3   7
BRANCH   1  17
ATOM     16  N   UNL     1       4.325   4.978  17.596  0.00  0.00    +0.000 N 
ATOM     17  C   UNL     1       2.947   5.232  17.825  0.00  0.00    +0.000 C 
ATOM     18  O   UNL     1       2.107   4.407  17.464  0.00  0.00    +0.000 OA
BRANCH  16  20
ATOM     19  C   UNL     1       5.660   4.179  15.636  0.00  0.00    +0.000 C 
ATOM     20  C   UNL     1       4.657   3.840  16.729  0.00  0.00    +0.000 C 
ENDBRANCH  16  20
BRANCH  16  21
ATOM     21  C   UNL     1       5.385   5.857  18.100  0.00  0.00    +0.000 C 
ATOM     22  C   UNL     1       6.274   5.378  19.238  0.00  0.00    +0.000 C 
ENDBRANCH  16  21
ENDBRANCH   1  17
BRANCH   4  23
ATOM     23  C   UNL     1       1.121   8.345  21.403  0.00  0.00    +0.000 C 
ATOM     24  N   UNL     1       0.635   8.770  22.367  0.00  0.00    +0.000 NA
ENDBRANCH   4  23
TORSDOF 6
ENDMDL
MODEL 3
REMARK VINA RESULT:      -6.8      3.290      6.493
REMARK  Name = 
REMARK  9 active torsions:
REMARK  status: ('A' for Active; 'I' for Inactive)
REMARK    1  A    between atoms: C_1  and  C_2
REMARK    2  A    between atoms: C_2  and  N_3
REMARK    3  A    between atoms: N_3  and  C_4
REMARK    4  A    between atoms: C_4  and  C_5
REMARK    5  A    between atoms: C_6  and  C_8
REMARK    6  A    between atoms: C_10  and  N_11
REMARK    7  A    between atoms: C_12  and  C_14
REMARK    8  A    between atoms: C_19  and  C_20
REMARK    9  A    between atoms: C_22  and  C_23
REMARK                            x       y       z     vdW  Elec       q    Type
REMARK                         _______ _______ _______ _____ _____    ______ ____
ROOT
ATOM      1  C   UNL     1       5.379   4.343  18.532  0.00  0.00    +0.000 A 
ATOM      2  S   UNL     1       6.499   5.333  19.384  0.00  0.00    +0.000 S 
ATOM      3  C   UNL     1       7.063   6.054  17.959  0.00  0.00    +0.000 A 
ATOM      4  C   UNL     1       6.670   5.350  16.844  0.00  0.00    +0.000 A 
ATOM      5  C   UNL     1       5.654   4.371  17.161  0.00  0.00    +0.000 A 
ATOM      6  C   UNL     1       5.006   3.476  16.146  0.00  0.00    +0.000 C 
ENDROOT
BRANCH   3   7
ATOM      7  N   UNL     1       7.848   7.166  18.173  0.00  0.00    +0.000 N 
ATOM      8  C   UNL     1       7.482   8.415  17.698  0.00  0.00    +0.000 C 
ATOM      9  O   UNL     1       6.478   8.612  17.023  0.00  0.00    +0.000 OA
ATOM     10  H   UNL     1       8.476   7.150  18.970  0.00  0.00    +0.000 HD
BRANCH   8  11
ATOM     11  C   UNL     1       8.336   9.525  18.141  0.00  0.00    +0.000 A 
ATOM     12  C   UNL     1       9.290   9.483  19.143  0.00  0.00    +0.000 A 
ATOM     13  C   UNL     1       9.975  10.727  19.301  0.00  0.00    +0.000 A 
ATOM     14  C   UNL     1       9.524  11.679  18.420  0.00  0.00    +0.000 A 
ATOM     15  S   UNL     1       8.277  11.078  17.414  0.00  0.00    +0.000 S 
ENDBRANCH   8  11
ENDBRANCH   3   7
BRANCH   1  17
ATOM     16  N   UNL     1       3.065   3.743  19.301  0.00  0.00    +0.000 N 
ATOM     17  C   UNL     1       4.452   3.445  19.240  0.00  0.00    +0.000 C 
ATOM     18  O   UNL     1       4.878   2.413  19.761  0.00  0.00    +0.000 OA
BRANCH  16  20
ATOM     19  C   UNL     1       2.166   3.434  21.616  0.00  0.00    +0.000 C 
ATOM     20  C   UNL     1       2.244   2.909  20.190  0.00  0.00    +0.000 C 
ENDBRANCH  16  20
BRANCH  16  21
ATOM     21  C   UNL     1       2.472   4.889  18.606  0.00  0.00    +0.000 C 
ATOM     22  C   UNL     1       2.525   6.265  19.254  0.00  0.00    +0.000 C 
ENDBRANCH  16  21
ENDBRANCH   1  17
BRANCH   4  23
ATOM     23  C   UNL     1       7.278   5.501  15.551  0.00  0.00    +0.000 C 
ATOM     24  N   UNL     1       7.848   5.565  14.541  0.00  0.00    +0.000 NA
ENDBRANCH   4  23
TORSDOF 6
ENDMDL
MODEL 4
REMARK VINA RESULT:      -6.7      3.448      6.685
REMARK  Name = 
REMARK  9 active torsions:
REMARK  status: ('A' for Active; 'I' for Inactive)
REMARK    1  A    between atoms: C_1  and  C_2
REMARK    2  A    between atoms: C_2  and  N_3
REMARK    3  A    between atoms: N_3  and  C_4
REMARK    4  A    between atoms: C_4  and  C_5
REMARK    5  A    between atoms: C_6  and  C_8
REMARK    6  A    between atoms: C_10  and  N_11
REMARK    7  A    between atoms: C_12  and  C_14
REMARK    8  A    between atoms: C_19  and  C_20
REMARK    9  A    between atoms: C_22  and  C_23
REMARK                            x       y       z     vdW  Elec       q    Type
REMARK                         _______ _______ _______ _____ _____    ______ ____
ROOT
ATOM      1  C   UNL     1       5.540   4.582  18.791  0.00  0.00    +0.000 A 
ATOM      2  S   UNL     1       6.744   5.536  19.566  0.00  0.00    +0.000 S 
ATOM      3  C   UNL     1       7.277   6.192  18.098  0.00  0.00    +0.000 A 
ATOM      4  C   UNL     1       6.801   5.480  17.021  0.00  0.00    +0.000 A 
ATOM      5  C   UNL     1       5.754   4.561  17.409  0.00  0.00    +0.000 A 
ATOM      6  C   UNL     1       5.018   3.675  16.448  0.00  0.00    +0.000 C 
ENDROOT
BRANCH   3   7
ATOM      7  N   UNL     1       8.125   7.268  18.247  0.00  0.00    +0.000 N 
ATOM      8  C   UNL     1       7.765   8.538  17.826  0.00  0.00    +0.000 C 
ATOM      9  O   UNL     1       6.709   8.786  17.256  0.00  0.00    +0.000 OA
ATOM     10  H   UNL     1       8.826   7.214  18.977  0.00  0.00    +0.000 HD
BRANCH   8  11
ATOM     11  C   UNL     1       8.703   9.606  18.196  0.00  0.00    +0.000 A 
ATOM     12  C   UNL     1       9.322  10.495  17.334  0.00  0.00    +0.000 A 
ATOM     13  C   UNL     1      10.150  11.437  18.019  0.00  0.00    +0.000 A 
ATOM     14  C   UNL     1      10.141  11.238  19.378  0.00  0.00    +0.000 A 
ATOM     15  S   UNL     1       9.146   9.919  19.823  0.00  0.00    +0.000 S 
ENDBRANCH   8  11
ENDBRANCH   3   7
BRANCH   1  17
ATOM     16  N   UNL     1       3.329   4.254  19.935  0.00  0.00    +0.000 N 
ATOM     17  C   UNL     1       4.603   3.750  19.563  0.00  0.00    +0.000 C 
ATOM     18  O   UNL     1       4.914   2.597  19.866  0.00  0.00    +0.000 OA
BRANCH  16  20
ATOM     19  C   UNL     1       1.404   2.677  20.200  0.00  0.00    +0.000 C 
ATOM     20  C   UNL     1       2.538   3.440  20.868  0.00  0.00    +0.000 C 
ENDBRANCH  16  20
BRANCH  16  21
ATOM     21  C   UNL     1       2.845   5.570  19.509  0.00  0.00    +0.000 C 
ATOM     22  C   UNL     1       2.230   5.729  18.126  0.00  0.00    +0.000 C 
ENDBRANCH  16  21
ENDBRANCH   1  17
BRANCH   4  23
ATOM     23  C   UNL     1       7.357   5.568  15.699  0.00  0.00    +0.000 C 
ATOM     24  N   UNL     1       7.784   5.538  14.620  0.00  0.00    +0.000 NA
ENDBRANCH   4  23
TORSDOF 6
ENDMDL
MODEL 5
REMARK VINA RESULT:      -6.7      2.821      4.698
REMARK  Name = 
REMARK  9 active torsions:
REMARK  status: ('A' for Active; 'I' for Inactive)
REMARK    1  A    between atoms: C_1  and  C_2
REMARK    2  A    between atoms: C_2  and  N_3
REMARK    3  A    between atoms: N_3  and  C_4
REMARK    4  A    between atoms: C_4  and  C_5
REMARK    5  A    between atoms: C_6  and  C_8
REMARK    6  A    between atoms: C_10  and  N_11
REMARK    7  A    between atoms: C_12  and  C_14
REMARK    8  A    between atoms: C_19  and  C_20
REMARK    9  A    between atoms: C_22  and  C_23
REMARK                            x       y       z     vdW  Elec       q    Type
REMARK                         _______ _______ _______ _____ _____    ______ ____
ROOT
ATOM      1  C   UNL     1       2.721   6.378  19.486  0.00  0.00    +0.000 A 
ATOM      2  S   UNL     1       1.803   7.019  20.793  0.00  0.00    +0.000 S 
ATOM      3  C   UNL     1       1.326   8.373  19.893  0.00  0.00    +0.000 A 
ATOM      4  C   UNL     1       2.089   8.522  18.757  0.00  0.00    +0.000 A 
ATOM      5  C   UNL     1       2.880   7.343  18.486  0.00  0.00    +0.000 A 
ATOM      6  C   UNL     1       3.785   7.195  17.299  0.00  0.00    +0.000 C 
ENDROOT
BRANCH   3   7
ATOM      7  N   UNL     1       0.314   9.100  20.480  0.00  0.00    +0.000 N 
ATOM      8  C   UNL     1       0.572  10.036  21.469  0.00  0.00    +0.000 C 
ATOM      9  O   UNL     1       1.691  10.247  21.921  0.00  0.00    +0.000 OA
ATOM     10  H   UNL     1      -0.542   9.227  19.949  0.00  0.00    +0.000 HD
BRANCH   8  11
ATOM     11  C   UNL     1      -0.585  10.841  21.882  0.00  0.00    +0.000 A 
ATOM     12  C   UNL     1      -1.188  10.839  23.128  0.00  0.00    +0.000 A 
ATOM     13  C   UNL     1      -2.270  11.768  23.214  0.00  0.00    +0.000 A 
ATOM     14  C   UNL     1      -2.463  12.447  22.036  0.00  0.00    +0.000 A 
ATOM     15  S   UNL     1      -1.349  11.961  20.831  0.00  0.00    +0.000 S 
ENDBRANCH   8  11
ENDBRANCH   3   7
BRANCH   1  17
ATOM     16  N   UNL     1       2.736   3.882  19.207  0.00  0.00    +0.000 N 
ATOM     17  C   UNL     1       3.401   5.076  19.590  0.00  0.00    +0.000 C 
ATOM     18  O   UNL     1       4.567   5.026  19.986  0.00  0.00    +0.000 OA
BRANCH  16  20
ATOM     19  C   UNL     1       3.752   1.782  18.301  0.00  0.00    +0.000 C 
ATOM     20  C   UNL     1       3.408   2.615  19.527  0.00  0.00    +0.000 C 
ENDBRANCH  16  20
BRANCH  16  21
ATOM     21  C   UNL     1       1.394   3.879  18.618  0.00  0.00    +0.000 C 
ATOM     22  C   UNL     1       0.474   2.692  18.862  0.00  0.00    +0.000 C 
ENDBRANCH  16  21
ENDBRANCH   1  17
BRANCH   4  23
ATOM     23  C   UNL     1       2.164   9.743  18.002  0.00  0.00    +0.000 C 
ATOM     24  N   UNL     1       2.135  10.756  17.437  0.00  0.00    +0.000 NA
ENDBRANCH   4  23
TORSDOF 6
ENDMDL
MODEL 6
REMARK VINA RESULT:      -6.6      1.355      1.393
REMARK  Name = 
REMARK  9 active torsions:
REMARK  status: ('A' for Active; 'I' for Inactive)
REMARK    1  A    between atoms: C_1  and  C_2
REMARK    2  A    between atoms: C_2  and  N_3
REMARK    3  A    between atoms: N_3  and  C_4
REMARK    4  A    between atoms: C_4  and  C_5
REMARK    5  A    between atoms: C_6  and  C_8
REMARK    6  A    between atoms: C_10  and  N_11
REMARK    7  A    between atoms: C_12  and  C_14
REMARK    8  A    between atoms: C_19  and  C_20
REMARK    9  A    between atoms: C_22  and  C_23
REMARK                            x       y       z     vdW  Elec       q    Type
REMARK                         _______ _______ _______ _____ _____    ______ ____
ROOT
ATOM      1  C   UNL     1       4.197   5.760  17.462  0.00  0.00    +0.000 A 
ATOM      2  S   UNL     1       3.552   7.253  18.022  0.00  0.00    +0.000 S 
ATOM      3  C   UNL     1       2.635   6.493  19.227  0.00  0.00    +0.000 A 
ATOM      4  C   UNL     1       2.547   5.136  19.017  0.00  0.00    +0.000 A 
ATOM      5  C   UNL     1       3.486   4.689  18.013  0.00  0.00    +0.000 A 
ATOM      6  C   UNL     1       3.647   3.257  17.594  0.00  0.00    +0.000 C 
ENDROOT
BRANCH   3   7
ATOM      7  N   UNL     1       2.105   7.365  20.153  0.00  0.00    +0.000 N 
ATOM      8  C   UNL     1       1.435   8.515  19.767  0.00  0.00    +0.000 C 
ATOM      9  O   UNL     1       1.310   8.862  18.599  0.00  0.00    +0.000 OA
ATOM     10  H   UNL     1       1.877   6.993  21.069  0.00  0.00    +0.000 HD
BRANCH   8  11
ATOM     11  C   UNL     1       0.790   9.257  20.859  0.00  0.00    +0.000 A 
ATOM     12  C   UNL     1       0.639   8.832  22.167  0.00  0.00    +0.000 A 
ATOM     13  C   UNL     1      -0.001   9.809  22.990  0.00  0.00    +0.000 A 
ATOM     14  C   UNL     1      -0.320  10.946  22.288  0.00  0.00    +0.000 A 
ATOM     15  S   UNL     1       0.143  10.831  20.644  0.00  0.00    +0.000 S 
ENDBRANCH   8  11
ENDBRANCH   3   7
BRANCH   1  17
ATOM     16  N   UNL     1       6.515   5.261  16.636  0.00  0.00    +0.000 N 
ATOM     17  C   UNL     1       5.193   5.710  16.380  0.00  0.00    +0.000 C 
ATOM     18  O   UNL     1       4.871   6.035  15.236  0.00  0.00    +0.000 OA
BRANCH  16  20
ATOM     19  C   UNL     1       7.198   4.585  14.325  0.00  0.00    +0.000 C 
ATOM     20  C   UNL     1       7.496   5.429  15.556  0.00  0.00    +0.000 C 
ENDBRANCH  16  20
BRANCH  16  21
ATOM     21  C   UNL     1       6.936   4.749  17.944  0.00  0.00    +0.000 C 
ATOM     22  C   UNL     1       7.669   5.672  18.906  0.00  0.00    +0.000 C 
ENDBRANCH  16  21
ENDBRANCH   1  17
BRANCH   4  23
ATOM     23  C   UNL     1       1.565   4.295  19.645  0.00  0.00    +0.000 C 
ATOM     24  N   UNL     1       0.701   3.662  20.092  0.00  0.00    +0.000 NA
ENDBRANCH   4  23
TORSDOF 6
ENDMDL
MODEL 7
REMARK VINA RESULT:      -6.5      1.350      1.581
REMARK  Name = 
REMARK  9 active torsions:
REMARK  status: ('A' for Active; 'I' for Inactive)
REMARK    1  A    between atoms: C_1  and  C_2
REMARK    2  A    between atoms: C_2  and  N_3
REMARK    3  A    between atoms: N_3  and  C_4
REMARK    4  A    between atoms: C_4  and  C_5
REMARK    5  A    between atoms: C_6  and  C_8
REMARK    6  A    between atoms: C_10  and  N_11
REMARK    7  A    between atoms: C_12  and  C_14
REMARK    8  A    between atoms: C_19  and  C_20
REMARK    9  A    between atoms: C_22  and  C_23
REMARK                            x       y       z     vdW  Elec       q    Type
REMARK                         _______ _______ _______ _____ _____    ______ ____
ROOT
ATOM      1  C   UNL     1       4.688   4.871  18.708  0.00  0.00    +0.000 A 
ATOM      2  S   UNL     1       4.136   6.456  19.088  0.00  0.00    +0.000 S 
ATOM      3  C   UNL     1       2.785   5.867  19.924  0.00  0.00    +0.000 A 
ATOM      4  C   UNL     1       2.562   4.536  19.654  0.00  0.00    +0.000 A 
ATOM      5  C   UNL     1       3.687   3.932  18.977  0.00  0.00    +0.000 A 
ATOM      6  C   UNL     1       3.751   2.486  18.583  0.00  0.00    +0.000 C 
ENDROOT
BRANCH   3   7
ATOM      7  N   UNL     1       2.132   6.826  20.667  0.00  0.00    +0.000 N 
ATOM      8  C   UNL     1       1.665   7.997  20.092  0.00  0.00    +0.000 C 
ATOM      9  O   UNL     1       1.839   8.285  18.914  0.00  0.00    +0.000 OA
ATOM     10  H   UNL     1       1.671   6.525  21.519  0.00  0.00    +0.000 HD
BRANCH   8  11
ATOM     11  C   UNL     1       0.853   8.844  20.975  0.00  0.00    +0.000 A 
ATOM     12  C   UNL     1       0.143   8.432  22.089  0.00  0.00    +0.000 A 
ATOM     13  C   UNL     1      -0.515   9.514  22.752  0.00  0.00    +0.000 A 
ATOM     14  C   UNL     1      -0.290  10.715  22.125  0.00  0.00    +0.000 A 
ATOM     15  S   UNL     1       0.701  10.537  20.741  0.00  0.00    +0.000 S 
ENDBRANCH   8  11
ENDBRANCH   3   7
BRANCH   1  17
ATOM     16  N   UNL     1       6.041   4.898  16.592  0.00  0.00    +0.000 N 
ATOM     17  C   UNL     1       5.952   4.649  17.987  0.00  0.00    +0.000 C 
ATOM     18  O   UNL     1       6.950   4.270  18.604  0.00  0.00    +0.000 OA
BRANCH  16  20
ATOM     19  C   UNL     1       7.175   4.501  14.397  0.00  0.00    +0.000 C 
ATOM     20  C   UNL     1       7.271   4.465  15.916  0.00  0.00    +0.000 C 
ENDBRANCH  16  20
BRANCH  16  21
ATOM     21  C   UNL     1       4.930   5.461  15.819  0.00  0.00    +0.000 C 
ATOM     22  C   UNL     1       4.876   6.961  15.571  0.00  0.00    +0.000 C 
ENDBRANCH  16  21
ENDBRANCH   1  17
BRANCH   4  23
ATOM     23  C   UNL     1       1.317   3.868  19.918  0.00  0.00    +0.000 C 
ATOM     24  N   UNL     1       0.365   3.264  20.194  0.00  0.00    +0.000 NA
ENDBRANCH   4  23
TORSDOF 6
ENDMDL
MODEL 8
REMARK VINA RESULT:      -6.4      1.091      1.251
REMARK  Name = 
REMARK  9 active torsions:
REMARK  status: ('A' for Active; 'I' for Inactive)
REMARK    1  A    between atoms: C_1  and  C_2
REMARK    2  A    between atoms: C_2  and  N_3
REMARK    3  A    between atoms: N_3  and  C_4
REMARK    4  A    between atoms: C_4  and  C_5
REMARK    5  A    between atoms: C_6  and  C_8
REMARK    6  A    between atoms: C_10  and  N_11
REMARK    7  A    between atoms: C_12  and  C_14
REMARK    8  A    between atoms: C_19  and  C_20
REMARK    9  A    between atoms: C_22  and  C_23
REMARK                            x       y       z     vdW  Elec       q    Type
REMARK                         _______ _______ _______ _____ _____    ______ ____
ROOT
ATOM      1  C   UNL     1       4.228   4.880  17.568  0.00  0.00    +0.000 A 
ATOM      2  S   UNL     1       3.718   6.508  17.791  0.00  0.00    +0.000 S 
ATOM      3  C   UNL     1       2.767   6.106  19.134  0.00  0.00    +0.000 A 
ATOM      4  C   UNL     1       2.565   4.748  19.224  0.00  0.00    +0.000 A 
ATOM      5  C   UNL     1       3.444   4.016  18.340  0.00  0.00    +0.000 A 
ATOM      6  C   UNL     1       3.479   2.520  18.242  0.00  0.00    +0.000 C 
ENDROOT
BRANCH   3   7
ATOM      7  N   UNL     1       2.327   7.199  19.849  0.00  0.00    +0.000 N 
ATOM      8  C   UNL     1       1.708   8.271  19.228  0.00  0.00    +0.000 C 
ATOM      9  O   UNL     1       1.553   8.350  18.015  0.00  0.00    +0.000 OA
ATOM     10  H   UNL     1       2.118   7.062  20.832  0.00  0.00    +0.000 HD
BRANCH   8  11
ATOM     11  C   UNL     1       1.155   9.284  20.137  0.00  0.00    +0.000 A 
ATOM     12  C   UNL     1       0.831  10.591  19.817  0.00  0.00    +0.000 A 
ATOM     13  C   UNL     1       0.278  11.305  20.924  0.00  0.00    +0.000 A 
ATOM     14  C   UNL     1       0.198  10.526  22.053  0.00  0.00    +0.000 A 
ATOM     15  S   UNL     1       0.794   8.945  21.780  0.00  0.00    +0.000 S 
ENDBRANCH   8  11
ENDBRANCH   3   7
BRANCH   1  17
ATOM     16  N   UNL     1       6.589   4.677  16.737  0.00  0.00    +0.000 N 
ATOM     17  C   UNL     1       5.196   4.513  16.520  0.00  0.00    +0.000 C 
ATOM     18  O   UNL     1       4.795   4.035  15.458  0.00  0.00    +0.000 OA
BRANCH  16  20
ATOM     19  C   UNL     1       7.154   5.398  14.407  0.00  0.00    +0.000 C 
ATOM     20  C   UNL     1       7.470   4.478  15.578  0.00  0.00    +0.000 C 
ENDBRANCH  16  20
BRANCH  16  21
ATOM     21  C   UNL     1       7.142   5.128  18.017  0.00  0.00    +0.000 C 
ATOM     22  C   UNL     1       7.631   6.563  18.155  0.00  0.00    +0.000 C 
ENDBRANCH  16  21
ENDBRANCH   1  17
BRANCH   4  23
ATOM     23  C   UNL     1       1.530   4.148  20.021  0.00  0.00    +0.000 C 
ATOM     24  N   UNL     1       0.769   3.611  20.714  0.00  0.00    +0.000 NA
ENDBRANCH   4  23
TORSDOF 6
ENDMDL
MODEL 9
REMARK VINA RESULT:      -6.3      2.747      7.720
REMARK  Name = 
REMARK  9 active torsions:
REMARK  status: ('A' for Active; 'I' for Inactive)
REMARK    1  A    between atoms: C_1  and  C_2
REMARK    2  A    between atoms: C_2  and  N_3
REMARK    3  A    between atoms: N_3  and  C_4
REMARK    4  A    between atoms: C_4  and  C_5
REMARK    5  A    between atoms: C_6  and  C_8
REMARK    6  A    between atoms: C_10  and  N_11
REMARK    7  A    between atoms: C_12  and  C_14
REMARK    8  A    between atoms: C_19  and  C_20
REMARK    9  A    between atoms: C_22  and  C_23
REMARK                            x       y       z     vdW  Elec       q    Type
REMARK                         _______ _______ _______ _____ _____    ______ ____
ROOT
ATOM      1  C   UNL     1       1.231   9.313  19.458  0.00  0.00    +0.000 A 
ATOM      2  S   UNL     1       2.359   9.085  18.179  0.00  0.00    +0.000 S 
ATOM      3  C   UNL     1       2.494   7.425  18.491  0.00  0.00    +0.000 A 
ATOM      4  C   UNL     1       1.971   7.097  19.721  0.00  0.00    +0.000 A 
ATOM      5  C   UNL     1       1.195   8.181  20.279  0.00  0.00    +0.000 A 
ATOM      6  C   UNL     1       0.474   8.107  21.593  0.00  0.00    +0.000 C 
ENDROOT
BRANCH   3   7
ATOM      7  N   UNL     1       3.144   6.725  17.498  0.00  0.00    +0.000 N 
ATOM      8  C   UNL     1       4.481   6.378  17.611  0.00  0.00    +0.000 C 
ATOM      9  O   UNL     1       5.184   6.706  18.559  0.00  0.00    +0.000 OA
ATOM     10  H   UNL     1       2.578   6.152  16.882  0.00  0.00    +0.000 HD
BRANCH   8  11
ATOM     11  C   UNL     1       4.988   5.499  16.549  0.00  0.00    +0.000 A 
ATOM     12  C   UNL     1       5.462   5.891  15.310  0.00  0.00    +0.000 A 
ATOM     13  C   UNL     1       5.916   4.789  14.522  0.00  0.00    +0.000 A 
ATOM     14  C   UNL     1       5.774   3.592  15.180  0.00  0.00    +0.000 A 
ATOM     15  S   UNL     1       5.089   3.797  16.735  0.00  0.00    +0.000 S 
ENDBRANCH   8  11
ENDBRANCH   3   7
BRANCH   1  17
ATOM     16  N   UNL     1      -0.531  11.038  18.984  0.00  0.00    +0.000 N 
ATOM     17  C   UNL     1       0.614  10.624  19.714  0.00  0.00    +0.000 C 
ATOM     18  O   UNL     1       1.078  11.358  20.589  0.00  0.00    +0.000 OA
BRANCH  16  20
ATOM     19  C   UNL     1      -0.311  13.398  18.180  0.00  0.00    +0.000 C 
ATOM     20  C   UNL     1      -0.963  12.431  19.158  0.00  0.00    +0.000 C 
ENDBRANCH  16  20
BRANCH  16  21
ATOM     21  C   UNL     1      -1.205  10.171  18.014  0.00  0.00    +0.000 C 
ATOM     22  C   UNL     1      -2.706  10.309  17.805  0.00  0.00    +0.000 C 
ENDBRANCH  16  21
ENDBRANCH   1  17
BRANCH   4  23
ATOM     23  C   UNL     1       2.257   5.866  20.405  0.00  0.00    +0.000 C 
ATOM     24  N   UNL     1       2.400   4.835  20.920  0.00  0.00    +0.000 NA
ENDBRANCH   4  23
TORSDOF 6
ENDMDL
