MODEL 1
REMARK VINA RESULT:      -8.0      0.000      0.000
REMARK  Name = 
REMARK  9 active torsions:
REMARK  status: ('A' for Active; 'I' for Inactive)
REMARK    1  A    between atoms: S_2  and  N_4
REMARK    2  A    between atoms: S_2  and  C_23
REMARK    3  A    between atoms: N_4  and  C_5
REMARK    4  A    between atoms: C_5  and  C_6
REMARK    5  A    between atoms: C_6  and  C_7
REMARK    6  A    between atoms: C_7  and  C_8
REMARK    7  A    between atoms: C_8  and  C_9
REMARK    8  A    between atoms: C_9  and  N_10
REMARK    9  A    between atoms: N_13  and  C_14
REMARK                            x       y       z     vdW  Elec       q    Type
REMARK                         _______ _______ _______ _____ _____    ______ ____
ROOT
ATOM      1  C   UNL     1       3.378   7.707  17.820  0.00  0.00    +0.000 C 
ENDROOT
BRANCH   1   2
ATOM      2  C   UNL     1       3.199   6.223  18.118  0.00  0.00    +0.000 C 
BRANCH   2   3
ATOM      3  N   UNL     1       4.329   5.696  18.882  0.00  0.00    +0.000 NA
ATOM      4  H   UNL     1       5.083   6.341  19.112  0.00  0.00    +0.000 HD
BRANCH   3   6
ATOM      5  O   UNL     1       5.926   3.805  19.351  0.00  0.00    +0.000 OA
ATOM      6  S   UNL     1       4.891   4.171  18.413  0.00  0.00    +0.000 S 
ATOM      7  O   UNL     1       3.751   3.312  18.160  0.00  0.00    +0.000 OA
BRANCH   6   8
ATOM      8  C   UNL     1       5.664   4.516  16.872  0.00  0.00    +0.000 A 
ATOM      9  C   UNL     1       6.694   5.430  16.838  0.00  0.00    +0.000 A 
ATOM     10  N   UNL     1       7.370   5.745  15.710  0.00  0.00    +0.000 NA
ATOM     11  C   UNL     1       7.035   5.110  14.573  0.00  0.00    +0.000 A 
ATOM     12  C   UNL     1       7.742   5.387  13.412  0.00  0.00    +0.000 A 
ATOM     13  C   UNL     1       7.444   4.752  12.204  0.00  0.00    +0.000 A 
ATOM     14  C   UNL     1       6.410   3.826  12.144  0.00  0.00    +0.000 A 
ATOM     15  C   UNL     1       5.682   3.527  13.296  0.00  0.00    +0.000 A 
ATOM     16  C   UNL     1       5.994   4.155  14.515  0.00  0.00    +0.000 A 
ATOM     17  C   UNL     1       5.305   3.856  15.700  0.00  0.00    +0.000 A 
ENDBRANCH   6   8
ENDBRANCH   3   6
ENDBRANCH   2   3
ENDBRANCH   1   2
BRANCH   1  18
ATOM     18  C   UNL     1       2.047   8.456  17.952  0.00  0.00    +0.000 C 
BRANCH  18  19
ATOM     19  C   UNL     1       2.206   9.956  17.686  0.00  0.00    +0.000 C 
BRANCH  19  20
ATOM     20  C   UNL     1       1.282  10.801  18.563  0.00  0.00    +0.000 C 
BRANCH  20  21
ATOM     21  N   UNL     1       0.142  10.025  19.087  0.00  0.00    +0.000 NA
ATOM     22  C   UNL     1       0.077  10.009  20.570  0.00  0.00    +0.000 C 
ATOM     23  C   UNL     1      -0.117  11.408  21.186  0.00  0.00    +0.000 C 
ATOM     24  N   UNL     1      -1.335  12.033  20.650  0.00  0.00    +0.000 N 
ATOM     25  C   UNL     1      -1.504  11.998  19.185  0.00  0.00    +0.000 C 
ATOM     26  C   UNL     1      -1.139  10.603  18.604  0.00  0.00    +0.000 C 
BRANCH  24  27
ATOM     27  C   UNL     1      -2.387  12.376  21.476  0.00  0.00    +0.000 A 
ATOM     28  C   UNL     1      -2.407  11.978  22.822  0.00  0.00    +0.000 A 
ATOM     29  C   UNL     1      -3.493  12.268  23.656  0.00  0.00    +0.000 A 
ATOM     30  C   UNL     1      -4.581  12.970  23.151  0.00  0.00    +0.000 A 
ATOM     31 CL   UNL     1      -5.931  13.309  24.160  0.00  0.00    +0.000 Cl
ATOM     32  C   UNL     1      -4.583  13.396  21.830  0.00  0.00    +0.000 A 
ATOM     33  C   UNL     1      -3.493  13.101  21.008  0.00  0.00    +0.000 A 
ENDBRANCH  24  27
ENDBRANCH  20  21
ENDBRANCH  19  20
ENDBRANCH  18  19
ENDBRANCH   1  18
TORSDOF 9
ENDMDL
MODEL 2
REMARK VINA RESULT:      -8.0      3.724      4.724
REMARK  Name = 
REMARK  9 active torsions:
REMARK  status: ('A' for Active; 'I' for Inactive)
REMARK    1  A    between atoms: S_2  and  N_4
REMARK    2  A    between atoms: S_2  and  C_23
REMARK    3  A    between atoms: N_4  and  C_5
REMARK    4  A    between atoms: C_5  and  C_6
REMARK    5  A    between atoms: C_6  and  C_7
REMARK    6  A    between atoms: C_7  and  C_8
REMARK    7  A    between atoms: C_8  and  C_9
REMARK    8  A    between atoms: C_9  and  N_10
REMARK    9  A    between atoms: N_13  and  C_14
REMARK                            x       y       z     vdW  Elec       q    Type
REMARK                         _______ _______ _______ _____ _____    ______ ____
ROOT
ATOM      1  C   UNL     1       1.975   5.633  20.742  0.00  0.00    +0.000 C 
ENDROOT
BRANCH   1   2
ATOM      2  C   UNL     1       0.897   4.743  20.133  0.00  0.00    +0.000 C 
BRANCH   2   3
ATOM      3  N   UNL     1       1.433   3.431  19.776  0.00  0.00    +0.000 NA
ATOM      4  H   UNL     1       1.992   2.945  20.475  0.00  0.00    +0.000 HD
BRANCH   3   6
ATOM      5  O   UNL     1       2.317   1.886  17.992  0.00  0.00    +0.000 OA
ATOM      6  S   UNL     1       2.071   3.292  18.215  0.00  0.00    +0.000 S 
ATOM      7  O   UNL     1       1.257   4.078  17.308  0.00  0.00    +0.000 OA
BRANCH   6   8
ATOM      8  C   UNL     1       3.630   4.088  18.376  0.00  0.00    +0.000 A 
ATOM      9  C   UNL     1       4.583   3.518  19.192  0.00  0.00    +0.000 A 
ATOM     10  N   UNL     1       5.820   4.038  19.363  0.00  0.00    +0.000 NA
ATOM     11  C   UNL     1       6.139   5.149  18.676  0.00  0.00    +0.000 A 
ATOM     12  C   UNL     1       7.417   5.677  18.804  0.00  0.00    +0.000 A 
ATOM     13  C   UNL     1       7.808   6.824  18.110  0.00  0.00    +0.000 A 
ATOM     14  C   UNL     1       6.905   7.472  17.275  0.00  0.00    +0.000 A 
ATOM     15  C   UNL     1       5.614   6.964  17.128  0.00  0.00    +0.000 A 
ATOM     16  C   UNL     1       5.227   5.799  17.814  0.00  0.00    +0.000 A 
ATOM     17  C   UNL     1       3.948   5.242  17.665  0.00  0.00    +0.000 A 
ENDBRANCH   6   8
ENDBRANCH   3   6
ENDBRANCH   2   3
ENDBRANCH   1   2
BRANCH   1  18
ATOM     18  C   UNL     1       1.855   7.071  20.222  0.00  0.00    +0.000 C 
BRANCH  18  19
ATOM     19  C   UNL     1       0.872   7.899  21.054  0.00  0.00    +0.000 C 
BRANCH  19  20
ATOM     20  C   UNL     1       1.125   9.401  20.925  0.00  0.00    +0.000 C 
BRANCH  20  21
ATOM     21  N   UNL     1       0.055  10.088  20.178  0.00  0.00    +0.000 NA
ATOM     22  C   UNL     1      -0.480  11.279  20.884  0.00  0.00    +0.000 C 
ATOM     23  C   UNL     1       0.575  12.379  21.109  0.00  0.00    +0.000 C 
ATOM     24  N   UNL     1       1.156  12.793  19.824  0.00  0.00    +0.000 N 
ATOM     25  C   UNL     1       1.603  11.713  18.923  0.00  0.00    +0.000 C 
ATOM     26  C   UNL     1       0.565  10.557  18.864  0.00  0.00    +0.000 C 
BRANCH  24  27
ATOM     27  C   UNL     1       1.031  14.090  19.366  0.00  0.00    +0.000 A 
ATOM     28  C   UNL     1      -0.231  14.685  19.218  0.00  0.00    +0.000 A 
ATOM     29  C   UNL     1      -0.376  15.977  18.700  0.00  0.00    +0.000 A 
ATOM     30  C   UNL     1       0.751  16.700  18.326  0.00  0.00    +0.000 A 
ATOM     31 CL   UNL     1       0.582  18.278  17.666  0.00  0.00    +0.000 Cl
ATOM     32  C   UNL     1       2.015  16.148  18.479  0.00  0.00    +0.000 A 
ATOM     33  C   UNL     1       2.147  14.858  18.998  0.00  0.00    +0.000 A 
ENDBRANCH  24  27
ENDBRANCH  20  21
ENDBRANCH  19  20
ENDBRANCH  18  19
ENDBRANCH   1  18
TORSDOF 9
ENDMDL
MODEL 3
REMARK VINA RESULT:      -8.0      7.398     11.005
REMARK  Name = 
REMARK  9 active torsions:
REMARK  status: ('A' for Active; 'I' for Inactive)
REMARK    1  A    between atoms: S_2  and  N_4
REMARK    2  A    between atoms: S_2  and  C_23
REMARK    3  A    between atoms: N_4  and  C_5
REMARK    4  A    between atoms: C_5  and  C_6
REMARK    5  A    between atoms: C_6  and  C_7
REMARK    6  A    between atoms: C_7  and  C_8
REMARK    7  A    between atoms: C_8  and  C_9
REMARK    8  A    between atoms: C_9  and  N_10
REMARK    9  A    between atoms: N_13  and  C_14
REMARK                            x       y       z     vdW  Elec       q    Type
REMARK                         _______ _______ _______ _____ _____    ______ ____
ROOT
ATOM      1  C   UNL     1       8.822  11.346  17.945  0.00  0.00    +0.000 C 
ENDROOT
BRANCH   1   2
ATOM      2  C   UNL     1      10.193  11.973  17.719  0.00  0.00    +0.000 C 
BRANCH   2   3
ATOM      3  N   UNL     1      10.318  13.244  18.431  0.00  0.00    +0.000 NA
ATOM      4  H   UNL     1      10.356  14.095  17.872  0.00  0.00    +0.000 HD
BRANCH   3   6
ATOM      5  O   UNL     1      11.998  11.946  19.788  0.00  0.00    +0.000 OA
ATOM      6  S   UNL     1      11.407  13.262  19.725  0.00  0.00    +0.000 S 
ATOM      7  O   UNL     1      12.219  14.460  19.633  0.00  0.00    +0.000 OA
BRANCH   6   8
ATOM      8  C   UNL     1      10.339  13.435  21.110  0.00  0.00    +0.000 A 
ATOM      9  C   UNL     1      10.131  14.693  21.632  0.00  0.00    +0.000 A 
ATOM     10  N   UNL     1       9.308  14.935  22.679  0.00  0.00    +0.000 NA
ATOM     11  C   UNL     1       8.641  13.896  23.213  0.00  0.00    +0.000 A 
ATOM     12  C   UNL     1       7.761  14.127  24.260  0.00  0.00    +0.000 A 
ATOM     13  C   UNL     1       7.035  13.090  24.850  0.00  0.00    +0.000 A 
ATOM     14  C   UNL     1       7.195  11.786  24.394  0.00  0.00    +0.000 A 
ATOM     15  C   UNL     1       8.073  11.524  23.342  0.00  0.00    +0.000 A 
ATOM     16  C   UNL     1       8.790  12.573  22.739  0.00  0.00    +0.000 A 
ATOM     17  C   UNL     1       9.658  12.352  21.659  0.00  0.00    +0.000 A 
ENDBRANCH   6   8
ENDBRANCH   3   6
ENDBRANCH   2   3
ENDBRANCH   1   2
BRANCH   1  18
ATOM     18  C   UNL     1       8.957   9.916  18.483  0.00  0.00    +0.000 C 
BRANCH  18  19
ATOM     19  C   UNL     1       8.074   8.930  17.714  0.00  0.00    +0.000 C 
BRANCH  19  20
ATOM     20  C   UNL     1       8.069   7.540  18.347  0.00  0.00    +0.000 C 
BRANCH  20  21
ATOM     21  N   UNL     1       7.630   6.495  17.403  0.00  0.00    +0.000 NA
ATOM     22  C   UNL     1       7.445   5.168  18.043  0.00  0.00    +0.000 C 
ATOM     23  C   UNL     1       6.354   5.163  19.129  0.00  0.00    +0.000 C 
ATOM     24  N   UNL     1       5.074   5.615  18.564  0.00  0.00    +0.000 N 
ATOM     25  C   UNL     1       5.109   6.851  17.760  0.00  0.00    +0.000 C 
ATOM     26  C   UNL     1       6.327   6.866  16.794  0.00  0.00    +0.000 C 
BRANCH  24  27
ATOM     27  C   UNL     1       3.968   4.789  18.545  0.00  0.00    +0.000 A 
ATOM     28  C   UNL     1       2.807   5.120  19.262  0.00  0.00    +0.000 A 
ATOM     29  C   UNL     1       1.700   4.265  19.300  0.00  0.00    +0.000 A 
ATOM     30  C   UNL     1       1.737   3.058  18.611  0.00  0.00    +0.000 A 
ATOM     31 CL   UNL     1       0.392   1.990  18.672  0.00  0.00    +0.000 Cl
ATOM     32  C   UNL     1       2.861   2.711  17.875  0.00  0.00    +0.000 A 
ATOM     33  C   UNL     1       3.960   3.573  17.844  0.00  0.00    +0.000 A 
ENDBRANCH  24  27
ENDBRANCH  20  21
ENDBRANCH  19  20
ENDBRANCH  18  19
ENDBRANCH   1  18
TORSDOF 9
ENDMDL
MODEL 4
REMARK VINA RESULT:      -8.0      1.304      1.519
REMARK  Name = 
REMARK  9 active torsions:
REMARK  status: ('A' for Active; 'I' for Inactive)
REMARK    1  A    between atoms: S_2  and  N_4
REMARK    2  A    between atoms: S_2  and  C_23
REMARK    3  A    between atoms: N_4  and  C_5
REMARK    4  A    between atoms: C_5  and  C_6
REMARK    5  A    between atoms: C_6  and  C_7
REMARK    6  A    between atoms: C_7  and  C_8
REMARK    7  A    between atoms: C_8  and  C_9
REMARK    8  A    between atoms: C_9  and  N_10
REMARK    9  A    between atoms: N_13  and  C_14
REMARK                            x       y       z     vdW  Elec       q    Type
REMARK                         _______ _______ _______ _____ _____    ______ ____
ROOT
ATOM      1  C   UNL     1       2.608   7.318  18.510  0.00  0.00    +0.000 C 
ENDROOT
BRANCH   1   2
ATOM      2  C   UNL     1       3.505   6.345  17.754  0.00  0.00    +0.000 C 
BRANCH   2   3
ATOM      3  N   UNL     1       3.666   5.092  18.489  0.00  0.00    +0.000 NA
ATOM      4  H   UNL     1       3.104   4.964  19.330  0.00  0.00    +0.000 HD
BRANCH   3   6
ATOM      5  O   UNL     1       5.941   5.518  19.487  0.00  0.00    +0.000 OA
ATOM      6  S   UNL     1       5.255   4.541  18.674  0.00  0.00    +0.000 S 
ATOM      7  O   UNL     1       5.222   3.137  19.033  0.00  0.00    +0.000 OA
BRANCH   6   8
ATOM      8  C   UNL     1       5.887   4.669  17.038  0.00  0.00    +0.000 A 
ATOM      9  C   UNL     1       6.986   5.470  16.815  0.00  0.00    +0.000 A 
ATOM     10  N   UNL     1       7.563   5.614  15.600  0.00  0.00    +0.000 NA
ATOM     11  C   UNL     1       7.052   4.918  14.569  0.00  0.00    +0.000 A 
ATOM     12  C   UNL     1       7.654   5.019  13.323  0.00  0.00    +0.000 A 
ATOM     13  C   UNL     1       7.172   4.313  12.218  0.00  0.00    +0.000 A 
ATOM     14  C   UNL     1       6.058   3.493  12.351  0.00  0.00    +0.000 A 
ATOM     15  C   UNL     1       5.433   3.372  13.592  0.00  0.00    +0.000 A 
ATOM     16  C   UNL     1       5.930   4.070  14.708  0.00  0.00    +0.000 A 
ATOM     17  C   UNL     1       5.347   3.948  15.977  0.00  0.00    +0.000 A 
ENDBRANCH   6   8
ENDBRANCH   3   6
ENDBRANCH   2   3
ENDBRANCH   1   2
BRANCH   1  18
ATOM     18  C   UNL     1       2.268   8.536  17.642  0.00  0.00    +0.000 C 
BRANCH  18  19
ATOM     19  C   UNL     1       1.395   9.546  18.391  0.00  0.00    +0.000 C 
BRANCH  19  20
ATOM     20  C   UNL     1       1.214   9.175  19.863  0.00  0.00    +0.000 C 
BRANCH  20  21
ATOM     21  N   UNL     1      -0.205   9.149  20.264  0.00  0.00    +0.000 NA
ATOM     22  C   UNL     1      -0.397   9.146  21.736  0.00  0.00    +0.000 C 
ATOM     23  C   UNL     1       0.156  10.407  22.426  0.00  0.00    +0.000 C 
ATOM     24  N   UNL     1      -0.467  11.610  21.855  0.00  0.00    +0.000 N 
ATOM     25  C   UNL     1      -0.498  11.701  20.383  0.00  0.00    +0.000 C 
ATOM     26  C   UNL     1      -0.910  10.347  19.739  0.00  0.00    +0.000 C 
BRANCH  24  27
ATOM     27  C   UNL     1      -1.225  12.462  22.633  0.00  0.00    +0.000 A 
ATOM     28  C   UNL     1      -2.518  12.105  23.046  0.00  0.00    +0.000 A 
ATOM     29  C   UNL     1      -3.320  12.982  23.785  0.00  0.00    +0.000 A 
ATOM     30  C   UNL     1      -2.833  14.238  24.129  0.00  0.00    +0.000 A 
ATOM     31 CL   UNL     1      -3.820  15.331  25.015  0.00  0.00    +0.000 Cl
ATOM     32  C   UNL     1      -1.551  14.613  23.755  0.00  0.00    +0.000 A 
ATOM     33  C   UNL     1      -0.759  13.729  23.018  0.00  0.00    +0.000 A 
ENDBRANCH  24  27
ENDBRANCH  20  21
ENDBRANCH  19  20
ENDBRANCH  18  19
ENDBRANCH   1  18
TORSDOF 9
ENDMDL
MODEL 5
REMARK VINA RESULT:      -7.9      1.705      2.503
REMARK  Name = 
REMARK  9 active torsions:
REMARK  status: ('A' for Active; 'I' for Inactive)
REMARK    1  A    between atoms: S_2  and  N_4
REMARK    2  A    between atoms: S_2  and  C_23
REMARK    3  A    between atoms: N_4  and  C_5
REMARK    4  A    between atoms: C_5  and  C_6
REMARK    5  A    between atoms: C_6  and  C_7
REMARK    6  A    between atoms: C_7  and  C_8
REMARK    7  A    between atoms: C_8  and  C_9
REMARK    8  A    between atoms: C_9  and  N_10
REMARK    9  A    between atoms: N_13  and  C_14
REMARK                            x       y       z     vdW  Elec       q    Type
REMARK                         _______ _______ _______ _____ _____    ______ ____
ROOT
ATOM      1  C   UNL     1       2.174   7.150  19.981  0.00  0.00    +0.000 C 
ENDROOT
BRANCH   1   2
ATOM      2  C   UNL     1       1.921   5.764  20.563  0.00  0.00    +0.000 C 
BRANCH   2   3
ATOM      3  N   UNL     1       1.497   4.823  19.528  0.00  0.00    +0.000 NA
ATOM      4  H   UNL     1       0.495   4.706  19.381  0.00  0.00    +0.000 HD
BRANCH   3   6
ATOM      5  O   UNL     1       2.755   3.061  20.816  0.00  0.00    +0.000 OA
ATOM      6  S   UNL     1       2.344   3.361  19.464  0.00  0.00    +0.000 S 
ATOM      7  O   UNL     1       1.582   2.416  18.670  0.00  0.00    +0.000 OA
BRANCH   6   8
ATOM      8  C   UNL     1       3.782   3.801  18.554  0.00  0.00    +0.000 A 
ATOM      9  C   UNL     1       4.973   3.953  19.230  0.00  0.00    +0.000 A 
ATOM     10  N   UNL     1       6.138   4.264  18.620  0.00  0.00    +0.000 NA
ATOM     11  C   UNL     1       6.135   4.403  17.281  0.00  0.00    +0.000 A 
ATOM     12  C   UNL     1       7.327   4.681  16.629  0.00  0.00    +0.000 A 
ATOM     13  C   UNL     1       7.386   4.828  15.241  0.00  0.00    +0.000 A 
ATOM     14  C   UNL     1       6.229   4.705  14.481  0.00  0.00    +0.000 A 
ATOM     15  C   UNL     1       5.016   4.425  15.111  0.00  0.00    +0.000 A 
ATOM     16  C   UNL     1       4.961   4.261  16.507  0.00  0.00    +0.000 A 
ATOM     17  C   UNL     1       3.766   3.948  17.170  0.00  0.00    +0.000 A 
ENDBRANCH   6   8
ENDBRANCH   3   6
ENDBRANCH   2   3
ENDBRANCH   1   2
BRANCH   1  18
ATOM     18  C   UNL     1       2.485   7.065  18.482  0.00  0.00    +0.000 C 
BRANCH  18  19
ATOM     19  C   UNL     1       2.034   8.322  17.734  0.00  0.00    +0.000 C 
BRANCH  19  20
ATOM     20  C   UNL     1       2.126   9.577  18.601  0.00  0.00    +0.000 C 
BRANCH  20  21
ATOM     21  N   UNL     1       1.152  10.610  18.198  0.00  0.00    +0.000 NA
ATOM     22  C   UNL     1      -0.259  10.193  18.399  0.00  0.00    +0.000 C 
ATOM     23  C   UNL     1      -0.607   9.914  19.874  0.00  0.00    +0.000 C 
ATOM     24  N   UNL     1      -0.327  11.102  20.693  0.00  0.00    +0.000 N 
ATOM     25  C   UNL     1       0.989  11.740  20.503  0.00  0.00    +0.000 C 
ATOM     26  C   UNL     1       1.355  11.848  18.995  0.00  0.00    +0.000 C 
BRANCH  24  27
ATOM     27  C   UNL     1      -1.332  11.747  21.386  0.00  0.00    +0.000 A 
ATOM     28  C   UNL     1      -2.142  12.707  20.758  0.00  0.00    +0.000 A 
ATOM     29  C   UNL     1      -3.125  13.411  21.462  0.00  0.00    +0.000 A 
ATOM     30  C   UNL     1      -3.317  13.158  22.816  0.00  0.00    +0.000 A 
ATOM     31 CL   UNL     1      -4.505  14.036  23.695  0.00  0.00    +0.000 Cl
ATOM     32  C   UNL     1      -2.548  12.201  23.461  0.00  0.00    +0.000 A 
ATOM     33  C   UNL     1      -1.571  11.504  22.748  0.00  0.00    +0.000 A 
ENDBRANCH  24  27
ENDBRANCH  20  21
ENDBRANCH  19  20
ENDBRANCH  18  19
ENDBRANCH   1  18
TORSDOF 9
ENDMDL
MODEL 6
REMARK VINA RESULT:      -7.9      2.499      4.137
REMARK  Name = 
REMARK  9 active torsions:
REMARK  status: ('A' for Active; 'I' for Inactive)
REMARK    1  A    between atoms: S_2  and  N_4
REMARK    2  A    between atoms: S_2  and  C_23
REMARK    3  A    between atoms: N_4  and  C_5
REMARK    4  A    between atoms: C_5  and  C_6
REMARK    5  A    between atoms: C_6  and  C_7
REMARK    6  A    between atoms: C_7  and  C_8
REMARK    7  A    between atoms: C_8  and  C_9
REMARK    8  A    between atoms: C_9  and  N_10
REMARK    9  A    between atoms: N_13  and  C_14
REMARK                            x       y       z     vdW  Elec       q    Type
REMARK                         _______ _______ _______ _____ _____    ______ ____
ROOT
ATOM      1  C   UNL     1       4.538   7.702  17.036  0.00  0.00    +0.000 C 
ENDROOT
BRANCH   1   2
ATOM      2  C   UNL     1       4.886   6.633  16.007  0.00  0.00    +0.000 C 
BRANCH   2   3
ATOM      3  N   UNL     1       6.286   6.227  16.118  0.00  0.00    +0.000 NA
ATOM      4  H   UNL     1       6.958   6.680  15.499  0.00  0.00    +0.000 HD
BRANCH   3   6
ATOM      5  O   UNL     1       6.169   3.954  15.035  0.00  0.00    +0.000 OA
ATOM      6  S   UNL     1       6.564   4.567  16.283  0.00  0.00    +0.000 S 
ATOM      7  O   UNL     1       7.887   4.370  16.845  0.00  0.00    +0.000 OA
BRANCH   6   8
ATOM      8  C   UNL     1       5.383   4.109  17.501  0.00  0.00    +0.000 A 
ATOM      9  C   UNL     1       5.690   4.309  18.829  0.00  0.00    +0.000 A 
ATOM     10  N   UNL     1       4.841   4.015  19.839  0.00  0.00    +0.000 NA
ATOM     11  C   UNL     1       3.626   3.531  19.524  0.00  0.00    +0.000 A 
ATOM     12  C   UNL     1       2.723   3.260  20.543  0.00  0.00    +0.000 A 
ATOM     13  C   UNL     1       1.445   2.764  20.276  0.00  0.00    +0.000 A 
ATOM     14  C   UNL     1       1.056   2.520  18.964  0.00  0.00    +0.000 A 
ATOM     15  C   UNL     1       1.944   2.782  17.920  0.00  0.00    +0.000 A 
ATOM     16  C   UNL     1       3.224   3.298  18.190  0.00  0.00    +0.000 A 
ATOM     17  C   UNL     1       4.130   3.603  17.164  0.00  0.00    +0.000 A 
ENDBRANCH   6   8
ENDBRANCH   3   6
ENDBRANCH   2   3
ENDBRANCH   1   2
BRANCH   1  18
ATOM     18  C   UNL     1       3.316   7.287  17.864  0.00  0.00    +0.000 C 
BRANCH  18  19
ATOM     19  C   UNL     1       2.119   8.210  17.618  0.00  0.00    +0.000 C 
BRANCH  19  20
ATOM     20  C   UNL     1       1.781   9.059  18.844  0.00  0.00    +0.000 C 
BRANCH  20  21
ATOM     21  N   UNL     1       0.836  10.147  18.529  0.00  0.00    +0.000 NA
ATOM     22  C   UNL     1      -0.505   9.951  19.134  0.00  0.00    +0.000 C 
ATOM     23  C   UNL     1      -0.479   9.921  20.674  0.00  0.00    +0.000 C 
ATOM     24  N   UNL     1       0.114  11.161  21.195  0.00  0.00    +0.000 N 
ATOM     25  C   UNL     1       1.389  11.587  20.586  0.00  0.00    +0.000 C 
ATOM     26  C   UNL     1       1.355  11.443  19.038  0.00  0.00    +0.000 C 
BRANCH  24  27
ATOM     27  C   UNL     1      -0.609  12.020  21.998  0.00  0.00    +0.000 A 
ATOM     28  C   UNL     1      -1.750  11.577  22.686  0.00  0.00    +0.000 A 
ATOM     29  C   UNL     1      -2.527  12.449  23.455  0.00  0.00    +0.000 A 
ATOM     30  C   UNL     1      -2.167  13.789  23.553  0.00  0.00    +0.000 A 
ATOM     31 CL   UNL     1      -3.128  14.874  24.476  0.00  0.00    +0.000 Cl
ATOM     32  C   UNL     1      -1.033  14.254  22.902  0.00  0.00    +0.000 A 
ATOM     33  C   UNL     1      -0.265  13.373  22.137  0.00  0.00    +0.000 A 
ENDBRANCH  24  27
ENDBRANCH  20  21
ENDBRANCH  19  20
ENDBRANCH  18  19
ENDBRANCH   1  18
TORSDOF 9
ENDMDL
MODEL 7
REMARK VINA RESULT:      -7.9      2.247      3.059
REMARK  Name = 
REMARK  9 active torsions:
REMARK  status: ('A' for Active; 'I' for Inactive)
REMARK    1  A    between atoms: S_2  and  N_4
REMARK    2  A    between atoms: S_2  and  C_23
REMARK    3  A    between atoms: N_4  and  C_5
REMARK    4  A    between atoms: C_5  and  C_6
REMARK    5  A    between atoms: C_6  and  C_7
REMARK    6  A    between atoms: C_7  and  C_8
REMARK    7  A    between atoms: C_8  and  C_9
REMARK    8  A    between atoms: C_9  and  N_10
REMARK    9  A    between atoms: N_13  and  C_14
REMARK                            x       y       z     vdW  Elec       q    Type
REMARK                         _______ _______ _______ _____ _____    ______ ____
ROOT
ATOM      1  C   UNL     1       2.681   7.192  19.567  0.00  0.00    +0.000 C 
ENDROOT
BRANCH   1   2
ATOM      2  C   UNL     1       1.663   6.414  20.394  0.00  0.00    +0.000 C 
BRANCH   2   3
ATOM      3  N   UNL     1       2.310   5.362  21.177  0.00  0.00    +0.000 NA
ATOM      4  H   UNL     1       3.235   5.559  21.557  0.00  0.00    +0.000 HD
BRANCH   3   6
ATOM      5  O   UNL     1       2.788   2.914  21.530  0.00  0.00    +0.000 OA
ATOM      6  S   UNL     1       2.174   3.793  20.563  0.00  0.00    +0.000 S 
ATOM      7  O   UNL     1       0.814   3.589  20.102  0.00  0.00    +0.000 OA
BRANCH   6   8
ATOM      8  C   UNL     1       3.222   3.851  19.153  0.00  0.00    +0.000 A 
ATOM      9  C   UNL     1       2.683   3.575  17.915  0.00  0.00    +0.000 A 
ATOM     10  N   UNL     1       3.398   3.619  16.768  0.00  0.00    +0.000 NA
ATOM     11  C   UNL     1       4.692   3.978  16.842  0.00  0.00    +0.000 A 
ATOM     12  C   UNL     1       5.434   4.070  15.673  0.00  0.00    +0.000 A 
ATOM     13  C   UNL     1       6.779   4.446  15.687  0.00  0.00    +0.000 A 
ATOM     14  C   UNL     1       7.408   4.728  16.894  0.00  0.00    +0.000 A 
ATOM     15  C   UNL     1       6.686   4.645  18.085  0.00  0.00    +0.000 A 
ATOM     16  C   UNL     1       5.327   4.282  18.067  0.00  0.00    +0.000 A 
ATOM     17  C   UNL     1       4.562   4.219  19.241  0.00  0.00    +0.000 A 
ENDBRANCH   6   8
ENDBRANCH   3   6
ENDBRANCH   2   3
ENDBRANCH   1   2
BRANCH   1  18
ATOM     18  C   UNL     1       2.184   7.385  18.129  0.00  0.00    +0.000 C 
BRANCH  18  19
ATOM     19  C   UNL     1       2.062   8.866  17.762  0.00  0.00    +0.000 C 
BRANCH  19  20
ATOM     20  C   UNL     1       1.663   9.729  18.959  0.00  0.00    +0.000 C 
BRANCH  20  21
ATOM     21  N   UNL     1       0.396  10.450  18.733  0.00  0.00    +0.000 NA
ATOM     22  C   UNL     1      -0.684  10.041  19.665  0.00  0.00    +0.000 C 
ATOM     23  C   UNL     1      -0.356  10.329  21.142  0.00  0.00    +0.000 C 
ATOM     24  N   UNL     1      -0.068  11.758  21.328  0.00  0.00    +0.000 N 
ATOM     25  C   UNL     1       0.881  12.368  20.377  0.00  0.00    +0.000 C 
ATOM     26  C   UNL     1       0.596  11.911  18.918  0.00  0.00    +0.000 C 
BRANCH  24  27
ATOM     27  C   UNL     1      -0.845  12.545  22.154  0.00  0.00    +0.000 A 
ATOM     28  C   UNL     1      -0.421  13.826  22.540  0.00  0.00    +0.000 A 
ATOM     29  C   UNL     1      -1.171  14.610  23.424  0.00  0.00    +0.000 A 
ATOM     30  C   UNL     1      -2.369  14.122  23.933  0.00  0.00    +0.000 A 
ATOM     31 CL   UNL     1      -3.284  15.068  25.039  0.00  0.00    +0.000 Cl
ATOM     32  C   UNL     1      -2.826  12.868  23.555  0.00  0.00    +0.000 A 
ATOM     33  C   UNL     1      -2.070  12.094  22.672  0.00  0.00    +0.000 A 
ENDBRANCH  24  27
ENDBRANCH  20  21
ENDBRANCH  19  20
ENDBRANCH  18  19
ENDBRANCH   1  18
TORSDOF 9
ENDMDL
MODEL 8
REMARK VINA RESULT:      -7.8      2.832      3.943
REMARK  Name = 
REMARK  9 active torsions:
REMARK  status: ('A' for Active; 'I' for Inactive)
REMARK    1  A    between atoms: S_2  and  N_4
REMARK    2  A    between atoms: S_2  and  C_23
REMARK    3  A    between atoms: N_4  and  C_5
REMARK    4  A    between atoms: C_5  and  C_6
REMARK    5  A    between atoms: C_6  and  C_7
REMARK    6  A    between atoms: C_7  and  C_8
REMARK    7  A    between atoms: C_8  and  C_9
REMARK    8  A    between atoms: C_9  and  N_10
REMARK    9  A    between atoms: N_13  and  C_14
REMARK                            x       y       z     vdW  Elec       q    Type
REMARK                         _______ _______ _______ _____ _____    ______ ____
ROOT
ATOM      1  C   UNL     1       1.184   3.528  21.102  0.00  0.00    +0.000 C 
ENDROOT
BRANCH   1   2
ATOM      2  C   UNL     1       1.710   2.327  20.324  0.00  0.00    +0.000 C 
BRANCH   2   3
ATOM      3  N   UNL     1       3.062   2.571  19.823  0.00  0.00    +0.000 NA
ATOM      4  H   UNL     1       3.594   3.327  20.253  0.00  0.00    +0.000 HD
BRANCH   3   6
ATOM      5  O   UNL     1       3.959   1.289  17.848  0.00  0.00    +0.000 OA
ATOM      6  S   UNL     1       3.250   2.512  18.143  0.00  0.00    +0.000 S 
ATOM      7  O   UNL     1       1.977   2.826  17.521  0.00  0.00    +0.000 OA
BRANCH   6   8
ATOM      8  C   UNL     1       4.347   3.852  17.842  0.00  0.00    +0.000 A 
ATOM      9  C   UNL     1       4.099   4.681  16.769  0.00  0.00    +0.000 A 
ATOM     10  N   UNL     1       4.867   5.753  16.468  0.00  0.00    +0.000 NA
ATOM     11  C   UNL     1       5.905   6.035  17.275  0.00  0.00    +0.000 A 
ATOM     12  C   UNL     1       6.682   7.153  17.009  0.00  0.00    +0.000 A 
ATOM     13  C   UNL     1       7.767   7.500  17.816  0.00  0.00    +0.000 A 
ATOM     14  C   UNL     1       8.097   6.711  18.912  0.00  0.00    +0.000 A 
ATOM     15  C   UNL     1       7.334   5.580  19.203  0.00  0.00    +0.000 A 
ATOM     16  C   UNL     1       6.231   5.242  18.399  0.00  0.00    +0.000 A 
ATOM     17  C   UNL     1       5.422   4.131  18.680  0.00  0.00    +0.000 A 
ENDBRANCH   6   8
ENDBRANCH   3   6
ENDBRANCH   2   3
ENDBRANCH   1   2
BRANCH   1  18
ATOM     18  C   UNL     1       0.980   4.733  20.176  0.00  0.00    +0.000 C 
BRANCH  18  19
ATOM     19  C   UNL     1       1.775   5.955  20.644  0.00  0.00    +0.000 C 
BRANCH  19  20
ATOM     20  C   UNL     1       0.868   7.119  21.039  0.00  0.00    +0.000 C 
BRANCH  20  21
ATOM     21  N   UNL     1       1.588   8.407  21.066  0.00  0.00    +0.000 NA
ATOM     22  C   UNL     1       1.000   9.425  20.161  0.00  0.00    +0.000 C 
ATOM     23  C   UNL     1      -0.446   9.806  20.530  0.00  0.00    +0.000 C 
ATOM     24  N   UNL     1      -0.503  10.293  21.916  0.00  0.00    +0.000 N 
ATOM     25  C   UNL     1       0.174   9.468  22.933  0.00  0.00    +0.000 C 
ATOM     26  C   UNL     1       1.564   8.981  22.437  0.00  0.00    +0.000 C 
BRANCH  24  27
ATOM     27  C   UNL     1      -0.915  11.579  22.207  0.00  0.00    +0.000 A 
ATOM     28  C   UNL     1      -0.187  12.690  21.754  0.00  0.00    +0.000 A 
ATOM     29  C   UNL     1      -0.558  13.996  22.091  0.00  0.00    +0.000 A 
ATOM     30  C   UNL     1      -1.678  14.212  22.886  0.00  0.00    +0.000 A 
ATOM     31 CL   UNL     1      -2.128  15.811  23.325  0.00  0.00    +0.000 Cl
ATOM     32  C   UNL     1      -2.432  13.135  23.332  0.00  0.00    +0.000 A 
ATOM     33  C   UNL     1      -2.051  11.836  22.990  0.00  0.00    +0.000 A 
ENDBRANCH  24  27
ENDBRANCH  20  21
ENDBRANCH  19  20
ENDBRANCH  18  19
ENDBRANCH   1  18
TORSDOF 9
ENDMDL
MODEL 9
REMARK VINA RESULT:      -7.7      2.555      4.070
REMARK  Name = 
REMARK  9 active torsions:
REMARK  status: ('A' for Active; 'I' for Inactive)
REMARK    1  A    between atoms: S_2  and  N_4
REMARK    2  A    between atoms: S_2  and  C_23
REMARK    3  A    between atoms: N_4  and  C_5
REMARK    4  A    between atoms: C_5  and  C_6
REMARK    5  A    between atoms: C_6  and  C_7
REMARK    6  A    between atoms: C_7  and  C_8
REMARK    7  A    between atoms: C_8  and  C_9
REMARK    8  A    between atoms: C_9  and  N_10
REMARK    9  A    between atoms: N_13  and  C_14
REMARK                            x       y       z     vdW  Elec       q    Type
REMARK                         _______ _______ _______ _____ _____    ______ ____
ROOT
ATOM      1  C   UNL     1       3.952   7.391  17.609  0.00  0.00    +0.000 C 
ENDROOT
BRANCH   1   2
ATOM      2  C   UNL     1       4.650   7.214  16.265  0.00  0.00    +0.000 C 
BRANCH   2   3
ATOM      3  N   UNL     1       5.985   6.640  16.433  0.00  0.00    +0.000 NA
ATOM      4  H   UNL     1       6.774   7.172  16.070  0.00  0.00    +0.000 HD
BRANCH   3   6
ATOM      5  O   UNL     1       5.469   4.733  14.869  0.00  0.00    +0.000 OA
ATOM      6  S   UNL     1       6.120   4.981  16.134  0.00  0.00    +0.000 S 
ATOM      7  O   UNL     1       7.490   4.574  16.382  0.00  0.00    +0.000 OA
BRANCH   6   8
ATOM      8  C   UNL     1       5.111   4.290  17.398  0.00  0.00    +0.000 A 
ATOM      9  C   UNL     1       5.632   4.169  18.668  0.00  0.00    +0.000 A 
ATOM     10  N   UNL     1       4.930   3.676  19.713  0.00  0.00    +0.000 NA
ATOM     11  C   UNL     1       3.652   3.314  19.503  0.00  0.00    +0.000 A 
ATOM     12  C   UNL     1       2.900   2.844  20.570  0.00  0.00    +0.000 A 
ATOM     13  C   UNL     1       1.566   2.461  20.414  0.00  0.00    +0.000 A 
ATOM     14  C   UNL     1       0.965   2.537  19.163  0.00  0.00    +0.000 A 
ATOM     15  C   UNL     1       1.697   3.006  18.072  0.00  0.00    +0.000 A 
ATOM     16  C   UNL     1       3.035   3.407  18.235  0.00  0.00    +0.000 A 
ATOM     17  C   UNL     1       3.791   3.914  17.168  0.00  0.00    +0.000 A 
ENDBRANCH   6   8
ENDBRANCH   3   6
ENDBRANCH   2   3
ENDBRANCH   1   2
BRANCH   1  18
ATOM     18  C   UNL     1       2.598   8.090  17.434  0.00  0.00    +0.000 C 
BRANCH  18  19
ATOM     19  C   UNL     1       2.081   8.672  18.752  0.00  0.00    +0.000 C 
BRANCH  19  20
ATOM     20  C   UNL     1       1.186   9.891  18.536  0.00  0.00    +0.000 C 
BRANCH  20  21
ATOM     21  N   UNL     1      -0.151   9.719  19.136  0.00  0.00    +0.000 NA
ATOM     22  C   UNL     1      -0.113   9.551  20.610  0.00  0.00    +0.000 C 
ATOM     23  C   UNL     1       0.466  10.773  21.348  0.00  0.00    +0.000 C 
ATOM     24  N   UNL     1      -0.306  11.979  21.014  0.00  0.00    +0.000 N 
ATOM     25  C   UNL     1      -0.569  12.217  19.582  0.00  0.00    +0.000 C 
ATOM     26  C   UNL     1      -0.996  10.909  18.858  0.00  0.00    +0.000 C 
BRANCH  24  27
ATOM     27  C   UNL     1      -0.983  12.688  21.986  0.00  0.00    +0.000 A 
ATOM     28  C   UNL     1      -0.446  13.867  22.525  0.00  0.00    +0.000 A 
ATOM     29  C   UNL     1      -1.092  14.565  23.552  0.00  0.00    +0.000 A 
ATOM     30  C   UNL     1      -2.299  14.091  24.054  0.00  0.00    +0.000 A 
ATOM     31 CL   UNL     1      -3.088  14.926  25.331  0.00  0.00    +0.000 Cl
ATOM     32  C   UNL     1      -2.867  12.939  23.528  0.00  0.00    +0.000 A 
ATOM     33  C   UNL     1      -2.213  12.252  22.503  0.00  0.00    +0.000 A 
ENDBRANCH  24  27
ENDBRANCH  20  21
ENDBRANCH  19  20
ENDBRANCH  18  19
ENDBRANCH   1  18
TORSDOF 9
ENDMDL
