MODEL 1
REMARK VINA RESULT:      -7.9      0.000      0.000
REMARK  Name = 
REMARK  8 active torsions:
REMARK  status: ('A' for Active; 'I' for Inactive)
REMARK    1  A    between atoms: C_1  and  C_2
REMARK    2  A    between atoms: C_2  and  N_3
REMARK    3  A    between atoms: C_5  and  N_6
REMARK    4  A    between atoms: C_7  and  C_9
REMARK    5  A    between atoms: C_12  and  C_13
REMARK    6  A    between atoms: C_15  and  C_16
REMARK    7  A    between atoms: C_23  and  O_24
REMARK    8  A    between atoms: O_24  and  C_25
REMARK                            x       y       z     vdW  Elec       q    Type
REMARK                         _______ _______ _______ _____ _____    ______ ____
ROOT
ATOM      1  C   UNL     1       2.335   7.863  18.709  0.00  0.00    +0.000 A 
ATOM      2  C   UNL     1       1.815   7.951  19.999  0.00  0.00    +0.000 A 
ATOM      3  C   UNL     1       0.858   8.919  20.297  0.00  0.00    +0.000 A 
ATOM      4  C   UNL     1       0.435   9.876  19.351  0.00  0.00    +0.000 A 
ATOM      5  C   UNL     1       1.022   9.807  18.076  0.00  0.00    +0.000 A 
ATOM      6  C   UNL     1       1.947   8.800  17.749  0.00  0.00    +0.000 A 
ENDROOT
BRANCH   4   7
ATOM      7  C   UNL     1      -0.565  10.900  19.763  0.00  0.00    +0.000 A 
ATOM      8  C   UNL     1      -0.397  11.511  21.031  0.00  0.00    +0.000 A 
ATOM      9  C   UNL     1      -1.350  12.361  21.602  0.00  0.00    +0.000 A 
ATOM     10  C   UNL     1      -1.195  12.834  23.018  0.00  0.00    +0.000 C 
ATOM     11  C   UNL     1      -2.478  12.698  20.859  0.00  0.00    +0.000 A 
ATOM     12  C   UNL     1      -2.654  12.165  19.584  0.00  0.00    +0.000 A 
ATOM     13  C   UNL     1      -1.726  11.257  19.047  0.00  0.00    +0.000 A 
ATOM     14 CL   UNL     1      -2.154  10.566  17.516  0.00  0.00    +0.000 Cl
ENDBRANCH   4   7
BRANCH   1  16
ATOM     15  N   UNL     1       3.063   5.562  18.950  0.00  0.00    +0.000 N 
ATOM     16  C   UNL     1       3.302   6.787  18.358  0.00  0.00    +0.000 C 
ATOM     17  O   UNL     1       4.220   6.999  17.577  0.00  0.00    +0.000 OA
ATOM     18  H   UNL     1       2.150   5.400  19.351  0.00  0.00    +0.000 HD
BRANCH  15  21
ATOM     19  N   UNL     1       2.573   2.438  19.149  0.00  0.00    +0.000 NA
ATOM     20  C   UNL     1       3.699   3.245  19.656  0.00  0.00    +0.000 C 
ATOM     21  C   UNL     1       3.911   4.402  18.679  0.00  0.00    +0.000 C 
ATOM     22  C   UNL     1       3.573   3.753  17.331  0.00  0.00    +0.000 C 
ATOM     23  C   UNL     1       2.520   2.687  17.689  0.00  0.00    +0.000 C 
BRANCH  19  25
ATOM     24  C   UNL     1       1.407   2.914  21.309  0.00  0.00    +0.000 C 
ATOM     25  C   UNL     1       1.290   2.725  19.799  0.00  0.00    +0.000 C 
ENDBRANCH  19  25
BRANCH  22  26
ATOM     26  O   UNL     1       4.704   3.117  16.721  0.00  0.00    +0.000 OA
ATOM     27  C   UNL     1       5.655   4.029  16.188  0.00  0.00    +0.000 C 
ENDBRANCH  22  26
ENDBRANCH  15  21
ENDBRANCH   1  16
TORSDOF 5
ENDMDL
MODEL 2
REMARK VINA RESULT:      -7.8      2.426      3.642
REMARK  Name = 
REMARK  8 active torsions:
REMARK  status: ('A' for Active; 'I' for Inactive)
REMARK    1  A    between atoms: C_1  and  C_2
REMARK    2  A    between atoms: C_2  and  N_3
REMARK    3  A    between atoms: C_5  and  N_6
REMARK    4  A    between atoms: C_7  and  C_9
REMARK    5  A    between atoms: C_12  and  C_13
REMARK    6  A    between atoms: C_15  and  C_16
REMARK    7  A    between atoms: C_23  and  O_24
REMARK    8  A    between atoms: O_24  and  C_25
REMARK                            x       y       z     vdW  Elec       q    Type
REMARK                         _______ _______ _______ _____ _____    ______ ____
ROOT
ATOM      1  C   UNL     1       2.098   7.640  19.087  0.00  0.00    +0.000 A 
ATOM      2  C   UNL     1       2.200   8.362  17.899  0.00  0.00    +0.000 A 
ATOM      3  C   UNL     1       1.818   9.701  17.865  0.00  0.00    +0.000 A 
ATOM      4  C   UNL     1       1.258  10.353  18.983  0.00  0.00    +0.000 A 
ATOM      5  C   UNL     1       1.104   9.585  20.151  0.00  0.00    +0.000 A 
ATOM      6  C   UNL     1       1.537   8.250  20.211  0.00  0.00    +0.000 A 
ENDROOT
BRANCH   4   7
ATOM      7  C   UNL     1       0.841  11.777  18.851  0.00  0.00    +0.000 A 
ATOM      8  C   UNL     1       1.863  12.755  18.765  0.00  0.00    +0.000 A 
ATOM      9  C   UNL     1       1.609  14.131  18.804  0.00  0.00    +0.000 A 
ATOM     10  C   UNL     1       2.742  15.111  18.888  0.00  0.00    +0.000 C 
ATOM     11  C   UNL     1       0.288  14.567  18.840  0.00  0.00    +0.000 A 
ATOM     12  C   UNL     1      -0.750  13.637  18.866  0.00  0.00    +0.000 A 
ATOM     13  C   UNL     1      -0.483  12.259  18.898  0.00  0.00    +0.000 A 
ATOM     14 CL   UNL     1      -1.868  11.232  19.080  0.00  0.00    +0.000 Cl
ENDBRANCH   4   7
BRANCH   1  16
ATOM     15  N   UNL     1       3.498   5.872  18.197  0.00  0.00    +0.000 N 
ATOM     16  C   UNL     1       2.571   6.231  19.156  0.00  0.00    +0.000 C 
ATOM     17  O   UNL     1       2.166   5.475  20.029  0.00  0.00    +0.000 OA
ATOM     18  H   UNL     1       3.976   6.611  17.700  0.00  0.00    +0.000 HD
BRANCH  15  21
ATOM     19  N   UNL     1       6.240   4.737  17.086  0.00  0.00    +0.000 NA
ATOM     20  C   UNL     1       4.867   4.241  16.879  0.00  0.00    +0.000 C 
ATOM     21  C   UNL     1       4.076   4.529  18.156  0.00  0.00    +0.000 C 
ATOM     22  C   UNL     1       5.139   4.333  19.245  0.00  0.00    +0.000 C 
ATOM     23  C   UNL     1       6.455   4.738  18.552  0.00  0.00    +0.000 C 
BRANCH  19  25
ATOM     24  C   UNL     1       7.330   6.966  17.393  0.00  0.00    +0.000 C 
ATOM     25  C   UNL     1       6.496   6.054  16.496  0.00  0.00    +0.000 C 
ENDBRANCH  19  25
BRANCH  22  26
ATOM     26  O   UNL     1       5.235   2.974  19.690  0.00  0.00    +0.000 OA
ATOM     27  C   UNL     1       3.986   2.400  20.051  0.00  0.00    +0.000 C 
ENDBRANCH  22  26
ENDBRANCH  15  21
ENDBRANCH   1  16
TORSDOF 5
ENDMDL
MODEL 3
REMARK VINA RESULT:      -7.6      1.342      2.120
REMARK  Name = 
REMARK  8 active torsions:
REMARK  status: ('A' for Active; 'I' for Inactive)
REMARK    1  A    between atoms: C_1  and  C_2
REMARK    2  A    between atoms: C_2  and  N_3
REMARK    3  A    between atoms: C_5  and  N_6
REMARK    4  A    between atoms: C_7  and  C_9
REMARK    5  A    between atoms: C_12  and  C_13
REMARK    6  A    between atoms: C_15  and  C_16
REMARK    7  A    between atoms: C_23  and  O_24
REMARK    8  A    between atoms: O_24  and  C_25
REMARK                            x       y       z     vdW  Elec       q    Type
REMARK                         _______ _______ _______ _____ _____    ______ ____
ROOT
ATOM      1  C   UNL     1       2.598   7.718  18.525  0.00  0.00    +0.000 A 
ATOM      2  C   UNL     1       2.177   8.658  17.586  0.00  0.00    +0.000 A 
ATOM      3  C   UNL     1       1.275   9.652  17.956  0.00  0.00    +0.000 A 
ATOM      4  C   UNL     1       0.704   9.710  19.244  0.00  0.00    +0.000 A 
ATOM      5  C   UNL     1       1.095   8.712  20.154  0.00  0.00    +0.000 A 
ATOM      6  C   UNL     1       2.047   7.737  19.807  0.00  0.00    +0.000 A 
ENDROOT
BRANCH   4   7
ATOM      7  C   UNL     1      -0.282  10.784  19.547  0.00  0.00    +0.000 A 
ATOM      8  C   UNL     1      -1.583  10.655  19.001  0.00  0.00    +0.000 A 
ATOM      9  C   UNL     1      -2.546  11.668  19.071  0.00  0.00    +0.000 A 
ATOM     10  C   UNL     1      -3.840  11.541  18.322  0.00  0.00    +0.000 C 
ATOM     11  C   UNL     1      -2.249  12.825  19.786  0.00  0.00    +0.000 A 
ATOM     12  C   UNL     1      -1.001  12.968  20.388  0.00  0.00    +0.000 A 
ATOM     13  C   UNL     1      -0.017  11.976  20.253  0.00  0.00    +0.000 A 
ATOM     14 CL   UNL     1       1.533  12.360  20.930  0.00  0.00    +0.000 Cl
ENDBRANCH   4   7
BRANCH   1  16
ATOM     15  N   UNL     1       3.472   5.471  18.784  0.00  0.00    +0.000 N 
ATOM     16  C   UNL     1       3.618   6.696  18.163  0.00  0.00    +0.000 C 
ATOM     17  O   UNL     1       4.497   6.947  17.350  0.00  0.00    +0.000 OA
ATOM     18  H   UNL     1       2.583   5.261  19.216  0.00  0.00    +0.000 HD
BRANCH  15  21
ATOM     19  N   UNL     1       3.219   2.334  19.155  0.00  0.00    +0.000 NA
ATOM     20  C   UNL     1       4.315   3.239  19.547  0.00  0.00    +0.000 C 
ATOM     21  C   UNL     1       4.380   4.358  18.507  0.00  0.00    +0.000 C 
ATOM     22  C   UNL     1       4.001   3.622  17.215  0.00  0.00    +0.000 C 
ATOM     23  C   UNL     1       3.052   2.506  17.693  0.00  0.00    +0.000 C 
BRANCH  19  25
ATOM     24  C   UNL     1       0.744   2.641  18.963  0.00  0.00    +0.000 C 
ATOM     25  C   UNL     1       1.964   2.565  19.878  0.00  0.00    +0.000 C 
ENDBRANCH  19  25
BRANCH  22  26
ATOM     26  O   UNL     1       5.131   3.035  16.558  0.00  0.00    +0.000 OA
ATOM     27  C   UNL     1       5.914   3.966  15.823  0.00  0.00    +0.000 C 
ENDBRANCH  22  26
ENDBRANCH  15  21
ENDBRANCH   1  16
TORSDOF 5
ENDMDL
MODEL 4
REMARK VINA RESULT:      -7.6      1.524      1.927
REMARK  Name = 
REMARK  8 active torsions:
REMARK  status: ('A' for Active; 'I' for Inactive)
REMARK    1  A    between atoms: C_1  and  C_2
REMARK    2  A    between atoms: C_2  and  N_3
REMARK    3  A    between atoms: C_5  and  N_6
REMARK    4  A    between atoms: C_7  and  C_9
REMARK    5  A    between atoms: C_12  and  C_13
REMARK    6  A    between atoms: C_15  and  C_16
REMARK    7  A    between atoms: C_23  and  O_24
REMARK    8  A    between atoms: O_24  and  C_25
REMARK                            x       y       z     vdW  Elec       q    Type
REMARK                         _______ _______ _______ _____ _____    ______ ____
ROOT
ATOM      1  C   UNL     1       2.281   7.674  19.182  0.00  0.00    +0.000 A 
ATOM      2  C   UNL     1       1.863   7.468  20.495  0.00  0.00    +0.000 A 
ATOM      3  C   UNL     1       0.958   8.350  21.081  0.00  0.00    +0.000 A 
ATOM      4  C   UNL     1       0.489   9.502  20.416  0.00  0.00    +0.000 A 
ATOM      5  C   UNL     1       0.976   9.722  19.115  0.00  0.00    +0.000 A 
ATOM      6  C   UNL     1       1.847   8.810  18.495  0.00  0.00    +0.000 A 
ENDROOT
BRANCH   4   7
ATOM      7  C   UNL     1      -0.449  10.412  21.129  0.00  0.00    +0.000 A 
ATOM      8  C   UNL     1      -1.133  11.386  20.359  0.00  0.00    +0.000 A 
ATOM      9  C   UNL     1      -1.911  12.401  20.926  0.00  0.00    +0.000 A 
ATOM     10  C   UNL     1      -2.463  13.503  20.071  0.00  0.00    +0.000 C 
ATOM     11  C   UNL     1      -2.098  12.410  22.306  0.00  0.00    +0.000 A 
ATOM     12  C   UNL     1      -1.490  11.435  23.095  0.00  0.00    +0.000 A 
ATOM     13  C   UNL     1      -0.655  10.462  22.523  0.00  0.00    +0.000 A 
ATOM     14 CL   UNL     1       0.147   9.411  23.645  0.00  0.00    +0.000 Cl
ENDBRANCH   4   7
BRANCH   1  16
ATOM     15  N   UNL     1       3.294   5.472  19.142  0.00  0.00    +0.000 N 
ATOM     16  C   UNL     1       3.190   6.700  18.519  0.00  0.00    +0.000 C 
ATOM     17  O   UNL     1       3.771   6.989  17.481  0.00  0.00    +0.000 OA
ATOM     18  H   UNL     1       2.588   5.222  19.820  0.00  0.00    +0.000 HD
BRANCH  15  21
ATOM     19  N   UNL     1       3.026   2.315  19.137  0.00  0.00    +0.000 NA
ATOM     20  C   UNL     1       4.188   3.156  19.477  0.00  0.00    +0.000 C 
ATOM     21  C   UNL     1       4.127   4.402  18.592  0.00  0.00    +0.000 C 
ATOM     22  C   UNL     1       3.548   3.843  17.286  0.00  0.00    +0.000 C 
ATOM     23  C   UNL     1       2.653   2.678  17.750  0.00  0.00    +0.000 C 
BRANCH  19  25
ATOM     24  C   UNL     1       2.320   2.788  21.489  0.00  0.00    +0.000 C 
ATOM     25  C   UNL     1       1.896   2.452  20.061  0.00  0.00    +0.000 C 
ENDBRANCH  19  25
BRANCH  22  26
ATOM     26  O   UNL     1       4.556   3.344  16.399  0.00  0.00    +0.000 OA
ATOM     27  C   UNL     1       5.448   4.343  15.924  0.00  0.00    +0.000 C 
ENDBRANCH  22  26
ENDBRANCH  15  21
ENDBRANCH   1  16
TORSDOF 5
ENDMDL
MODEL 5
REMARK VINA RESULT:      -7.6      1.504      2.080
REMARK  Name = 
REMARK  8 active torsions:
REMARK  status: ('A' for Active; 'I' for Inactive)
REMARK    1  A    between atoms: C_1  and  C_2
REMARK    2  A    between atoms: C_2  and  N_3
REMARK    3  A    between atoms: C_5  and  N_6
REMARK    4  A    between atoms: C_7  and  C_9
REMARK    5  A    between atoms: C_12  and  C_13
REMARK    6  A    between atoms: C_15  and  C_16
REMARK    7  A    between atoms: C_23  and  O_24
REMARK    8  A    between atoms: O_24  and  C_25
REMARK                            x       y       z     vdW  Elec       q    Type
REMARK                         _______ _______ _______ _____ _____    ______ ____
ROOT
ATOM      1  C   UNL     1       2.340   7.605  19.137  0.00  0.00    +0.000 A 
ATOM      2  C   UNL     1       1.924   8.732  18.431  0.00  0.00    +0.000 A 
ATOM      3  C   UNL     1       1.156   9.705  19.067  0.00  0.00    +0.000 A 
ATOM      4  C   UNL     1       0.714   9.564  20.400  0.00  0.00    +0.000 A 
ATOM      5  C   UNL     1       1.093   8.387  21.070  0.00  0.00    +0.000 A 
ATOM      6  C   UNL     1       1.913   7.426  20.454  0.00  0.00    +0.000 A 
ENDROOT
BRANCH   4   7
ATOM      7  C   UNL     1      -0.135  10.634  20.993  0.00  0.00    +0.000 A 
ATOM      8  C   UNL     1      -0.442  11.755  20.181  0.00  0.00    +0.000 A 
ATOM      9  C   UNL     1      -1.088  12.897  20.669  0.00  0.00    +0.000 A 
ATOM     10  C   UNL     1      -1.226  14.117  19.807  0.00  0.00    +0.000 C 
ATOM     11  C   UNL     1      -1.530  12.904  21.988  0.00  0.00    +0.000 A 
ATOM     12  C   UNL     1      -1.300  11.799  22.804  0.00  0.00    +0.000 A 
ATOM     13  C   UNL     1      -0.589  10.685  22.326  0.00  0.00    +0.000 A 
ATOM     14 CL   UNL     1      -0.252   9.453  23.498  0.00  0.00    +0.000 Cl
ENDBRANCH   4   7
BRANCH   1  16
ATOM     15  N   UNL     1       3.324   5.389  19.157  0.00  0.00    +0.000 N 
ATOM     16  C   UNL     1       3.221   6.595  18.491  0.00  0.00    +0.000 C 
ATOM     17  O   UNL     1       3.783   6.838  17.431  0.00  0.00    +0.000 OA
ATOM     18  H   UNL     1       2.629   5.174  19.858  0.00  0.00    +0.000 HD
BRANCH  15  21
ATOM     19  N   UNL     1       2.951   2.242  19.166  0.00  0.00    +0.000 NA
ATOM     20  C   UNL     1       4.134   3.047  19.522  0.00  0.00    +0.000 C 
ATOM     21  C   UNL     1       4.131   4.289  18.629  0.00  0.00    +0.000 C 
ATOM     22  C   UNL     1       3.557   3.741  17.316  0.00  0.00    +0.000 C 
ATOM     23  C   UNL     1       2.616   2.608  17.770  0.00  0.00    +0.000 C 
BRANCH  19  25
ATOM     24  C   UNL     1       2.217   2.766  21.498  0.00  0.00    +0.000 C 
ATOM     25  C   UNL     1       1.809   2.424  20.067  0.00  0.00    +0.000 C 
ENDBRANCH  19  25
BRANCH  22  26
ATOM     26  O   UNL     1       4.565   3.202  16.451  0.00  0.00    +0.000 OA
ATOM     27  C   UNL     1       5.638   4.098  16.194  0.00  0.00    +0.000 C 
ENDBRANCH  22  26
ENDBRANCH  15  21
ENDBRANCH   1  16
TORSDOF 5
ENDMDL
MODEL 6
REMARK VINA RESULT:      -7.5      2.194      3.376
REMARK  Name = 
REMARK  8 active torsions:
REMARK  status: ('A' for Active; 'I' for Inactive)
REMARK    1  A    between atoms: C_1  and  C_2
REMARK    2  A    between atoms: C_2  and  N_3
REMARK    3  A    between atoms: C_5  and  N_6
REMARK    4  A    between atoms: C_7  and  C_9
REMARK    5  A    between atoms: C_12  and  C_13
REMARK    6  A    between atoms: C_15  and  C_16
REMARK    7  A    between atoms: C_23  and  O_24
REMARK    8  A    between atoms: O_24  and  C_25
REMARK                            x       y       z     vdW  Elec       q    Type
REMARK                         _______ _______ _______ _____ _____    ______ ____
ROOT
ATOM      1  C   UNL     1       2.050   7.526  19.340  0.00  0.00    +0.000 A 
ATOM      2  C   UNL     1       1.520   8.065  20.511  0.00  0.00    +0.000 A 
ATOM      3  C   UNL     1       0.966   9.342  20.498  0.00  0.00    +0.000 A 
ATOM      4  C   UNL     1       0.979  10.158  19.348  0.00  0.00    +0.000 A 
ATOM      5  C   UNL     1       1.578   9.617  18.196  0.00  0.00    +0.000 A 
ATOM      6  C   UNL     1       2.091   8.308  18.184  0.00  0.00    +0.000 A 
ENDROOT
BRANCH   4   7
ATOM      7  C   UNL     1       0.399  11.527  19.430  0.00  0.00    +0.000 A 
ATOM      8  C   UNL     1      -0.908  11.656  19.964  0.00  0.00    +0.000 A 
ATOM      9  C   UNL     1      -1.627  12.857  19.944  0.00  0.00    +0.000 A 
ATOM     10  C   UNL     1      -3.067  12.887  20.362  0.00  0.00    +0.000 C 
ATOM     11  C   UNL     1      -1.003  14.003  19.458  0.00  0.00    +0.000 A 
ATOM     12  C   UNL     1       0.303  13.931  18.977  0.00  0.00    +0.000 A 
ATOM     13  C   UNL     1       0.991  12.708  18.937  0.00  0.00    +0.000 A 
ATOM     14 CL   UNL     1       2.549  12.749  18.176  0.00  0.00    +0.000 Cl
ENDBRANCH   4   7
BRANCH   1  16
ATOM     15  N   UNL     1       3.417   5.835  18.267  0.00  0.00    +0.000 N 
ATOM     16  C   UNL     1       2.578   6.135  19.322  0.00  0.00    +0.000 C 
ATOM     17  O   UNL     1       2.289   5.342  20.209  0.00  0.00    +0.000 OA
ATOM     18  H   UNL     1       3.817   6.603  17.746  0.00  0.00    +0.000 HD
BRANCH  15  21
ATOM     19  N   UNL     1       6.208   4.870  17.119  0.00  0.00    +0.000 NA
ATOM     20  C   UNL     1       4.854   4.352  16.849  0.00  0.00    +0.000 C 
ATOM     21  C   UNL     1       4.036   4.517  18.131  0.00  0.00    +0.000 C 
ATOM     22  C   UNL     1       5.088   4.266  19.220  0.00  0.00    +0.000 C 
ATOM     23  C   UNL     1       6.401   4.762  18.584  0.00  0.00    +0.000 C 
BRANCH  19  25
ATOM     24  C   UNL     1       7.433   7.019  17.487  0.00  0.00    +0.000 C 
ATOM     25  C   UNL     1       6.434   6.237  16.638  0.00  0.00    +0.000 C 
ENDBRANCH  19  25
BRANCH  22  26
ATOM     26  O   UNL     1       5.218   2.880  19.559  0.00  0.00    +0.000 OA
ATOM     27  C   UNL     1       4.070   2.337  20.197  0.00  0.00    +0.000 C 
ENDBRANCH  22  26
ENDBRANCH  15  21
ENDBRANCH   1  16
TORSDOF 5
ENDMDL
MODEL 7
REMARK VINA RESULT:      -7.5      1.222      1.776
REMARK  Name = 
REMARK  8 active torsions:
REMARK  status: ('A' for Active; 'I' for Inactive)
REMARK    1  A    between atoms: C_1  and  C_2
REMARK    2  A    between atoms: C_2  and  N_3
REMARK    3  A    between atoms: C_5  and  N_6
REMARK    4  A    between atoms: C_7  and  C_9
REMARK    5  A    between atoms: C_12  and  C_13
REMARK    6  A    between atoms: C_15  and  C_16
REMARK    7  A    between atoms: C_23  and  O_24
REMARK    8  A    between atoms: O_24  and  C_25
REMARK                            x       y       z     vdW  Elec       q    Type
REMARK                         _______ _______ _______ _____ _____    ______ ____
ROOT
ATOM      1  C   UNL     1       2.385   7.849  18.637  0.00  0.00    +0.000 A 
ATOM      2  C   UNL     1       1.922   8.038  19.938  0.00  0.00    +0.000 A 
ATOM      3  C   UNL     1       0.977   9.027  20.201  0.00  0.00    +0.000 A 
ATOM      4  C   UNL     1       0.510   9.908  19.203  0.00  0.00    +0.000 A 
ATOM      5  C   UNL     1       1.042   9.739  17.912  0.00  0.00    +0.000 A 
ATOM      6  C   UNL     1       1.954   8.708  17.625  0.00  0.00    +0.000 A 
ENDROOT
BRANCH   4   7
ATOM      7  C   UNL     1      -0.473  10.962  19.577  0.00  0.00    +0.000 A 
ATOM      8  C   UNL     1      -1.793  10.837  19.077  0.00  0.00    +0.000 A 
ATOM      9  C   UNL     1      -2.761  11.838  19.216  0.00  0.00    +0.000 A 
ATOM     10  C   UNL     1      -4.081  11.721  18.514  0.00  0.00    +0.000 C 
ATOM     11  C   UNL     1      -2.448  12.974  19.956  0.00  0.00    +0.000 A 
ATOM     12  C   UNL     1      -1.179  13.111  20.515  0.00  0.00    +0.000 A 
ATOM     13  C   UNL     1      -0.191  12.133  20.310  0.00  0.00    +0.000 A 
ATOM     14 CL   UNL     1       1.380  12.511  20.940  0.00  0.00    +0.000 Cl
ENDBRANCH   4   7
BRANCH   1  16
ATOM     15  N   UNL     1       3.006   5.515  18.856  0.00  0.00    +0.000 N 
ATOM     16  C   UNL     1       3.339   6.748  18.330  0.00  0.00    +0.000 C 
ATOM     17  O   UNL     1       4.327   6.949  17.636  0.00  0.00    +0.000 OA
ATOM     18  H   UNL     1       2.057   5.375  19.173  0.00  0.00    +0.000 HD
BRANCH  15  21
ATOM     19  N   UNL     1       2.444   2.406  19.099  0.00  0.00    +0.000 NA
ATOM     20  C   UNL     1       3.580   3.196  19.607  0.00  0.00    +0.000 C 
ATOM     21  C   UNL     1       3.831   4.332  18.614  0.00  0.00    +0.000 C 
ATOM     22  C   UNL     1       3.496   3.668  17.272  0.00  0.00    +0.000 C 
ATOM     23  C   UNL     1       2.415   2.632  17.634  0.00  0.00    +0.000 C 
BRANCH  19  25
ATOM     24  C   UNL     1       1.275   3.033  21.219  0.00  0.00    +0.000 C 
ATOM     25  C   UNL     1       1.159   2.732  19.727  0.00  0.00    +0.000 C 
ENDBRANCH  19  25
BRANCH  22  26
ATOM     26  O   UNL     1       4.619   2.997  16.687  0.00  0.00    +0.000 OA
ATOM     27  C   UNL     1       5.581   3.877  16.122  0.00  0.00    +0.000 C 
ENDBRANCH  22  26
ENDBRANCH  15  21
ENDBRANCH   1  16
TORSDOF 5
ENDMDL
MODEL 8
REMARK VINA RESULT:      -7.5      3.972      9.163
REMARK  Name = 
REMARK  8 active torsions:
REMARK  status: ('A' for Active; 'I' for Inactive)
REMARK    1  A    between atoms: C_1  and  C_2
REMARK    2  A    between atoms: C_2  and  N_3
REMARK    3  A    between atoms: C_5  and  N_6
REMARK    4  A    between atoms: C_7  and  C_9
REMARK    5  A    between atoms: C_12  and  C_13
REMARK    6  A    between atoms: C_15  and  C_16
REMARK    7  A    between atoms: C_23  and  O_24
REMARK    8  A    between atoms: O_24  and  C_25
REMARK                            x       y       z     vdW  Elec       q    Type
REMARK                         _______ _______ _______ _____ _____    ______ ____
ROOT
ATOM      1  C   UNL     1       1.196   9.293  19.592  0.00  0.00    +0.000 A 
ATOM      2  C   UNL     1       1.689   9.320  18.289  0.00  0.00    +0.000 A 
ATOM      3  C   UNL     1       2.387   8.224  17.788  0.00  0.00    +0.000 A 
ATOM      4  C   UNL     1       2.682   7.093  18.578  0.00  0.00    +0.000 A 
ATOM      5  C   UNL     1       2.229   7.117  19.909  0.00  0.00    +0.000 A 
ATOM      6  C   UNL     1       1.477   8.195  20.407  0.00  0.00    +0.000 A 
ENDROOT
BRANCH   4   7
ATOM      7  C   UNL     1       3.465   5.979  17.976  0.00  0.00    +0.000 A 
ATOM      8  C   UNL     1       4.804   6.247  17.596  0.00  0.00    +0.000 A 
ATOM      9  C   UNL     1       5.589   5.342  16.874  0.00  0.00    +0.000 A 
ATOM     10  C   UNL     1       6.934   5.752  16.350  0.00  0.00    +0.000 C 
ATOM     11  C   UNL     1       5.069   4.083  16.588  0.00  0.00    +0.000 A 
ATOM     12  C   UNL     1       3.776   3.758  16.995  0.00  0.00    +0.000 A 
ATOM     13  C   UNL     1       2.971   4.698  17.657  0.00  0.00    +0.000 A 
ATOM     14 CL   UNL     1       1.338   4.200  17.967  0.00  0.00    +0.000 Cl
ENDBRANCH   4   7
BRANCH   1  16
ATOM     15  N   UNL     1       1.062  11.624  20.247  0.00  0.00    +0.000 N 
ATOM     16  C   UNL     1       0.386  10.427  20.115  0.00  0.00    +0.000 C 
ATOM     17  O   UNL     1      -0.801  10.282  20.377  0.00  0.00    +0.000 OA
ATOM     18  H   UNL     1       1.941  11.728  19.759  0.00  0.00    +0.000 HD
BRANCH  15  21
ATOM     19  N   UNL     1       1.832  14.696  20.151  0.00  0.00    +0.000 NA
ATOM     20  C   UNL     1       1.348  13.886  21.284  0.00  0.00    +0.000 C 
ATOM     21  C   UNL     1       0.391  12.834  20.720  0.00  0.00    +0.000 C 
ATOM     22  C   UNL     1      -0.287  13.596  19.574  0.00  0.00    +0.000 C 
ATOM     23  C   UNL     1       0.794  14.585  19.099  0.00  0.00    +0.000 C 
BRANCH  19  25
ATOM     24  C   UNL     1       3.136  13.794  18.217  0.00  0.00    +0.000 C 
ATOM     25  C   UNL     1       3.155  14.304  19.656  0.00  0.00    +0.000 C 
ENDBRANCH  19  25
BRANCH  22  26
ATOM     26  O   UNL     1      -1.445  14.326  19.999  0.00  0.00    +0.000 OA
ATOM     27  C   UNL     1      -2.456  13.511  20.576  0.00  0.00    +0.000 C 
ENDBRANCH  22  26
ENDBRANCH  15  21
ENDBRANCH   1  16
TORSDOF 5
ENDMDL
MODEL 9
REMARK VINA RESULT:      -7.5      1.409      1.734
REMARK  Name = 
REMARK  8 active torsions:
REMARK  status: ('A' for Active; 'I' for Inactive)
REMARK    1  A    between atoms: C_1  and  C_2
REMARK    2  A    between atoms: C_2  and  N_3
REMARK    3  A    between atoms: C_5  and  N_6
REMARK    4  A    between atoms: C_7  and  C_9
REMARK    5  A    between atoms: C_12  and  C_13
REMARK    6  A    between atoms: C_15  and  C_16
REMARK    7  A    between atoms: C_23  and  O_24
REMARK    8  A    between atoms: O_24  and  C_25
REMARK                            x       y       z     vdW  Elec       q    Type
REMARK                         _______ _______ _______ _____ _____    ______ ____
ROOT
ATOM      1  C   UNL     1       2.250   7.278  19.725  0.00  0.00    +0.000 A 
ATOM      2  C   UNL     1       1.530   7.598  20.874  0.00  0.00    +0.000 A 
ATOM      3  C   UNL     1       0.682   8.703  20.877  0.00  0.00    +0.000 A 
ATOM      4  C   UNL     1       0.568   9.569  19.769  0.00  0.00    +0.000 A 
ATOM      5  C   UNL     1       1.355   9.262  18.644  0.00  0.00    +0.000 A 
ATOM      6  C   UNL     1       2.172   8.119  18.612  0.00  0.00    +0.000 A 
ENDROOT
BRANCH   4   7
ATOM      7  C   UNL     1      -0.334  10.749  19.868  0.00  0.00    +0.000 A 
ATOM      8  C   UNL     1      -0.151  11.627  20.966  0.00  0.00    +0.000 A 
ATOM      9  C   UNL     1      -1.032  12.673  21.263  0.00  0.00    +0.000 A 
ATOM     10  C   UNL     1      -0.883  13.453  22.536  0.00  0.00    +0.000 C 
ATOM     11  C   UNL     1      -2.089  12.925  20.394  0.00  0.00    +0.000 A 
ATOM     12  C   UNL     1      -2.271  12.122  19.270  0.00  0.00    +0.000 A 
ATOM     13  C   UNL     1      -1.423  11.031  19.018  0.00  0.00    +0.000 A 
ATOM     14 CL   UNL     1      -1.863  10.037  17.667  0.00  0.00    +0.000 Cl
ENDBRANCH   4   7
BRANCH   1  16
ATOM     15  N   UNL     1       4.057   6.039  18.687  0.00  0.00    +0.000 N 
ATOM     16  C   UNL     1       3.103   6.059  19.685  0.00  0.00    +0.000 C 
ATOM     17  O   UNL     1       2.959   5.166  20.509  0.00  0.00    +0.000 OA
ATOM     18  H   UNL     1       4.290   6.913  18.236  0.00  0.00    +0.000 HD
BRANCH  15  21
ATOM     19  N   UNL     1       3.799   3.179  17.350  0.00  0.00    +0.000 NA
ATOM     20  C   UNL     1       4.326   3.549  18.676  0.00  0.00    +0.000 C 
ATOM     21  C   UNL     1       4.988   4.921  18.540  0.00  0.00    +0.000 C 
ATOM     22  C   UNL     1       5.581   4.854  17.126  0.00  0.00    +0.000 C 
ATOM     23  C   UNL     1       4.613   3.929  16.365  0.00  0.00    +0.000 C 
BRANCH  19  25
ATOM     24  C   UNL     1       1.517   2.908  18.337  0.00  0.00    +0.000 C 
ATOM     25  C   UNL     1       2.365   3.435  17.181  0.00  0.00    +0.000 C 
ENDBRANCH  19  25
BRANCH  22  26
ATOM     26  O   UNL     1       6.898   4.289  17.101  0.00  0.00    +0.000 OA
ATOM     27  C   UNL     1       7.777   4.841  18.072  0.00  0.00    +0.000 C 
ENDBRANCH  22  26
ENDBRANCH  15  21
ENDBRANCH   1  16
TORSDOF 5
ENDMDL
