MODEL 1
REMARK VINA RESULT:      -8.0      0.000      0.000
REMARK  Name = 
REMARK  5 active torsions:
REMARK  status: ('A' for Active; 'I' for Inactive)
REMARK    1  A    between atoms: C_2  and  C_3
REMARK    2  A    between atoms: C_3  and  C_4
REMARK    3  A    between atoms: C_8  and  N_9
REMARK    4  A    between atoms: C_10  and  C_12
REMARK    5  A    between atoms: C_15  and  C_16
REMARK                            x       y       z     vdW  Elec       q    Type
REMARK                         _______ _______ _______ _____ _____    ______ ____
ROOT
ATOM      1  N   UNL     1       5.252   4.747  15.691  0.00  0.00    +0.000 N 
ATOM      2  C   UNL     1       5.781   4.608  16.965  0.00  0.00    +0.000 C 
ATOM      3  O   UNL     1       6.929   4.258  17.222  0.00  0.00    +0.000 OA
ATOM      4  H   UNL     1       4.322   5.150  15.654  0.00  0.00    +0.000 HD
ENDROOT
BRANCH   1   9
ATOM      5  C   UNL     1       5.904   3.418  12.289  0.00  0.00    +0.000 A 
ATOM      6  C   UNL     1       7.120   4.041  11.981  0.00  0.00    +0.000 A 
ATOM      7  C   UNL     1       7.730   4.883  12.906  0.00  0.00    +0.000 A 
ATOM      8  C   UNL     1       7.129   5.123  14.142  0.00  0.00    +0.000 A 
ATOM      9  C   UNL     1       5.917   4.516  14.472  0.00  0.00    +0.000 A 
ATOM     10  C   UNL     1       5.324   3.641  13.553  0.00  0.00    +0.000 A 
BRANCH   5  11
ATOM     11  C   UNL     1       5.232   2.511  11.287  0.00  0.00    +0.000 C 
BRANCH  11  13
ATOM     12  N   UNL     1       6.365   0.143  11.135  0.00  0.00    +0.000 NA
ATOM     13  C   UNL     1       5.860   1.183  11.213  0.00  0.00    +0.000 C 
ENDBRANCH  11  13
ENDBRANCH   5  11
ENDBRANCH   1   9
BRANCH   2  14
ATOM     14  C   UNL     1       4.853   4.976  18.013  0.00  0.00    +0.000 A 
ATOM     15  C   UNL     1       4.607   4.410  19.247  0.00  0.00    +0.000 A 
ATOM     16  C   UNL     1       3.632   5.221  19.878  0.00  0.00    +0.000 A 
ATOM     17  C   UNL     1       3.335   6.243  18.995  0.00  0.00    +0.000 A 
ATOM     18  O   UNL     1       4.068   6.083  17.853  0.00  0.00    +0.000 OA
BRANCH  17  19
ATOM     19  C   UNL     1       2.474   7.418  19.030  0.00  0.00    +0.000 A 
ATOM     20  C   UNL     1       1.808   7.791  20.206  0.00  0.00    +0.000 A 
ATOM     21  C   UNL     1       1.013   8.942  20.243  0.00  0.00    +0.000 A 
ATOM     22  C   UNL     1       0.875   9.728  19.101  0.00  0.00    +0.000 A 
ATOM     23 CL   UNL     1      -0.091  11.149  19.148  0.00  0.00    +0.000 Cl
ATOM     24  C   UNL     1       1.519   9.371  17.921  0.00  0.00    +0.000 A 
ATOM     25  C   UNL     1       2.311   8.223  17.888  0.00  0.00    +0.000 A 
ENDBRANCH  17  19
ENDBRANCH   2  14
TORSDOF 5
ENDMDL
MODEL 2
REMARK VINA RESULT:      -7.8      1.576      1.725
REMARK  Name = 
REMARK  5 active torsions:
REMARK  status: ('A' for Active; 'I' for Inactive)
REMARK    1  A    between atoms: C_2  and  C_3
REMARK    2  A    between atoms: C_3  and  C_4
REMARK    3  A    between atoms: C_8  and  N_9
REMARK    4  A    between atoms: C_10  and  C_12
REMARK    5  A    between atoms: C_15  and  C_16
REMARK                            x       y       z     vdW  Elec       q    Type
REMARK                         _______ _______ _______ _____ _____    ______ ____
ROOT
ATOM      1  N   UNL     1       5.327   4.838  15.724  0.00  0.00    +0.000 N 
ATOM      2  C   UNL     1       4.981   6.093  16.201  0.00  0.00    +0.000 C 
ATOM      3  O   UNL     1       5.164   7.152  15.609  0.00  0.00    +0.000 OA
ATOM      4  H   UNL     1       5.006   4.060  16.290  0.00  0.00    +0.000 HD
ENDROOT
BRANCH   1   9
ATOM      5  C   UNL     1       5.799   3.426  12.326  0.00  0.00    +0.000 A 
ATOM      6  C   UNL     1       7.051   3.952  11.983  0.00  0.00    +0.000 A 
ATOM      7  C   UNL     1       7.742   4.757  12.883  0.00  0.00    +0.000 A 
ATOM      8  C   UNL     1       7.190   5.055  14.129  0.00  0.00    +0.000 A 
ATOM      9  C   UNL     1       5.944   4.544  14.494  0.00  0.00    +0.000 A 
ATOM     10  C   UNL     1       5.266   3.706  13.599  0.00  0.00    +0.000 A 
BRANCH   5  11
ATOM     11  C   UNL     1       5.038   2.561  11.351  0.00  0.00    +0.000 C 
BRANCH  11  13
ATOM     12  N   UNL     1       3.090   3.844  10.138  0.00  0.00    +0.000 NA
ATOM     13  C   UNL     1       3.956   3.289  10.672  0.00  0.00    +0.000 C 
ENDBRANCH  11  13
ENDBRANCH   5  11
ENDBRANCH   1   9
BRANCH   2  14
ATOM     14  C   UNL     1       4.308   6.052  17.482  0.00  0.00    +0.000 A 
ATOM     15  C   UNL     1       4.431   5.180  18.545  0.00  0.00    +0.000 A 
ATOM     16  C   UNL     1       3.566   5.654  19.561  0.00  0.00    +0.000 A 
ATOM     17  C   UNL     1       2.959   6.794  19.066  0.00  0.00    +0.000 A 
ATOM     18  O   UNL     1       3.401   7.025  17.793  0.00  0.00    +0.000 OA
BRANCH  17  19
ATOM     19  C   UNL     1       2.021   7.775  19.594  0.00  0.00    +0.000 A 
ATOM     20  C   UNL     1       1.515   7.662  20.897  0.00  0.00    +0.000 A 
ATOM     21  C   UNL     1       0.643   8.629  21.411  0.00  0.00    +0.000 A 
ATOM     22  C   UNL     1       0.268   9.715  20.624  0.00  0.00    +0.000 A 
ATOM     23 CL   UNL     1      -0.792  10.909  21.259  0.00  0.00    +0.000 Cl
ATOM     24  C   UNL     1       0.751   9.842  19.326  0.00  0.00    +0.000 A 
ATOM     25  C   UNL     1       1.619   8.876  18.816  0.00  0.00    +0.000 A 
ENDBRANCH  17  19
ENDBRANCH   2  14
TORSDOF 5
ENDMDL
MODEL 3
REMARK VINA RESULT:      -7.8      6.490      9.656
REMARK  Name = 
REMARK  5 active torsions:
REMARK  status: ('A' for Active; 'I' for Inactive)
REMARK    1  A    between atoms: C_2  and  C_3
REMARK    2  A    between atoms: C_3  and  C_4
REMARK    3  A    between atoms: C_8  and  N_9
REMARK    4  A    between atoms: C_10  and  C_12
REMARK    5  A    between atoms: C_15  and  C_16
REMARK                            x       y       z     vdW  Elec       q    Type
REMARK                         _______ _______ _______ _____ _____    ______ ____
ROOT
ATOM      1  N   UNL     1       9.102   9.211  19.165  0.00  0.00    +0.000 N 
ATOM      2  C   UNL     1       8.150   8.964  18.188  0.00  0.00    +0.000 C 
ATOM      3  O   UNL     1       7.594   9.821  17.507  0.00  0.00    +0.000 OA
ATOM      4  H   UNL     1       9.541   8.384  19.555  0.00  0.00    +0.000 HD
ENDROOT
BRANCH   1   9
ATOM      5  C   UNL     1       9.642  12.238  21.240  0.00  0.00    +0.000 A 
ATOM      6  C   UNL     1      10.586  12.931  20.472  0.00  0.00    +0.000 A 
ATOM      7  C   UNL     1      11.027  12.405  19.262  0.00  0.00    +0.000 A 
ATOM      8  C   UNL     1      10.541  11.178  18.810  0.00  0.00    +0.000 A 
ATOM      9  C   UNL     1       9.602  10.467  19.558  0.00  0.00    +0.000 A 
ATOM     10  C   UNL     1       9.134  11.016  20.758  0.00  0.00    +0.000 A 
BRANCH   5  11
ATOM     11  C   UNL     1       9.168  12.798  22.559  0.00  0.00    +0.000 C 
BRANCH  11  13
ATOM     12  N   UNL     1       6.757  11.983  23.222  0.00  0.00    +0.000 NA
ATOM     13  C   UNL     1       7.819  12.335  22.920  0.00  0.00    +0.000 C 
ENDBRANCH  11  13
ENDBRANCH   5  11
ENDBRANCH   1   9
BRANCH   2  14
ATOM     14  C   UNL     1       7.893   7.554  17.983  0.00  0.00    +0.000 A 
ATOM     15  C   UNL     1       7.933   6.488  18.859  0.00  0.00    +0.000 A 
ATOM     16  C   UNL     1       7.535   5.345  18.124  0.00  0.00    +0.000 A 
ATOM     17  C   UNL     1       7.271   5.774  16.835  0.00  0.00    +0.000 A 
ATOM     18  O   UNL     1       7.505   7.117  16.748  0.00  0.00    +0.000 OA
BRANCH  17  19
ATOM     19  C   UNL     1       6.787   5.139  15.617  0.00  0.00    +0.000 A 
ATOM     20  C   UNL     1       7.540   5.174  14.435  0.00  0.00    +0.000 A 
ATOM     21  C   UNL     1       7.087   4.529  13.279  0.00  0.00    +0.000 A 
ATOM     22  C   UNL     1       5.873   3.846  13.294  0.00  0.00    +0.000 A 
ATOM     23 CL   UNL     1       5.321   3.044  11.878  0.00  0.00    +0.000 Cl
ATOM     24  C   UNL     1       5.105   3.807  14.453  0.00  0.00    +0.000 A 
ATOM     25  C   UNL     1       5.559   4.451  15.604  0.00  0.00    +0.000 A 
ENDBRANCH  17  19
ENDBRANCH   2  14
TORSDOF 5
ENDMDL
MODEL 4
REMARK VINA RESULT:      -7.6      0.416      1.067
REMARK  Name = 
REMARK  5 active torsions:
REMARK  status: ('A' for Active; 'I' for Inactive)
REMARK    1  A    between atoms: C_2  and  C_3
REMARK    2  A    between atoms: C_3  and  C_4
REMARK    3  A    between atoms: C_8  and  N_9
REMARK    4  A    between atoms: C_10  and  C_12
REMARK    5  A    between atoms: C_15  and  C_16
REMARK                            x       y       z     vdW  Elec       q    Type
REMARK                         _______ _______ _______ _____ _____    ______ ____
ROOT
ATOM      1  N   UNL     1       5.214   4.774  15.685  0.00  0.00    +0.000 N 
ATOM      2  C   UNL     1       5.773   5.233  16.868  0.00  0.00    +0.000 C 
ATOM      3  O   UNL     1       6.961   5.491  17.037  0.00  0.00    +0.000 OA
ATOM      4  H   UNL     1       4.202   4.715  15.683  0.00  0.00    +0.000 HD
ENDROOT
BRANCH   1   9
ATOM      5  C   UNL     1       5.887   3.391  12.309  0.00  0.00    +0.000 A 
ATOM      6  C   UNL     1       7.113   3.997  12.005  0.00  0.00    +0.000 A 
ATOM      7  C   UNL     1       7.722   4.845  12.925  0.00  0.00    +0.000 A 
ATOM      8  C   UNL     1       7.111   5.109  14.150  0.00  0.00    +0.000 A 
ATOM      9  C   UNL     1       5.889   4.519  14.476  0.00  0.00    +0.000 A 
ATOM     10  C   UNL     1       5.296   3.638  13.563  0.00  0.00    +0.000 A 
BRANCH   5  11
ATOM     11  C   UNL     1       5.215   2.478  11.312  0.00  0.00    +0.000 C 
BRANCH  11  13
ATOM     12  N   UNL     1       6.404   0.140  11.127  0.00  0.00    +0.000 NA
ATOM     13  C   UNL     1       5.885   1.174  11.197  0.00  0.00    +0.000 C 
ENDBRANCH  11  13
ENDBRANCH   5  11
ENDBRANCH   1   9
BRANCH   2  14
ATOM     14  C   UNL     1       4.798   5.447  17.916  0.00  0.00    +0.000 A 
ATOM     15  C   UNL     1       4.528   4.730  19.064  0.00  0.00    +0.000 A 
ATOM     16  C   UNL     1       3.506   5.431  19.749  0.00  0.00    +0.000 A 
ATOM     17  C   UNL     1       3.207   6.544  18.984  0.00  0.00    +0.000 A 
ATOM     18  O   UNL     1       3.984   6.542  17.860  0.00  0.00    +0.000 OA
BRANCH  17  19
ATOM     19  C   UNL     1       2.308   7.682  19.126  0.00  0.00    +0.000 A 
ATOM     20  C   UNL     1       1.998   8.499  18.030  0.00  0.00    +0.000 A 
ATOM     21  C   UNL     1       1.105   9.567  18.166  0.00  0.00    +0.000 A 
ATOM     22  C   UNL     1       0.515   9.828  19.401  0.00  0.00    +0.000 A 
ATOM     23 CL   UNL     1      -0.593  11.132  19.565  0.00  0.00    +0.000 Cl
ATOM     24  C   UNL     1       0.815   9.035  20.503  0.00  0.00    +0.000 A 
ATOM     25  C   UNL     1       1.707   7.971  20.365  0.00  0.00    +0.000 A 
ENDBRANCH  17  19
ENDBRANCH   2  14
TORSDOF 5
ENDMDL
MODEL 5
REMARK VINA RESULT:      -7.6      0.936      1.004
REMARK  Name = 
REMARK  5 active torsions:
REMARK  status: ('A' for Active; 'I' for Inactive)
REMARK    1  A    between atoms: C_2  and  C_3
REMARK    2  A    between atoms: C_3  and  C_4
REMARK    3  A    between atoms: C_8  and  N_9
REMARK    4  A    between atoms: C_10  and  C_12
REMARK    5  A    between atoms: C_15  and  C_16
REMARK                            x       y       z     vdW  Elec       q    Type
REMARK                         _______ _______ _______ _____ _____    ______ ____
ROOT
ATOM      1  N   UNL     1       5.217   4.909  15.705  0.00  0.00    +0.000 N 
ATOM      2  C   UNL     1       5.376   6.047  16.481  0.00  0.00    +0.000 C 
ATOM      3  O   UNL     1       6.143   6.972  16.233  0.00  0.00    +0.000 OA
ATOM      4  H   UNL     1       4.463   4.295  15.993  0.00  0.00    +0.000 HD
ENDROOT
BRANCH   1   9
ATOM      5  C   UNL     1       5.869   3.429  12.366  0.00  0.00    +0.000 A 
ATOM      6  C   UNL     1       7.121   3.979  12.063  0.00  0.00    +0.000 A 
ATOM      7  C   UNL     1       7.753   4.823  12.971  0.00  0.00    +0.000 A 
ATOM      8  C   UNL     1       7.141   5.137  14.184  0.00  0.00    +0.000 A 
ATOM      9  C   UNL     1       5.893   4.602  14.509  0.00  0.00    +0.000 A 
ATOM     10  C   UNL     1       5.276   3.725  13.608  0.00  0.00    +0.000 A 
BRANCH   5  11
ATOM     11  C   UNL     1       5.173   2.521  11.381  0.00  0.00    +0.000 C 
BRANCH  11  13
ATOM     12  N   UNL     1       6.421   0.236  11.019  0.00  0.00    +0.000 NA
ATOM     13  C   UNL     1       5.880   1.246  11.187  0.00  0.00    +0.000 C 
ENDBRANCH  11  13
ENDBRANCH   5  11
ENDBRANCH   1   9
BRANCH   2  14
ATOM     14  C   UNL     1       4.490   6.088  17.624  0.00  0.00    +0.000 A 
ATOM     15  C   UNL     1       4.378   5.251  18.717  0.00  0.00    +0.000 A 
ATOM     16  C   UNL     1       3.377   5.805  19.551  0.00  0.00    +0.000 A 
ATOM     17  C   UNL     1       2.929   6.954  18.924  0.00  0.00    +0.000 A 
ATOM     18  O   UNL     1       3.597   7.115  17.743  0.00  0.00    +0.000 OA
BRANCH  17  19
ATOM     19  C   UNL     1       1.968   7.999  19.251  0.00  0.00    +0.000 A 
ATOM     20  C   UNL     1       1.485   8.153  20.558  0.00  0.00    +0.000 A 
ATOM     21  C   UNL     1       0.591   9.182  20.872  0.00  0.00    +0.000 A 
ATOM     22  C   UNL     1       0.171  10.066  19.881  0.00  0.00    +0.000 A 
ATOM     23 CL   UNL     1      -0.917  11.338  20.269  0.00  0.00    +0.000 Cl
ATOM     24  C   UNL     1       0.631   9.926  18.576  0.00  0.00    +0.000 A 
ATOM     25  C   UNL     1       1.522   8.898  18.265  0.00  0.00    +0.000 A 
ENDBRANCH  17  19
ENDBRANCH   2  14
TORSDOF 5
ENDMDL
MODEL 6
REMARK VINA RESULT:      -7.6      4.435      8.881
REMARK  Name = 
REMARK  5 active torsions:
REMARK  status: ('A' for Active; 'I' for Inactive)
REMARK    1  A    between atoms: C_2  and  C_3
REMARK    2  A    between atoms: C_3  and  C_4
REMARK    3  A    between atoms: C_8  and  N_9
REMARK    4  A    between atoms: C_10  and  C_12
REMARK    5  A    between atoms: C_15  and  C_16
REMARK                            x       y       z     vdW  Elec       q    Type
REMARK                         _______ _______ _______ _____ _____    ______ ____
ROOT
ATOM      1  N   UNL     1       1.232   9.180  18.858  0.00  0.00    +0.000 N 
ATOM      2  C   UNL     1       1.386   8.439  20.020  0.00  0.00    +0.000 C 
ATOM      3  O   UNL     1       0.924   8.736  21.117  0.00  0.00    +0.000 OA
ATOM      4  H   UNL     1       1.583   8.737  18.017  0.00  0.00    +0.000 HD
ENDROOT
BRANCH   1   9
ATOM      5  C   UNL     1      -1.532  11.522  18.060  0.00  0.00    +0.000 A 
ATOM      6  C   UNL     1      -0.978  12.745  18.461  0.00  0.00    +0.000 A 
ATOM      7  C   UNL     1       0.313  12.793  18.977  0.00  0.00    +0.000 A 
ATOM      8  C   UNL     1       1.062  11.624  19.110  0.00  0.00    +0.000 A 
ATOM      9  C   UNL     1       0.532  10.393  18.718  0.00  0.00    +0.000 A 
ATOM     10  C   UNL     1      -0.755  10.353  18.167  0.00  0.00    +0.000 A 
BRANCH   5  11
ATOM     11  C   UNL     1      -2.936  11.461  17.510  0.00  0.00    +0.000 C 
BRANCH  11  13
ATOM     12  N   UNL     1      -3.037  10.614  15.023  0.00  0.00    +0.000 NA
ATOM     13  C   UNL     1      -2.980  10.986  16.119  0.00  0.00    +0.000 C 
ENDBRANCH  11  13
ENDBRANCH   5  11
ENDBRANCH   1   9
BRANCH   2  14
ATOM     14  C   UNL     1       2.116   7.205  19.819  0.00  0.00    +0.000 A 
ATOM     15  C   UNL     1       2.169   6.049  20.570  0.00  0.00    +0.000 A 
ATOM     16  C   UNL     1       3.003   5.146  19.868  0.00  0.00    +0.000 A 
ATOM     17  C   UNL     1       3.416   5.799  18.720  0.00  0.00    +0.000 A 
ATOM     18  O   UNL     1       2.888   7.058  18.701  0.00  0.00    +0.000 OA
BRANCH  17  19
ATOM     19  C   UNL     1       4.228   5.439  17.565  0.00  0.00    +0.000 A 
ATOM     20  C   UNL     1       4.582   4.105  17.318  0.00  0.00    +0.000 A 
ATOM     21  C   UNL     1       5.330   3.762  16.186  0.00  0.00    +0.000 A 
ATOM     22  C   UNL     1       5.732   4.752  15.293  0.00  0.00    +0.000 A 
ATOM     23 CL   UNL     1       6.639   4.331  13.895  0.00  0.00    +0.000 Cl
ATOM     24  C   UNL     1       5.400   6.083  15.523  0.00  0.00    +0.000 A 
ATOM     25  C   UNL     1       4.655   6.422  16.653  0.00  0.00    +0.000 A 
ENDBRANCH  17  19
ENDBRANCH   2  14
TORSDOF 5
ENDMDL
MODEL 7
REMARK VINA RESULT:      -7.6      1.303      1.714
REMARK  Name = 
REMARK  5 active torsions:
REMARK  status: ('A' for Active; 'I' for Inactive)
REMARK    1  A    between atoms: C_2  and  C_3
REMARK    2  A    between atoms: C_3  and  C_4
REMARK    3  A    between atoms: C_8  and  N_9
REMARK    4  A    between atoms: C_10  and  C_12
REMARK    5  A    between atoms: C_15  and  C_16
REMARK                            x       y       z     vdW  Elec       q    Type
REMARK                         _______ _______ _______ _____ _____    ______ ____
ROOT
ATOM      1  N   UNL     1       5.152   4.904  15.740  0.00  0.00    +0.000 N 
ATOM      2  C   UNL     1       4.840   4.026  16.767  0.00  0.00    +0.000 C 
ATOM      3  O   UNL     1       5.073   2.821  16.765  0.00  0.00    +0.000 OA
ATOM      4  H   UNL     1       4.990   5.883  15.948  0.00  0.00    +0.000 HD
ENDROOT
BRANCH   1   9
ATOM      5  C   UNL     1       5.619   3.515  12.332  0.00  0.00    +0.000 A 
ATOM      6  C   UNL     1       6.913   3.959  12.031  0.00  0.00    +0.000 A 
ATOM      7  C   UNL     1       7.634   4.700  12.963  0.00  0.00    +0.000 A 
ATOM      8  C   UNL     1       7.069   5.016  14.199  0.00  0.00    +0.000 A 
ATOM      9  C   UNL     1       5.781   4.587  14.521  0.00  0.00    +0.000 A 
ATOM     10  C   UNL     1       5.072   3.812  13.595  0.00  0.00    +0.000 A 
BRANCH   5  11
ATOM     11  C   UNL     1       4.828   2.721  11.322  0.00  0.00    +0.000 C 
BRANCH  11  13
ATOM     12  N   UNL     1       3.046   4.165  10.036  0.00  0.00    +0.000 NA
ATOM     13  C   UNL     1       3.837   3.539  10.606  0.00  0.00    +0.000 C 
ENDBRANCH  11  13
ENDBRANCH   5  11
ENDBRANCH   1   9
BRANCH   2  14
ATOM     14  C   UNL     1       4.244   4.677  17.914  0.00  0.00    +0.000 A 
ATOM     15  C   UNL     1       4.286   4.364  19.258  0.00  0.00    +0.000 A 
ATOM     16  C   UNL     1       3.568   5.381  19.933  0.00  0.00    +0.000 A 
ATOM     17  C   UNL     1       3.125   6.264  18.965  0.00  0.00    +0.000 A 
ATOM     18  O   UNL     1       3.524   5.824  17.735  0.00  0.00    +0.000 OA
BRANCH  17  19
ATOM     19  C   UNL     1       2.388   7.521  18.976  0.00  0.00    +0.000 A 
ATOM     20  C   UNL     1       2.318   8.327  17.832  0.00  0.00    +0.000 A 
ATOM     21  C   UNL     1       1.577   9.514  17.838  0.00  0.00    +0.000 A 
ATOM     22  C   UNL     1       0.902   9.906  18.991  0.00  0.00    +0.000 A 
ATOM     23 CL   UNL     1      -0.019  11.357  18.996  0.00  0.00    +0.000 Cl
ATOM     24  C   UNL     1       0.965   9.125  20.141  0.00  0.00    +0.000 A 
ATOM     25  C   UNL     1       1.705   7.943  20.131  0.00  0.00    +0.000 A 
ENDBRANCH  17  19
ENDBRANCH   2  14
TORSDOF 5
ENDMDL
MODEL 8
REMARK VINA RESULT:      -7.6      1.481      1.867
REMARK  Name = 
REMARK  5 active torsions:
REMARK  status: ('A' for Active; 'I' for Inactive)
REMARK    1  A    between atoms: C_2  and  C_3
REMARK    2  A    between atoms: C_3  and  C_4
REMARK    3  A    between atoms: C_8  and  N_9
REMARK    4  A    between atoms: C_10  and  C_12
REMARK    5  A    between atoms: C_15  and  C_16
REMARK                            x       y       z     vdW  Elec       q    Type
REMARK                         _______ _______ _______ _____ _____    ______ ____
ROOT
ATOM      1  N   UNL     1       5.160   4.715  15.660  0.00  0.00    +0.000 N 
ATOM      2  C   UNL     1       5.402   5.815  16.468  0.00  0.00    +0.000 C 
ATOM      3  O   UNL     1       6.196   6.717  16.219  0.00  0.00    +0.000 OA
ATOM      4  H   UNL     1       4.394   4.122  15.961  0.00  0.00    +0.000 HD
ENDROOT
BRANCH   1   9
ATOM      5  C   UNL     1       5.559   3.427  12.204  0.00  0.00    +0.000 A 
ATOM      6  C   UNL     1       6.857   3.858  11.900  0.00  0.00    +0.000 A 
ATOM      7  C   UNL     1       7.602   4.557  12.845  0.00  0.00    +0.000 A 
ATOM      8  C   UNL     1       7.059   4.843  14.097  0.00  0.00    +0.000 A 
ATOM      9  C   UNL     1       5.767   4.426  14.424  0.00  0.00    +0.000 A 
ATOM     10  C   UNL     1       5.033   3.693  13.483  0.00  0.00    +0.000 A 
BRANCH   5  11
ATOM     11  C   UNL     1       4.741   2.678  11.180  0.00  0.00    +0.000 C 
BRANCH  11  13
ATOM     12  N   UNL     1       3.029   4.241   9.939  0.00  0.00    +0.000 NA
ATOM     13  C   UNL     1       3.779   3.542  10.480  0.00  0.00    +0.000 C 
ENDBRANCH  11  13
ENDBRANCH   5  11
ENDBRANCH   1   9
BRANCH   2  14
ATOM     14  C   UNL     1       4.571   5.849  17.653  0.00  0.00    +0.000 A 
ATOM     15  C   UNL     1       4.492   4.991  18.731  0.00  0.00    +0.000 A 
ATOM     16  C   UNL     1       3.543   5.546  19.623  0.00  0.00    +0.000 A 
ATOM     17  C   UNL     1       3.092   6.718  19.043  0.00  0.00    +0.000 A 
ATOM     18  O   UNL     1       3.707   6.891  17.835  0.00  0.00    +0.000 OA
BRANCH  17  19
ATOM     19  C   UNL     1       2.169   7.775  19.437  0.00  0.00    +0.000 A 
ATOM     20  C   UNL     1       1.822   8.800  18.546  0.00  0.00    +0.000 A 
ATOM     21  C   UNL     1       0.907   9.790  18.919  0.00  0.00    +0.000 A 
ATOM     22  C   UNL     1       0.333   9.765  20.188  0.00  0.00    +0.000 A 
ATOM     23 CL   UNL     1      -0.801  10.974  20.642  0.00  0.00    +0.000 Cl
ATOM     24  C   UNL     1       0.670   8.762  21.090  0.00  0.00    +0.000 A 
ATOM     25  C   UNL     1       1.584   7.776  20.716  0.00  0.00    +0.000 A 
ENDBRANCH  17  19
ENDBRANCH   2  14
TORSDOF 5
ENDMDL
MODEL 9
REMARK VINA RESULT:      -7.5      4.392      8.871
REMARK  Name = 
REMARK  5 active torsions:
REMARK  status: ('A' for Active; 'I' for Inactive)
REMARK    1  A    between atoms: C_2  and  C_3
REMARK    2  A    between atoms: C_3  and  C_4
REMARK    3  A    between atoms: C_8  and  N_9
REMARK    4  A    between atoms: C_10  and  C_12
REMARK    5  A    between atoms: C_15  and  C_16
REMARK                            x       y       z     vdW  Elec       q    Type
REMARK                         _______ _______ _______ _____ _____    ______ ____
ROOT
ATOM      1  N   UNL     1       1.284   9.076  18.902  0.00  0.00    +0.000 N 
ATOM      2  C   UNL     1       1.500   8.311  20.038  0.00  0.00    +0.000 C 
ATOM      3  O   UNL     1       1.099   8.585  21.165  0.00  0.00    +0.000 OA
ATOM      4  H   UNL     1       1.589   8.651  18.034  0.00  0.00    +0.000 HD
ENDROOT
BRANCH   1   9
ATOM      5  C   UNL     1      -1.455  11.459  18.140  0.00  0.00    +0.000 A 
ATOM      6  C   UNL     1      -0.945  12.645  18.683  0.00  0.00    +0.000 A 
ATOM      7  C   UNL     1       0.311  12.657  19.283  0.00  0.00    +0.000 A 
ATOM      8  C   UNL     1       1.065  11.486  19.359  0.00  0.00    +0.000 A 
ATOM      9  C   UNL     1       0.578  10.292  18.826  0.00  0.00    +0.000 A 
ATOM     10  C   UNL     1      -0.671  10.291  18.192  0.00  0.00    +0.000 A 
BRANCH   5  11
ATOM     11  C   UNL     1      -2.821  11.437  17.497  0.00  0.00    +0.000 C 
BRANCH  11  13
ATOM     12  N   UNL     1      -2.774  10.447  15.062  0.00  0.00    +0.000 NA
ATOM     13  C   UNL     1      -2.799  10.873  16.139  0.00  0.00    +0.000 C 
ENDBRANCH  11  13
ENDBRANCH   5  11
ENDBRANCH   1   9
BRANCH   2  14
ATOM     14  C   UNL     1       2.218   7.082  19.771  0.00  0.00    +0.000 A 
ATOM     15  C   UNL     1       2.289   5.901  20.481  0.00  0.00    +0.000 A 
ATOM     16  C   UNL     1       3.096   5.020  19.721  0.00  0.00    +0.000 A 
ATOM     17  C   UNL     1       3.476   5.710  18.584  0.00  0.00    +0.000 A 
ATOM     18  O   UNL     1       2.953   6.971  18.625  0.00  0.00    +0.000 OA
BRANCH  17  19
ATOM     19  C   UNL     1       4.248   5.387  17.392  0.00  0.00    +0.000 A 
ATOM     20  C   UNL     1       4.713   6.395  16.537  0.00  0.00    +0.000 A 
ATOM     21  C   UNL     1       5.487   6.080  15.414  0.00  0.00    +0.000 A 
ATOM     22  C   UNL     1       5.799   4.752  15.136  0.00  0.00    +0.000 A 
ATOM     23 CL   UNL     1       6.760   4.365  13.765  0.00  0.00    +0.000 Cl
ATOM     24  C   UNL     1       5.340   3.734  15.966  0.00  0.00    +0.000 A 
ATOM     25  C   UNL     1       4.569   4.052  17.084  0.00  0.00    +0.000 A 
ENDBRANCH  17  19
ENDBRANCH   2  14
TORSDOF 5
ENDMDL
