MODEL 1
REMARK VINA RESULT:      -8.8      0.000      0.000
REMARK  Name = 
REMARK  6 active torsions:
REMARK  status: ('A' for Active; 'I' for Inactive)
REMARK    1  A    between atoms: C_1  and  S_2
REMARK    2  A    between atoms: S_2  and  C_3
REMARK    3  A    between atoms: C_8  and  N_9
REMARK    4  A    between atoms: C_15  and  N_16
REMARK    5  A    between atoms: N_16  and  C_17
REMARK    6  A    between atoms: C_19  and  C_20
REMARK                            x       y       z     vdW  Elec       q    Type
REMARK                         _______ _______ _______ _____ _____    ______ ____
ROOT
ATOM      1  N   UNL     1       4.490   3.080  18.580  0.00  0.00    +0.000 N 
ATOM      2  C   UNL     1       5.550   3.995  18.480  0.00  0.00    +0.000 A 
ATOM      3  N   UNL     1       5.969   4.652  19.573  0.00  0.00    +0.000 NA
ATOM      4  C   UNL     1       6.727   5.742  19.393  0.00  0.00    +0.000 A 
ATOM      5  C   UNL     1       7.135   6.176  18.155  0.00  0.00    +0.000 A 
ATOM      6 BR   UNL     1       7.966   7.863  17.970  0.00  0.00    +0.000 Br
ATOM      7  C   UNL     1       6.816   5.350  17.088  0.00  0.00    +0.000 A 
ATOM      8  N   UNL     1       6.026   4.259  17.250  0.00  0.00    +0.000 NA
ATOM      9  H   UNL     1       4.138   2.897  17.642  0.00  0.00    +0.000 HD
ENDROOT
BRANCH   1  15
ATOM     10  C   UNL     1       2.314   4.029  19.295  0.00  0.00    +0.000 A 
ATOM     11  C   UNL     1       1.262   4.052  20.234  0.00  0.00    +0.000 A 
ATOM     12  C   UNL     1       1.339   3.316  21.419  0.00  0.00    +0.000 A 
ATOM     13  C   UNL     1       2.479   2.582  21.698  0.00  0.00    +0.000 A 
ATOM     14  C   UNL     1       3.515   2.543  20.764  0.00  0.00    +0.000 A 
ATOM     15  C   UNL     1       3.432   3.203  19.524  0.00  0.00    +0.000 A 
BRANCH  10  17
ATOM     16  C   UNL     1       3.008   6.593  18.530  0.00  0.00    +0.000 C 
ATOM     17  S   UNL     1       2.133   5.143  17.900  0.00  0.00    +0.000 S 
ENDBRANCH  10  17
ENDBRANCH   1  15
BRANCH   7  18
ATOM     18  N   UNL     1       7.384   5.599  15.801  0.00  0.00    +0.000 N 
ATOM     19  H   UNL     1       7.851   6.504  15.762  0.00  0.00    +0.000 HD
BRANCH  18  20
ATOM     20  C   UNL     1       6.856   5.100  14.654  0.00  0.00    +0.000 A 
ATOM     21  C   UNL     1       5.646   4.511  14.350  0.00  0.00    +0.000 A 
ATOM     22  C   UNL     1       5.838   3.977  13.055  0.00  0.00    +0.000 A 
ATOM     23  N   UNL     1       6.991   4.362  12.503  0.00  0.00    +0.000 NA
ATOM     24  N   UNL     1       7.569   5.075  13.480  0.00  0.00    +0.000 N 
ATOM     25  H   UNL     1       8.509   5.429  13.350  0.00  0.00    +0.000 HD
BRANCH  22  26
ATOM     26  C   UNL     1       4.900   2.984  12.388  0.00  0.00    +0.000 C 
ATOM     27  C   UNL     1       4.511   3.179  10.937  0.00  0.00    +0.000 C 
ATOM     28  C   UNL     1       5.495   2.117  11.288  0.00  0.00    +0.000 C 
ENDBRANCH  22  26
ENDBRANCH  18  20
ENDBRANCH   7  18
TORSDOF 5
ENDMDL
MODEL 2
REMARK VINA RESULT:      -8.4      0.956      1.168
REMARK  Name = 
REMARK  6 active torsions:
REMARK  status: ('A' for Active; 'I' for Inactive)
REMARK    1  A    between atoms: C_1  and  S_2
REMARK    2  A    between atoms: S_2  and  C_3
REMARK    3  A    between atoms: C_8  and  N_9
REMARK    4  A    between atoms: C_15  and  N_16
REMARK    5  A    between atoms: N_16  and  C_17
REMARK    6  A    between atoms: C_19  and  C_20
REMARK                            x       y       z     vdW  Elec       q    Type
REMARK                         _______ _______ _______ _____ _____    ______ ____
ROOT
ATOM      1  N   UNL     1       4.382   2.951  18.595  0.00  0.00    +0.000 N 
ATOM      2  C   UNL     1       5.393   3.899  18.368  0.00  0.00    +0.000 A 
ATOM      3  N   UNL     1       5.833   4.658  19.383  0.00  0.00    +0.000 NA
ATOM      4  C   UNL     1       6.531   5.762  19.078  0.00  0.00    +0.000 A 
ATOM      5  C   UNL     1       6.858   6.112  17.791  0.00  0.00    +0.000 A 
ATOM      6 BR   UNL     1       7.600   7.811  17.431  0.00  0.00    +0.000 Br
ATOM      7  C   UNL     1       6.525   5.189  16.810  0.00  0.00    +0.000 A 
ATOM      8  N   UNL     1       5.795   4.082  17.098  0.00  0.00    +0.000 NA
ATOM      9  H   UNL     1       3.993   2.679  17.694  0.00  0.00    +0.000 HD
ENDROOT
BRANCH   1  15
ATOM     10  C   UNL     1       2.274   3.977  19.403  0.00  0.00    +0.000 A 
ATOM     11  C   UNL     1       1.261   4.032  20.382  0.00  0.00    +0.000 A 
ATOM     12  C   UNL     1       1.353   3.280  21.555  0.00  0.00    +0.000 A 
ATOM     13  C   UNL     1       2.473   2.498  21.783  0.00  0.00    +0.000 A 
ATOM     14  C   UNL     1       3.470   2.429  20.810  0.00  0.00    +0.000 A 
ATOM     15  C   UNL     1       3.366   3.106  19.580  0.00  0.00    +0.000 A 
BRANCH  10  17
ATOM     16  C   UNL     1       2.767   6.620  18.756  0.00  0.00    +0.000 C 
ATOM     17  S   UNL     1       2.085   5.114  18.026  0.00  0.00    +0.000 S 
ENDBRANCH  10  17
ENDBRANCH   1  15
BRANCH   7  18
ATOM     18  N   UNL     1       7.018   5.357  15.480  0.00  0.00    +0.000 N 
ATOM     19  H   UNL     1       7.265   6.327  15.286  0.00  0.00    +0.000 HD
BRANCH  18  20
ATOM     20  C   UNL     1       6.617   4.578  14.442  0.00  0.00    +0.000 A 
ATOM     21  C   UNL     1       7.298   3.865  13.479  0.00  0.00    +0.000 A 
ATOM     22  C   UNL     1       6.299   3.503  12.546  0.00  0.00    +0.000 A 
ATOM     23  N   UNL     1       5.067   3.783  12.975  0.00  0.00    +0.000 NA
ATOM     24  N   UNL     1       5.287   4.398  14.145  0.00  0.00    +0.000 N 
ATOM     25  H   UNL     1       4.507   4.790  14.658  0.00  0.00    +0.000 HD
BRANCH  22  26
ATOM     26  C   UNL     1       6.580   2.955  11.156  0.00  0.00    +0.000 C 
ATOM     27  C   UNL     1       7.672   1.922  10.965  0.00  0.00    +0.000 C 
ATOM     28  C   UNL     1       6.247   1.488  10.922  0.00  0.00    +0.000 C 
ENDBRANCH  22  26
ENDBRANCH  18  20
ENDBRANCH   7  18
TORSDOF 5
ENDMDL
MODEL 3
REMARK VINA RESULT:      -8.1      5.639      7.864
REMARK  Name = 
REMARK  6 active torsions:
REMARK  status: ('A' for Active; 'I' for Inactive)
REMARK    1  A    between atoms: C_1  and  S_2
REMARK    2  A    between atoms: S_2  and  C_3
REMARK    3  A    between atoms: C_8  and  N_9
REMARK    4  A    between atoms: C_15  and  N_16
REMARK    5  A    between atoms: N_16  and  C_17
REMARK    6  A    between atoms: C_19  and  C_20
REMARK                            x       y       z     vdW  Elec       q    Type
REMARK                         _______ _______ _______ _____ _____    ______ ____
ROOT
ATOM      1  N   UNL     1       2.961   6.593  17.938  0.00  0.00    +0.000 N 
ATOM      2  C   UNL     1       2.480   7.365  19.008  0.00  0.00    +0.000 A 
ATOM      3  N   UNL     1       2.432   6.837  20.241  0.00  0.00    +0.000 NA
ATOM      4  C   UNL     1       1.669   7.455  21.154  0.00  0.00    +0.000 A 
ATOM      5  C   UNL     1       0.990   8.621  20.899  0.00  0.00    +0.000 A 
ATOM      6 BR   UNL     1      -0.272   9.274  22.144  0.00  0.00    +0.000 Br
ATOM      7  C   UNL     1       1.229   9.204  19.662  0.00  0.00    +0.000 A 
ATOM      8  N   UNL     1       1.975   8.577  18.718  0.00  0.00    +0.000 NA
ATOM      9  H   UNL     1       2.672   7.039  17.069  0.00  0.00    +0.000 HD
ENDROOT
BRANCH   1  15
ATOM     10  C   UNL     1       3.944   4.328  17.714  0.00  0.00    +0.000 A 
ATOM     11  C   UNL     1       3.761   2.930  17.728  0.00  0.00    +0.000 A 
ATOM     12  C   UNL     1       2.484   2.373  17.834  0.00  0.00    +0.000 A 
ATOM     13  C   UNL     1       1.376   3.202  17.886  0.00  0.00    +0.000 A 
ATOM     14  C   UNL     1       1.554   4.585  17.889  0.00  0.00    +0.000 A 
ATOM     15  C   UNL     1       2.831   5.177  17.870  0.00  0.00    +0.000 A 
BRANCH  10  17
ATOM     16  C   UNL     1       6.153   5.227  19.112  0.00  0.00    +0.000 C 
ATOM     17  S   UNL     1       5.624   4.887  17.418  0.00  0.00    +0.000 S 
ENDBRANCH  10  17
ENDBRANCH   1  15
BRANCH   7  18
ATOM     18  N   UNL     1       0.748  10.521  19.392  0.00  0.00    +0.000 N 
ATOM     19  H   UNL     1       1.028  11.183  20.115  0.00  0.00    +0.000 HD
BRANCH  18  20
ATOM     20  C   UNL     1      -0.407  10.759  18.718  0.00  0.00    +0.000 A 
ATOM     21  C   UNL     1      -1.486   9.968  18.387  0.00  0.00    +0.000 A 
ATOM     22  C   UNL     1      -2.212  10.746  17.456  0.00  0.00    +0.000 A 
ATOM     23  N   UNL     1      -1.751  11.995  17.357  0.00  0.00    +0.000 NA
ATOM     24  N   UNL     1      -0.680  11.986  18.163  0.00  0.00    +0.000 N 
ATOM     25  H   UNL     1      -0.089  12.805  18.216  0.00  0.00    +0.000 HD
BRANCH  22  26
ATOM     26  C   UNL     1      -3.329  10.211  16.574  0.00  0.00    +0.000 C 
ATOM     27  C   UNL     1      -3.714  10.960  15.315  0.00  0.00    +0.000 C 
ATOM     28  C   UNL     1      -2.926   9.701  15.199  0.00  0.00    +0.000 C 
ENDBRANCH  22  26
ENDBRANCH  18  20
ENDBRANCH   7  18
TORSDOF 5
ENDMDL
MODEL 4
REMARK VINA RESULT:      -8.1      5.933      8.497
REMARK  Name = 
REMARK  6 active torsions:
REMARK  status: ('A' for Active; 'I' for Inactive)
REMARK    1  A    between atoms: C_1  and  S_2
REMARK    2  A    between atoms: S_2  and  C_3
REMARK    3  A    between atoms: C_8  and  N_9
REMARK    4  A    between atoms: C_15  and  N_16
REMARK    5  A    between atoms: N_16  and  C_17
REMARK    6  A    between atoms: C_19  and  C_20
REMARK                            x       y       z     vdW  Elec       q    Type
REMARK                         _______ _______ _______ _____ _____    ______ ____
ROOT
ATOM      1  N   UNL     1       2.825   6.873  17.854  0.00  0.00    +0.000 N 
ATOM      2  C   UNL     1       2.330   7.670  18.900  0.00  0.00    +0.000 A 
ATOM      3  N   UNL     1       2.438   7.246  20.168  0.00  0.00    +0.000 NA
ATOM      4  C   UNL     1       1.672   7.843  21.092  0.00  0.00    +0.000 A 
ATOM      5  C   UNL     1       0.835   8.894  20.807  0.00  0.00    +0.000 A 
ATOM      6 BR   UNL     1      -0.405   9.494  22.100  0.00  0.00    +0.000 Br
ATOM      7  C   UNL     1       0.909   9.394  19.515  0.00  0.00    +0.000 A 
ATOM      8  N   UNL     1       1.657   8.784  18.563  0.00  0.00    +0.000 NA
ATOM      9  H   UNL     1       2.420   7.207  16.981  0.00  0.00    +0.000 HD
ENDROOT
BRANCH   1  15
ATOM     10  C   UNL     1       4.084   4.741  17.988  0.00  0.00    +0.000 A 
ATOM     11  C   UNL     1       4.061   3.337  18.109  0.00  0.00    +0.000 A 
ATOM     12  C   UNL     1       2.855   2.632  18.084  0.00  0.00    +0.000 A 
ATOM     13  C   UNL     1       1.665   3.314  17.899  0.00  0.00    +0.000 A 
ATOM     14  C   UNL     1       1.682   4.706  17.796  0.00  0.00    +0.000 A 
ATOM     15  C   UNL     1       2.870   5.451  17.904  0.00  0.00    +0.000 A 
BRANCH  10  17
ATOM     16  C   UNL     1       6.483   4.405  16.657  0.00  0.00    +0.000 C 
ATOM     17  S   UNL     1       5.714   5.485  17.884  0.00  0.00    +0.000 S 
ENDBRANCH  10  17
ENDBRANCH   1  15
BRANCH   7  18
ATOM     18  N   UNL     1       0.247  10.617  19.188  0.00  0.00    +0.000 N 
ATOM     19  H   UNL     1       0.415  11.338  19.889  0.00  0.00    +0.000 HD
BRANCH  18  20
ATOM     20  C   UNL     1      -0.916  10.661  18.489  0.00  0.00    +0.000 A 
ATOM     21  C   UNL     1      -2.141  11.244  18.732  0.00  0.00    +0.000 A 
ATOM     22  C   UNL     1      -2.991  10.686  17.749  0.00  0.00    +0.000 A 
ATOM     23  N   UNL     1      -2.326   9.970  16.839  0.00  0.00    +0.000 NA
ATOM     24  N   UNL     1      -1.065  10.005  17.290  0.00  0.00    +0.000 N 
ATOM     25  H   UNL     1      -0.350   9.467  16.817  0.00  0.00    +0.000 HD
BRANCH  22  26
ATOM     26  C   UNL     1      -4.508  10.786  17.767  0.00  0.00    +0.000 C 
ATOM     27  C   UNL     1      -5.174  11.922  18.515  0.00  0.00    +0.000 C 
ATOM     28  C   UNL     1      -5.122  11.964  17.026  0.00  0.00    +0.000 C 
ENDBRANCH  22  26
ENDBRANCH  18  20
ENDBRANCH   7  18
TORSDOF 5
ENDMDL
MODEL 5
REMARK VINA RESULT:      -7.8      0.951      1.168
REMARK  Name = 
REMARK  6 active torsions:
REMARK  status: ('A' for Active; 'I' for Inactive)
REMARK    1  A    between atoms: C_1  and  S_2
REMARK    2  A    between atoms: S_2  and  C_3
REMARK    3  A    between atoms: C_8  and  N_9
REMARK    4  A    between atoms: C_15  and  N_16
REMARK    5  A    between atoms: N_16  and  C_17
REMARK    6  A    between atoms: C_19  and  C_20
REMARK                            x       y       z     vdW  Elec       q    Type
REMARK                         _______ _______ _______ _____ _____    ______ ____
ROOT
ATOM      1  N   UNL     1       4.664   2.732  19.303  0.00  0.00    +0.000 N 
ATOM      2  C   UNL     1       5.589   3.757  19.045  0.00  0.00    +0.000 A 
ATOM      3  N   UNL     1       5.622   4.839  19.839  0.00  0.00    +0.000 NA
ATOM      4  C   UNL     1       6.257   5.928  19.382  0.00  0.00    +0.000 A 
ATOM      5  C   UNL     1       6.915   5.962  18.177  0.00  0.00    +0.000 A 
ATOM      6 BR   UNL     1       7.544   7.605  17.488  0.00  0.00    +0.000 Br
ATOM      7  C   UNL     1       6.991   4.757  17.493  0.00  0.00    +0.000 A 
ATOM      8  N   UNL     1       6.331   3.655  17.929  0.00  0.00    +0.000 NA
ATOM      9  H   UNL     1       4.594   2.150  18.469  0.00  0.00    +0.000 HD
ENDROOT
BRANCH   1  15
ATOM     10  C   UNL     1       2.389   3.718  19.264  0.00  0.00    +0.000 A 
ATOM     11  C   UNL     1       1.122   3.841  19.869  0.00  0.00    +0.000 A 
ATOM     12  C   UNL     1       0.860   3.268  21.116  0.00  0.00    +0.000 A 
ATOM     13  C   UNL     1       1.870   2.603  21.790  0.00  0.00    +0.000 A 
ATOM     14  C   UNL     1       3.121   2.465  21.189  0.00  0.00    +0.000 A 
ATOM     15  C   UNL     1       3.390   2.955  19.897  0.00  0.00    +0.000 A 
BRANCH  10  17
ATOM     16  C   UNL     1       2.893   3.276  16.582  0.00  0.00    +0.000 C 
ATOM     17  S   UNL     1       2.614   4.636  17.738  0.00  0.00    +0.000 S 
ENDBRANCH  10  17
ENDBRANCH   1  15
BRANCH   7  18
ATOM     18  N   UNL     1       7.838   4.641  16.349  0.00  0.00    +0.000 N 
ATOM     19  H   UNL     1       8.766   5.025  16.524  0.00  0.00    +0.000 HD
BRANCH  18  20
ATOM     20  C   UNL     1       7.364   4.664  15.077  0.00  0.00    +0.000 A 
ATOM     21  C   UNL     1       6.492   3.854  14.381  0.00  0.00    +0.000 A 
ATOM     22  C   UNL     1       6.639   4.265  13.035  0.00  0.00    +0.000 A 
ATOM     23  N   UNL     1       7.381   5.368  12.911  0.00  0.00    +0.000 NA
ATOM     24  N   UNL     1       7.774   5.610  14.169  0.00  0.00    +0.000 N 
ATOM     25  H   UNL     1       8.424   6.364  14.352  0.00  0.00    +0.000 HD
BRANCH  22  26
ATOM     26  C   UNL     1       6.110   3.492  11.838  0.00  0.00    +0.000 C 
ATOM     27  C   UNL     1       5.304   2.228  12.060  0.00  0.00    +0.000 C 
ATOM     28  C   UNL     1       4.600   3.476  11.651  0.00  0.00    +0.000 C 
ENDBRANCH  22  26
ENDBRANCH  18  20
ENDBRANCH   7  18
TORSDOF 5
ENDMDL
MODEL 6
REMARK VINA RESULT:      -7.8      3.730      5.293
REMARK  Name = 
REMARK  6 active torsions:
REMARK  status: ('A' for Active; 'I' for Inactive)
REMARK    1  A    between atoms: C_1  and  S_2
REMARK    2  A    between atoms: S_2  and  C_3
REMARK    3  A    between atoms: C_8  and  N_9
REMARK    4  A    between atoms: C_15  and  N_16
REMARK    5  A    between atoms: N_16  and  C_17
REMARK    6  A    between atoms: C_19  and  C_20
REMARK                            x       y       z     vdW  Elec       q    Type
REMARK                         _______ _______ _______ _____ _____    ______ ____
ROOT
ATOM      1  N   UNL     1       2.164   7.906  19.616  0.00  0.00    +0.000 N 
ATOM      2  C   UNL     1       2.260   6.509  19.716  0.00  0.00    +0.000 A 
ATOM      3  N   UNL     1       1.198   5.795  20.119  0.00  0.00    +0.000 NA
ATOM      4  C   UNL     1       1.411   4.536  20.528  0.00  0.00    +0.000 A 
ATOM      5  C   UNL     1       2.646   3.937  20.497  0.00  0.00    +0.000 A 
ATOM      6 BR   UNL     1       2.909   2.267  21.341  0.00  0.00    +0.000 Br
ATOM      7  C   UNL     1       3.662   4.671  19.903  0.00  0.00    +0.000 A 
ATOM      8  N   UNL     1       3.469   5.956  19.511  0.00  0.00    +0.000 NA
ATOM      9  H   UNL     1       3.108   8.288  19.572  0.00  0.00    +0.000 HD
ENDROOT
BRANCH   1  15
ATOM     10  C   UNL     1       0.396   9.619  19.909  0.00  0.00    +0.000 A 
ATOM     11  C   UNL     1      -0.469  10.319  20.775  0.00  0.00    +0.000 A 
ATOM     12  C   UNL     1      -0.388  10.157  22.159  0.00  0.00    +0.000 A 
ATOM     13  C   UNL     1       0.583   9.328  22.697  0.00  0.00    +0.000 A 
ATOM     14  C   UNL     1       1.430   8.621  21.844  0.00  0.00    +0.000 A 
ATOM     15  C   UNL     1       1.316   8.696  20.443  0.00  0.00    +0.000 A 
BRANCH  10  17
ATOM     16  C   UNL     1      -1.515  10.304  18.031  0.00  0.00    +0.000 C 
ATOM     17  S   UNL     1       0.268  10.049  18.171  0.00  0.00    +0.000 S 
ENDBRANCH  10  17
ENDBRANCH   1  15
BRANCH   7  18
ATOM     18  N   UNL     1       4.918   4.052  19.625  0.00  0.00    +0.000 N 
ATOM     19  H   UNL     1       5.463   3.900  20.473  0.00  0.00    +0.000 HD
BRANCH  18  20
ATOM     20  C   UNL     1       5.588   4.236  18.458  0.00  0.00    +0.000 A 
ATOM     21  C   UNL     1       5.214   4.157  17.133  0.00  0.00    +0.000 A 
ATOM     22  C   UNL     1       6.439   4.193  16.426  0.00  0.00    +0.000 A 
ATOM     23  N   UNL     1       7.480   4.473  17.213  0.00  0.00    +0.000 NA
ATOM     24  N   UNL     1       6.929   4.534  18.433  0.00  0.00    +0.000 N 
ATOM     25  H   UNL     1       7.523   4.661  19.243  0.00  0.00    +0.000 HD
BRANCH  22  26
ATOM     26  C   UNL     1       6.591   3.848  14.954  0.00  0.00    +0.000 C 
ATOM     27  C   UNL     1       5.524   4.281  13.969  0.00  0.00    +0.000 C 
ATOM     28  C   UNL     1       6.822   5.012  14.001  0.00  0.00    +0.000 C 
ENDBRANCH  22  26
ENDBRANCH  18  20
ENDBRANCH   7  18
TORSDOF 5
ENDMDL
MODEL 7
REMARK VINA RESULT:      -7.8      5.809      8.436
REMARK  Name = 
REMARK  6 active torsions:
REMARK  status: ('A' for Active; 'I' for Inactive)
REMARK    1  A    between atoms: C_1  and  S_2
REMARK    2  A    between atoms: S_2  and  C_3
REMARK    3  A    between atoms: C_8  and  N_9
REMARK    4  A    between atoms: C_15  and  N_16
REMARK    5  A    between atoms: N_16  and  C_17
REMARK    6  A    between atoms: C_19  and  C_20
REMARK                            x       y       z     vdW  Elec       q    Type
REMARK                         _______ _______ _______ _____ _____    ______ ____
ROOT
ATOM      1  N   UNL     1       3.041   6.513  17.943  0.00  0.00    +0.000 N 
ATOM      2  C   UNL     1       2.501   7.521  18.758  0.00  0.00    +0.000 A 
ATOM      3  N   UNL     1       2.303   7.287  20.065  0.00  0.00    +0.000 NA
ATOM      4  C   UNL     1       1.490   8.119  20.730  0.00  0.00    +0.000 A 
ATOM      5  C   UNL     1       0.905   9.219  20.152  0.00  0.00    +0.000 A 
ATOM      6 BR   UNL     1      -0.434  10.176  21.079  0.00  0.00    +0.000 Br
ATOM      7  C   UNL     1       1.296   9.499  18.851  0.00  0.00    +0.000 A 
ATOM      8  N   UNL     1       2.096   8.653  18.155  0.00  0.00    +0.000 NA
ATOM      9  H   UNL     1       2.864   6.760  16.971  0.00  0.00    +0.000 HD
ENDROOT
BRANCH   1  15
ATOM     10  C   UNL     1       3.860   4.292  18.681  0.00  0.00    +0.000 A 
ATOM     11  C   UNL     1       3.579   2.939  18.961  0.00  0.00    +0.000 A 
ATOM     12  C   UNL     1       2.322   2.393  18.690  0.00  0.00    +0.000 A 
ATOM     13  C   UNL     1       1.347   3.179  18.099  0.00  0.00    +0.000 A 
ATOM     14  C   UNL     1       1.615   4.522  17.835  0.00  0.00    +0.000 A 
ATOM     15  C   UNL     1       2.841   5.123  18.177  0.00  0.00    +0.000 A 
BRANCH  10  17
ATOM     16  C   UNL     1       6.212   4.625  17.268  0.00  0.00    +0.000 C 
ATOM     17  S   UNL     1       5.561   4.802  18.944  0.00  0.00    +0.000 S 
ENDBRANCH  10  17
ENDBRANCH   1  15
BRANCH   7  18
ATOM     18  N   UNL     1       0.918  10.737  18.246  0.00  0.00    +0.000 N 
ATOM     19  H   UNL     1       0.498  10.598  17.328  0.00  0.00    +0.000 HD
BRANCH  18  20
ATOM     20  C   UNL     1       1.576  11.902  18.480  0.00  0.00    +0.000 A 
ATOM     21  C   UNL     1       1.432  12.892  19.428  0.00  0.00    +0.000 A 
ATOM     22  C   UNL     1       2.243  13.948  18.951  0.00  0.00    +0.000 A 
ATOM     23  N   UNL     1       2.991  13.591  17.904  0.00  0.00    +0.000 NA
ATOM     24  N   UNL     1       2.595  12.333  17.666  0.00  0.00    +0.000 N 
ATOM     25  H   UNL     1       2.958  11.840  16.859  0.00  0.00    +0.000 HD
BRANCH  22  26
ATOM     26  C   UNL     1       2.204  15.370  19.485  0.00  0.00    +0.000 C 
ATOM     27  C   UNL     1       2.593  16.521  18.580  0.00  0.00    +0.000 C 
ATOM     28  C   UNL     1       1.152  16.294  18.886  0.00  0.00    +0.000 C 
ENDBRANCH  22  26
ENDBRANCH  18  20
ENDBRANCH   7  18
TORSDOF 5
ENDMDL
MODEL 8
REMARK VINA RESULT:      -7.7      3.298      4.289
REMARK  Name = 
REMARK  6 active torsions:
REMARK  status: ('A' for Active; 'I' for Inactive)
REMARK    1  A    between atoms: C_1  and  S_2
REMARK    2  A    between atoms: S_2  and  C_3
REMARK    3  A    between atoms: C_8  and  N_9
REMARK    4  A    between atoms: C_15  and  N_16
REMARK    5  A    between atoms: N_16  and  C_17
REMARK    6  A    between atoms: C_19  and  C_20
REMARK                            x       y       z     vdW  Elec       q    Type
REMARK                         _______ _______ _______ _____ _____    ______ ____
ROOT
ATOM      1  N   UNL     1       2.685   7.898  18.452  0.00  0.00    +0.000 N 
ATOM      2  C   UNL     1       2.842   6.561  18.050  0.00  0.00    +0.000 A 
ATOM      3  N   UNL     1       1.810   5.709  18.154  0.00  0.00    +0.000 NA
ATOM      4  C   UNL     1       2.078   4.397  18.092  0.00  0.00    +0.000 A 
ATOM      5  C   UNL     1       3.338   3.898  17.871  0.00  0.00    +0.000 A 
ATOM      6 BR   UNL     1       3.672   2.049  18.069  0.00  0.00    +0.000 Br
ATOM      7  C   UNL     1       4.321   4.836  17.593  0.00  0.00    +0.000 A 
ATOM      8  N   UNL     1       4.073   6.167  17.680  0.00  0.00    +0.000 NA
ATOM      9  H   UNL     1       3.611   8.308  18.562  0.00  0.00    +0.000 HD
ENDROOT
BRANCH   1  15
ATOM     10  C   UNL     1       1.129   9.544  19.460  0.00  0.00    +0.000 A 
ATOM     11  C   UNL     1       0.211   9.861  20.482  0.00  0.00    +0.000 A 
ATOM     12  C   UNL     1       0.003   8.995  21.557  0.00  0.00    +0.000 A 
ATOM     13  C   UNL     1       0.736   7.824  21.647  0.00  0.00    +0.000 A 
ATOM     14  C   UNL     1       1.634   7.498  20.630  0.00  0.00    +0.000 A 
ATOM     15  C   UNL     1       1.802   8.307  19.491  0.00  0.00    +0.000 A 
BRANCH  10  17
ATOM     16  C   UNL     1       0.458  12.181  18.969  0.00  0.00    +0.000 C 
ATOM     17  S   UNL     1       1.396  10.824  18.231  0.00  0.00    +0.000 S 
ENDBRANCH  10  17
ENDBRANCH   1  15
BRANCH   7  18
ATOM     18  N   UNL     1       5.604   4.407  17.134  0.00  0.00    +0.000 N 
ATOM     19  H   UNL     1       6.308   4.463  17.868  0.00  0.00    +0.000 HD
BRANCH  18  20
ATOM     20  C   UNL     1       6.009   4.547  15.845  0.00  0.00    +0.000 A 
ATOM     21  C   UNL     1       5.520   4.074  14.646  0.00  0.00    +0.000 A 
ATOM     22  C   UNL     1       6.551   4.354  13.719  0.00  0.00    +0.000 A 
ATOM     23  N   UNL     1       7.518   5.114  14.236  0.00  0.00    +0.000 NA
ATOM     24  N   UNL     1       7.143   5.250  15.516  0.00  0.00    +0.000 N 
ATOM     25  H   UNL     1       7.752   5.730  16.166  0.00  0.00    +0.000 HD
BRANCH  22  26
ATOM     26  C   UNL     1       6.624   3.773  12.316  0.00  0.00    +0.000 C 
ATOM     27  C   UNL     1       6.059   2.394  12.046  0.00  0.00    +0.000 C 
ATOM     28  C   UNL     1       5.303   3.592  11.583  0.00  0.00    +0.000 C 
ENDBRANCH  22  26
ENDBRANCH  18  20
ENDBRANCH   7  18
TORSDOF 5
ENDMDL
MODEL 9
REMARK VINA RESULT:      -7.7      6.187      8.614
REMARK  Name = 
REMARK  6 active torsions:
REMARK  status: ('A' for Active; 'I' for Inactive)
REMARK    1  A    between atoms: C_1  and  S_2
REMARK    2  A    between atoms: S_2  and  C_3
REMARK    3  A    between atoms: C_8  and  N_9
REMARK    4  A    between atoms: C_15  and  N_16
REMARK    5  A    between atoms: N_16  and  C_17
REMARK    6  A    between atoms: C_19  and  C_20
REMARK                            x       y       z     vdW  Elec       q    Type
REMARK                         _______ _______ _______ _____ _____    ______ ____
ROOT
ATOM      1  N   UNL     1       2.365   7.071  19.284  0.00  0.00    +0.000 N 
ATOM      2  C   UNL     1       1.872   8.120  20.076  0.00  0.00    +0.000 A 
ATOM      3  N   UNL     1       1.930   8.029  21.414  0.00  0.00    +0.000 NA
ATOM      4  C   UNL     1       1.162   8.864  22.129  0.00  0.00    +0.000 A 
ATOM      5  C   UNL     1       0.373   9.832  21.559  0.00  0.00    +0.000 A 
ATOM      6 BR   UNL     1      -0.878  10.777  22.613  0.00  0.00    +0.000 Br
ATOM      7  C   UNL     1       0.500   9.986  20.185  0.00  0.00    +0.000 A 
ATOM      8  N   UNL     1       1.250   9.132  19.445  0.00  0.00    +0.000 NA
ATOM      9  H   UNL     1       1.996   7.183  18.341  0.00  0.00    +0.000 HD
ENDROOT
BRANCH   1  15
ATOM     10  C   UNL     1       3.472   4.865  19.524  0.00  0.00    +0.000 A 
ATOM     11  C   UNL     1       3.428   3.545  20.016  0.00  0.00    +0.000 A 
ATOM     12  C   UNL     1       2.273   3.038  20.615  0.00  0.00    +0.000 A 
ATOM     13  C   UNL     1       1.138   3.827  20.693  0.00  0.00    +0.000 A 
ATOM     14  C   UNL     1       1.181   5.139  20.222  0.00  0.00    +0.000 A 
ATOM     15  C   UNL     1       2.355   5.707  19.693  0.00  0.00    +0.000 A 
BRANCH  10  17
ATOM     16  C   UNL     1       4.970   4.070  17.341  0.00  0.00    +0.000 C 
ATOM     17  S   UNL     1       4.972   5.317  18.648  0.00  0.00    +0.000 S 
ENDBRANCH  10  17
ENDBRANCH   1  15
BRANCH   7  18
ATOM     18  N   UNL     1      -0.106  11.104  19.537  0.00  0.00    +0.000 N 
ATOM     19  H   UNL     1      -0.098  11.936  20.126  0.00  0.00    +0.000 HD
BRANCH  18  20
ATOM     20  C   UNL     1      -1.106  10.975  18.626  0.00  0.00    +0.000 A 
ATOM     21  C   UNL     1      -2.407  11.428  18.583  0.00  0.00    +0.000 A 
ATOM     22  C   UNL     1      -2.983  10.720  17.502  0.00  0.00    +0.000 A 
ATOM     23  N   UNL     1      -2.082  10.033  16.796  0.00  0.00    +0.000 NA
ATOM     24  N   UNL     1      -0.946  10.238  17.477  0.00  0.00    +0.000 N 
ATOM     25  H   UNL     1      -0.101   9.758  17.194  0.00  0.00    +0.000 HD
BRANCH  22  26
ATOM     26  C   UNL     1      -4.476  10.648  17.221  0.00  0.00    +0.000 C 
ATOM     27  C   UNL     1      -5.458  11.152  18.259  0.00  0.00    +0.000 C 
ATOM     28  C   UNL     1      -5.200  11.975  17.044  0.00  0.00    +0.000 C 
ENDBRANCH  22  26
ENDBRANCH  18  20
ENDBRANCH   7  18
TORSDOF 5
ENDMDL
