MODEL 1
REMARK VINA RESULT:      -8.4      0.000      0.000
REMARK  Name = 
REMARK  8 active torsions:
REMARK  status: ('A' for Active; 'I' for Inactive)
REMARK    1  A    between atoms: C_6  and  S_7
REMARK    2  A    between atoms: S_7  and  C_8
REMARK    3  A    between atoms: N_16  and  C_17
REMARK    4  A    between atoms: C_17  and  C_18
REMARK    5  A    between atoms: C_18  and  C_19
REMARK    6  A    between atoms: C_19  and  C_20
REMARK    7  A    between atoms: C_20  and  C_21
REMARK    8  A    between atoms: C_21  and  C_22
REMARK                            x       y       z     vdW  Elec       q    Type
REMARK                         _______ _______ _______ _____ _____    ______ ____
ROOT
ATOM      1  C   UNL     1       4.181   6.055  18.297  0.00  0.00    +0.000 A 
ATOM      2  C   UNL     1       3.951   5.590  17.015  0.00  0.00    +0.000 A 
ATOM      3  C   UNL     1       5.021   5.182  16.211  0.00  0.00    +0.000 A 
ATOM      4  C   UNL     1       4.775   4.693  14.921  0.00  0.00    +0.000 A 
ATOM      5  C   UNL     1       5.823   4.257  14.116  0.00  0.00    +0.000 A 
ATOM      6  C   UNL     1       7.122   4.325  14.588  0.00  0.00    +0.000 A 
ATOM      7  C   UNL     1       7.388   4.819  15.868  0.00  0.00    +0.000 A 
ATOM      8  C   UNL     1       6.347   5.243  16.715  0.00  0.00    +0.000 A 
ATOM      9  N   UNL     1       6.548   5.705  17.992  0.00  0.00    +0.000 N 
ATOM     10  C   UNL     1       5.494   6.091  18.766  0.00  0.00    +0.000 A 
ENDROOT
BRANCH   1  11
ATOM     11  S   UNL     1       2.816   6.458  19.367  0.00  0.00    +0.000 S 
BRANCH  11  17
ATOM     12  F   UNL     1       0.237   2.036  18.647  0.00  0.00    +0.000 F 
ATOM     13  C   UNL     1       0.938   2.822  19.473  0.00  0.00    +0.000 A 
ATOM     14  C   UNL     1       1.177   2.402  20.776  0.00  0.00    +0.000 A 
ATOM     15  C   UNL     1       1.913   3.219  21.628  0.00  0.00    +0.000 A 
ATOM     16  C   UNL     1       2.390   4.452  21.169  0.00  0.00    +0.000 A 
ATOM     17  C   UNL     1       2.134   4.885  19.858  0.00  0.00    +0.000 A 
ATOM     18  C   UNL     1       1.414   4.045  19.005  0.00  0.00    +0.000 A 
ENDBRANCH  11  17
ENDBRANCH   1  11
BRANCH   9  19
ATOM     19  C   UNL     1       7.908   5.782  18.603  0.00  0.00    +0.000 C 
BRANCH  19  20
ATOM     20  C   UNL     1       8.209   7.237  18.935  0.00  0.00    +0.000 C 
BRANCH  20  21
ATOM     21  C   UNL     1       8.100   8.177  17.728  0.00  0.00    +0.000 C 
BRANCH  21  22
ATOM     22  C   UNL     1       8.225   9.615  18.238  0.00  0.00    +0.000 C 
BRANCH  22  23
ATOM     23  C   UNL     1       9.453  10.385  17.760  0.00  0.00    +0.000 C 
BRANCH  23  24
ATOM     24  C   UNL     1       9.419  11.861  18.242  0.00  0.00    +0.000 C 
ATOM     25  C   UNL     1       9.388  11.963  19.773  0.00  0.00    +0.000 C 
ATOM     26  C   UNL     1      10.726  11.600  20.413  0.00  0.00    +0.000 C 
ATOM     27  C   UNL     1      11.870  12.443  19.860  0.00  0.00    +0.000 C 
ATOM     28  C   UNL     1      11.917  12.466  18.334  0.00  0.00    +0.000 C 
ATOM     29  C   UNL     1      10.557  12.750  17.702  0.00  0.00    +0.000 C 
ENDBRANCH  23  24
ENDBRANCH  22  23
ENDBRANCH  21  22
ENDBRANCH  20  21
ENDBRANCH  19  20
ENDBRANCH   9  19
TORSDOF 8
ENDMDL
MODEL 2
REMARK VINA RESULT:      -8.3      0.756      1.412
REMARK  Name = 
REMARK  8 active torsions:
REMARK  status: ('A' for Active; 'I' for Inactive)
REMARK    1  A    between atoms: C_6  and  S_7
REMARK    2  A    between atoms: S_7  and  C_8
REMARK    3  A    between atoms: N_16  and  C_17
REMARK    4  A    between atoms: C_17  and  C_18
REMARK    5  A    between atoms: C_18  and  C_19
REMARK    6  A    between atoms: C_19  and  C_20
REMARK    7  A    between atoms: C_20  and  C_21
REMARK    8  A    between atoms: C_21  and  C_22
REMARK                            x       y       z     vdW  Elec       q    Type
REMARK                         _______ _______ _______ _____ _____    ______ ____
ROOT
ATOM      1  C   UNL     1       4.020   6.267  18.164  0.00  0.00    +0.000 A 
ATOM      2  C   UNL     1       3.873   5.445  17.061  0.00  0.00    +0.000 A 
ATOM      3  C   UNL     1       4.984   5.113  16.277  0.00  0.00    +0.000 A 
ATOM      4  C   UNL     1       4.828   4.262  15.174  0.00  0.00    +0.000 A 
ATOM      5  C   UNL     1       5.925   3.900  14.399  0.00  0.00    +0.000 A 
ATOM      6  C   UNL     1       7.177   4.399  14.709  0.00  0.00    +0.000 A 
ATOM      7  C   UNL     1       7.351   5.257  15.798  0.00  0.00    +0.000 A 
ATOM      8  C   UNL     1       6.266   5.621  16.617  0.00  0.00    +0.000 A 
ATOM      9  N   UNL     1       6.385   6.432  17.719  0.00  0.00    +0.000 N 
ATOM     10  C   UNL     1       5.294   6.739  18.477  0.00  0.00    +0.000 A 
ENDROOT
BRANCH   1  11
ATOM     11  S   UNL     1       2.635   6.591  19.234  0.00  0.00    +0.000 S 
BRANCH  11  17
ATOM     12  F   UNL     1       0.355   1.988  18.644  0.00  0.00    +0.000 F 
ATOM     13  C   UNL     1       1.018   2.835  19.441  0.00  0.00    +0.000 A 
ATOM     14  C   UNL     1       1.316   2.454  20.745  0.00  0.00    +0.000 A 
ATOM     15  C   UNL     1       2.013   3.335  21.566  0.00  0.00    +0.000 A 
ATOM     16  C   UNL     1       2.391   4.590  21.077  0.00  0.00    +0.000 A 
ATOM     17  C   UNL     1       2.075   4.982  19.766  0.00  0.00    +0.000 A 
ATOM     18  C   UNL     1       1.397   4.080  18.944  0.00  0.00    +0.000 A 
ENDBRANCH  11  17
ENDBRANCH   1  11
BRANCH   9  19
ATOM     19  C   UNL     1       7.699   6.991  18.155  0.00  0.00    +0.000 C 
BRANCH  19  20
ATOM     20  C   UNL     1       8.004   8.224  17.317  0.00  0.00    +0.000 C 
BRANCH  20  21
ATOM     21  C   UNL     1       7.962   9.534  18.114  0.00  0.00    +0.000 C 
BRANCH  21  22
ATOM     22  C   UNL     1       9.229   9.604  18.971  0.00  0.00    +0.000 C 
BRANCH  22  23
ATOM     23  C   UNL     1       9.362  10.838  19.861  0.00  0.00    +0.000 C 
BRANCH  23  24
ATOM     24  C   UNL     1      10.740  11.527  19.670  0.00  0.00    +0.000 C 
ATOM     25  C   UNL     1      11.115  11.660  18.188  0.00  0.00    +0.000 C 
ATOM     26  C   UNL     1      10.288  12.720  17.465  0.00  0.00    +0.000 C 
ATOM     27  C   UNL     1      10.382  14.080  18.149  0.00  0.00    +0.000 C 
ATOM     28  C   UNL     1      10.108  14.019  19.649  0.00  0.00    +0.000 C 
ATOM     29  C   UNL     1      10.879  12.904  20.349  0.00  0.00    +0.000 C 
ENDBRANCH  23  24
ENDBRANCH  22  23
ENDBRANCH  21  22
ENDBRANCH  20  21
ENDBRANCH  19  20
ENDBRANCH   9  19
TORSDOF 8
ENDMDL
MODEL 3
REMARK VINA RESULT:      -8.2      4.978      7.984
REMARK  Name = 
REMARK  8 active torsions:
REMARK  status: ('A' for Active; 'I' for Inactive)
REMARK    1  A    between atoms: C_6  and  S_7
REMARK    2  A    between atoms: S_7  and  C_8
REMARK    3  A    between atoms: N_16  and  C_17
REMARK    4  A    between atoms: C_17  and  C_18
REMARK    5  A    between atoms: C_18  and  C_19
REMARK    6  A    between atoms: C_19  and  C_20
REMARK    7  A    between atoms: C_20  and  C_21
REMARK    8  A    between atoms: C_21  and  C_22
REMARK                            x       y       z     vdW  Elec       q    Type
REMARK                         _______ _______ _______ _____ _____    ______ ____
ROOT
ATOM      1  C   UNL     1       5.347   4.911  18.382  0.00  0.00    +0.000 A 
ATOM      2  C   UNL     1       4.996   3.902  19.261  0.00  0.00    +0.000 A 
ATOM      3  C   UNL     1       3.678   3.793  19.718  0.00  0.00    +0.000 A 
ATOM      4  C   UNL     1       3.327   2.754  20.592  0.00  0.00    +0.000 A 
ATOM      5  C   UNL     1       2.016   2.614  21.035  0.00  0.00    +0.000 A 
ATOM      6  C   UNL     1       1.054   3.518  20.625  0.00  0.00    +0.000 A 
ATOM      7  C   UNL     1       1.386   4.567  19.762  0.00  0.00    +0.000 A 
ATOM      8  C   UNL     1       2.697   4.720  19.275  0.00  0.00    +0.000 A 
ATOM      9  N   UNL     1       3.071   5.710  18.400  0.00  0.00    +0.000 N 
ATOM     10  C   UNL     1       4.358   5.797  17.958  0.00  0.00    +0.000 A 
ENDROOT
BRANCH   1  11
ATOM     11  S   UNL     1       6.991   4.979  17.703  0.00  0.00    +0.000 S 
BRANCH  11  17
ATOM     12  F   UNL     1       8.098   5.536  12.683  0.00  0.00    +0.000 F 
ATOM     13  C   UNL     1       7.347   4.952  13.624  0.00  0.00    +0.000 A 
ATOM     14  C   UNL     1       6.363   4.045  13.246  0.00  0.00    +0.000 A 
ATOM     15  C   UNL     1       5.589   3.434  14.228  0.00  0.00    +0.000 A 
ATOM     16  C   UNL     1       5.801   3.748  15.575  0.00  0.00    +0.000 A 
ATOM     17  C   UNL     1       6.783   4.678  15.957  0.00  0.00    +0.000 A 
ATOM     18  C   UNL     1       7.568   5.266  14.963  0.00  0.00    +0.000 A 
ENDBRANCH  11  17
ENDBRANCH   1  11
BRANCH   9  19
ATOM     19  C   UNL     1       2.099   6.712  17.873  0.00  0.00    +0.000 C 
BRANCH  19  20
ATOM     20  C   UNL     1       2.373   8.053  18.539  0.00  0.00    +0.000 C 
BRANCH  20  21
ATOM     21  C   UNL     1       1.752   9.244  17.800  0.00  0.00    +0.000 C 
BRANCH  21  22
ATOM     22  C   UNL     1       0.875  10.010  18.794  0.00  0.00    +0.000 C 
BRANCH  22  23
ATOM     23  C   UNL     1       0.598   9.301  20.118  0.00  0.00    +0.000 C 
BRANCH  23  24
ATOM     24  C   UNL     1       1.093  10.143  21.325  0.00  0.00    +0.000 C 
ATOM     25  C   UNL     1       0.503  11.560  21.316  0.00  0.00    +0.000 C 
ATOM     26  C   UNL     1      -0.979  11.582  21.683  0.00  0.00    +0.000 C 
ATOM     27  C   UNL     1      -1.243  10.918  23.030  0.00  0.00    +0.000 C 
ATOM     28  C   UNL     1      -0.610   9.534  23.153  0.00  0.00    +0.000 C 
ATOM     29  C   UNL     1       0.849   9.506  22.708  0.00  0.00    +0.000 C 
ENDBRANCH  23  24
ENDBRANCH  22  23
ENDBRANCH  21  22
ENDBRANCH  20  21
ENDBRANCH  19  20
ENDBRANCH   9  19
TORSDOF 8
ENDMDL
MODEL 4
REMARK VINA RESULT:      -8.2      0.877      1.274
REMARK  Name = 
REMARK  8 active torsions:
REMARK  status: ('A' for Active; 'I' for Inactive)
REMARK    1  A    between atoms: C_6  and  S_7
REMARK    2  A    between atoms: S_7  and  C_8
REMARK    3  A    between atoms: N_16  and  C_17
REMARK    4  A    between atoms: C_17  and  C_18
REMARK    5  A    between atoms: C_18  and  C_19
REMARK    6  A    between atoms: C_19  and  C_20
REMARK    7  A    between atoms: C_20  and  C_21
REMARK    8  A    between atoms: C_21  and  C_22
REMARK                            x       y       z     vdW  Elec       q    Type
REMARK                         _______ _______ _______ _____ _____    ______ ____
ROOT
ATOM      1  C   UNL     1       3.871   6.408  18.138  0.00  0.00    +0.000 A 
ATOM      2  C   UNL     1       3.857   5.277  17.343  0.00  0.00    +0.000 A 
ATOM      3  C   UNL     1       4.918   5.019  16.467  0.00  0.00    +0.000 A 
ATOM      4  C   UNL     1       4.904   3.859  15.680  0.00  0.00    +0.000 A 
ATOM      5  C   UNL     1       5.962   3.571  14.823  0.00  0.00    +0.000 A 
ATOM      6  C   UNL     1       7.028   4.448  14.734  0.00  0.00    +0.000 A 
ATOM      7  C   UNL     1       7.056   5.615  15.503  0.00  0.00    +0.000 A 
ATOM      8  C   UNL     1       6.013   5.920  16.398  0.00  0.00    +0.000 A 
ATOM      9  N   UNL     1       6.004   7.034  17.201  0.00  0.00    +0.000 N 
ATOM     10  C   UNL     1       4.967   7.267  18.055  0.00  0.00    +0.000 A 
ENDROOT
BRANCH   1  11
ATOM     11  S   UNL     1       2.587   6.677  19.341  0.00  0.00    +0.000 S 
BRANCH  11  17
ATOM     12  F   UNL     1       0.322   2.084  18.631  0.00  0.00    +0.000 F 
ATOM     13  C   UNL     1       1.003   2.903  19.441  0.00  0.00    +0.000 A 
ATOM     14  C   UNL     1       1.344   2.471  20.718  0.00  0.00    +0.000 A 
ATOM     15  C   UNL     1       2.059   3.323  21.554  0.00  0.00    +0.000 A 
ATOM     16  C   UNL     1       2.414   4.600  21.106  0.00  0.00    +0.000 A 
ATOM     17  C   UNL     1       2.055   5.044  19.823  0.00  0.00    +0.000 A 
ATOM     18  C   UNL     1       1.358   4.171  18.985  0.00  0.00    +0.000 A 
ENDBRANCH  11  17
ENDBRANCH   1  11
BRANCH   9  19
ATOM     19  C   UNL     1       7.124   8.020  17.203  0.00  0.00    +0.000 C 
BRANCH  19  20
ATOM     20  C   UNL     1       8.084   7.664  18.329  0.00  0.00    +0.000 C 
BRANCH  20  21
ATOM     21  C   UNL     1       8.773   8.882  18.957  0.00  0.00    +0.000 C 
BRANCH  21  22
ATOM     22  C   UNL     1       8.728  10.025  17.939  0.00  0.00    +0.000 C 
BRANCH  22  23
ATOM     23  C   UNL     1       9.141  11.398  18.464  0.00  0.00    +0.000 C 
BRANCH  23  24
ATOM     24  C   UNL     1      10.431  11.907  17.765  0.00  0.00    +0.000 C 
ATOM     25  C   UNL     1      10.452  13.436  17.642  0.00  0.00    +0.000 C 
ATOM     26  C   UNL     1      10.693  14.130  18.981  0.00  0.00    +0.000 C 
ATOM     27  C   UNL     1      11.974  13.645  19.652  0.00  0.00    +0.000 C 
ATOM     28  C   UNL     1      12.072  12.124  19.733  0.00  0.00    +0.000 C 
ATOM     29  C   UNL     1      11.750  11.436  18.409  0.00  0.00    +0.000 C 
ENDBRANCH  23  24
ENDBRANCH  22  23
ENDBRANCH  21  22
ENDBRANCH  20  21
ENDBRANCH  19  20
ENDBRANCH   9  19
TORSDOF 8
ENDMDL
MODEL 5
REMARK VINA RESULT:      -8.2      0.887      1.320
REMARK  Name = 
REMARK  8 active torsions:
REMARK  status: ('A' for Active; 'I' for Inactive)
REMARK    1  A    between atoms: C_6  and  S_7
REMARK    2  A    between atoms: S_7  and  C_8
REMARK    3  A    between atoms: N_16  and  C_17
REMARK    4  A    between atoms: C_17  and  C_18
REMARK    5  A    between atoms: C_18  and  C_19
REMARK    6  A    between atoms: C_19  and  C_20
REMARK    7  A    between atoms: C_20  and  C_21
REMARK    8  A    between atoms: C_21  and  C_22
REMARK                            x       y       z     vdW  Elec       q    Type
REMARK                         _______ _______ _______ _____ _____    ______ ____
ROOT
ATOM      1  C   UNL     1       4.240   5.963  18.261  0.00  0.00    +0.000 A 
ATOM      2  C   UNL     1       4.072   5.691  16.915  0.00  0.00    +0.000 A 
ATOM      3  C   UNL     1       5.172   5.332  16.127  0.00  0.00    +0.000 A 
ATOM      4  C   UNL     1       4.989   5.038  14.769  0.00  0.00    +0.000 A 
ATOM      5  C   UNL     1       6.065   4.653  13.976  0.00  0.00    +0.000 A 
ATOM      6  C   UNL     1       7.331   4.578  14.529  0.00  0.00    +0.000 A 
ATOM      7  C   UNL     1       7.535   4.877  15.879  0.00  0.00    +0.000 A 
ATOM      8  C   UNL     1       6.463   5.243  16.713  0.00  0.00    +0.000 A 
ATOM      9  N   UNL     1       6.600   5.514  18.052  0.00  0.00    +0.000 N 
ATOM     10  C   UNL     1       5.518   5.855  18.807  0.00  0.00    +0.000 A 
ENDROOT
BRANCH   1  11
ATOM     11  S   UNL     1       2.828   6.298  19.292  0.00  0.00    +0.000 S 
BRANCH  11  17
ATOM     12  F   UNL     1       1.238   2.382  22.270  0.00  0.00    +0.000 F 
ATOM     13  C   UNL     1       1.353   2.904  21.042  0.00  0.00    +0.000 A 
ATOM     14  C   UNL     1       0.867   2.193  19.950  0.00  0.00    +0.000 A 
ATOM     15  C   UNL     1       0.981   2.743  18.677  0.00  0.00    +0.000 A 
ATOM     16  C   UNL     1       1.592   3.992  18.512  0.00  0.00    +0.000 A 
ATOM     17  C   UNL     1       2.099   4.702  19.612  0.00  0.00    +0.000 A 
ATOM     18  C   UNL     1       1.957   4.150  20.887  0.00  0.00    +0.000 A 
ENDBRANCH  11  17
ENDBRANCH   1  11
BRANCH   9  19
ATOM     19  C   UNL     1       7.918   5.426  18.748  0.00  0.00    +0.000 C 
BRANCH  19  20
ATOM     20  C   UNL     1       8.299   6.813  19.245  0.00  0.00    +0.000 C 
BRANCH  20  21
ATOM     21  C   UNL     1       8.235   7.893  18.157  0.00  0.00    +0.000 C 
BRANCH  21  22
ATOM     22  C   UNL     1       8.713   9.211  18.773  0.00  0.00    +0.000 C 
BRANCH  22  23
ATOM     23  C   UNL     1       8.973  10.348  17.788  0.00  0.00    +0.000 C 
BRANCH  23  24
ATOM     24  C   UNL     1       9.134  11.707  18.522  0.00  0.00    +0.000 C 
ATOM     25  C   UNL     1      10.113  11.609  19.700  0.00  0.00    +0.000 C 
ATOM     26  C   UNL     1      11.566  11.481  19.247  0.00  0.00    +0.000 C 
ATOM     27  C   UNL     1      11.977  12.622  18.322  0.00  0.00    +0.000 C 
ATOM     28  C   UNL     1      11.002  12.843  17.169  0.00  0.00    +0.000 C 
ATOM     29  C   UNL     1       9.545  12.889  17.623  0.00  0.00    +0.000 C 
ENDBRANCH  23  24
ENDBRANCH  22  23
ENDBRANCH  21  22
ENDBRANCH  20  21
ENDBRANCH  19  20
ENDBRANCH   9  19
TORSDOF 8
ENDMDL
MODEL 6
REMARK VINA RESULT:      -8.1      3.057      4.131
REMARK  Name = 
REMARK  8 active torsions:
REMARK  status: ('A' for Active; 'I' for Inactive)
REMARK    1  A    between atoms: C_6  and  S_7
REMARK    2  A    between atoms: S_7  and  C_8
REMARK    3  A    between atoms: N_16  and  C_17
REMARK    4  A    between atoms: C_17  and  C_18
REMARK    5  A    between atoms: C_18  and  C_19
REMARK    6  A    between atoms: C_19  and  C_20
REMARK    7  A    between atoms: C_20  and  C_21
REMARK    8  A    between atoms: C_21  and  C_22
REMARK                            x       y       z     vdW  Elec       q    Type
REMARK                         _______ _______ _______ _____ _____    ______ ____
ROOT
ATOM      1  C   UNL     1       2.846   7.201  17.693  0.00  0.00    +0.000 A 
ATOM      2  C   UNL     1       1.976   6.172  18.007  0.00  0.00    +0.000 A 
ATOM      3  C   UNL     1       2.436   4.852  18.058  0.00  0.00    +0.000 A 
ATOM      4  C   UNL     1       1.552   3.819  18.398  0.00  0.00    +0.000 A 
ATOM      5  C   UNL     1       1.997   2.503  18.480  0.00  0.00    +0.000 A 
ATOM      6  C   UNL     1       3.321   2.210  18.206  0.00  0.00    +0.000 A 
ATOM      7  C   UNL     1       4.216   3.225  17.856  0.00  0.00    +0.000 A 
ATOM      8  C   UNL     1       3.802   4.568  17.790  0.00  0.00    +0.000 A 
ATOM      9  N   UNL     1       4.645   5.608  17.484  0.00  0.00    +0.000 N 
ATOM     10  C   UNL     1       4.182   6.890  17.446  0.00  0.00    +0.000 A 
ENDROOT
BRANCH   1  11
ATOM     11  S   UNL     1       2.294   8.893  17.747  0.00  0.00    +0.000 S 
BRANCH  11  17
ATOM     12  F   UNL     1      -1.193  10.906  20.990  0.00  0.00    +0.000 F 
ATOM     13  C   UNL     1      -0.230  10.003  20.774  0.00  0.00    +0.000 A 
ATOM     14  C   UNL     1       0.113   9.115  21.788  0.00  0.00    +0.000 A 
ATOM     15  C   UNL     1       1.110   8.173  21.556  0.00  0.00    +0.000 A 
ATOM     16  C   UNL     1       1.760   8.139  20.317  0.00  0.00    +0.000 A 
ATOM     17  C   UNL     1       1.426   9.046  19.299  0.00  0.00    +0.000 A 
ATOM     18  C   UNL     1       0.408   9.972  19.536  0.00  0.00    +0.000 A 
ENDBRANCH  11  17
ENDBRANCH   1  11
BRANCH   9  19
ATOM     19  C   UNL     1       6.097   5.398  17.208  0.00  0.00    +0.000 C 
BRANCH  19  20
ATOM     20  C   UNL     1       6.902   6.305  18.126  0.00  0.00    +0.000 C 
BRANCH  20  21
ATOM     21  C   UNL     1       7.633   7.433  17.387  0.00  0.00    +0.000 C 
BRANCH  21  22
ATOM     22  C   UNL     1       8.359   8.286  18.431  0.00  0.00    +0.000 C 
BRANCH  22  23
ATOM     23  C   UNL     1       8.507   9.768  18.091  0.00  0.00    +0.000 C 
BRANCH  23  24
ATOM     24  C   UNL     1       9.781  10.373  18.741  0.00  0.00    +0.000 C 
ATOM     25  C   UNL     1      10.476  11.378  17.813  0.00  0.00    +0.000 C 
ATOM     26  C   UNL     1       9.705  12.690  17.684  0.00  0.00    +0.000 C 
ATOM     27  C   UNL     1       9.442  13.332  19.042  0.00  0.00    +0.000 C 
ATOM     28  C   UNL     1       8.830  12.369  20.055  0.00  0.00    +0.000 C 
ATOM     29  C   UNL     1       9.560  11.030  20.118  0.00  0.00    +0.000 C 
ENDBRANCH  23  24
ENDBRANCH  22  23
ENDBRANCH  21  22
ENDBRANCH  20  21
ENDBRANCH  19  20
ENDBRANCH   9  19
TORSDOF 8
ENDMDL
MODEL 7
REMARK VINA RESULT:      -8.1      1.055      1.828
REMARK  Name = 
REMARK  8 active torsions:
REMARK  status: ('A' for Active; 'I' for Inactive)
REMARK    1  A    between atoms: C_6  and  S_7
REMARK    2  A    between atoms: S_7  and  C_8
REMARK    3  A    between atoms: N_16  and  C_17
REMARK    4  A    between atoms: C_17  and  C_18
REMARK    5  A    between atoms: C_18  and  C_19
REMARK    6  A    between atoms: C_19  and  C_20
REMARK    7  A    between atoms: C_20  and  C_21
REMARK    8  A    between atoms: C_21  and  C_22
REMARK                            x       y       z     vdW  Elec       q    Type
REMARK                         _______ _______ _______ _____ _____    ______ ____
ROOT
ATOM      1  C   UNL     1       4.057   6.224  18.099  0.00  0.00    +0.000 A 
ATOM      2  C   UNL     1       3.936   5.446  16.962  0.00  0.00    +0.000 A 
ATOM      3  C   UNL     1       5.061   5.159  16.181  0.00  0.00    +0.000 A 
ATOM      4  C   UNL     1       4.931   4.352  15.042  0.00  0.00    +0.000 A 
ATOM      5  C   UNL     1       6.043   4.034  14.269  0.00  0.00    +0.000 A 
ATOM      6  C   UNL     1       7.285   4.534  14.617  0.00  0.00    +0.000 A 
ATOM      7  C   UNL     1       7.433   5.349  15.743  0.00  0.00    +0.000 A 
ATOM      8  C   UNL     1       6.333   5.666  16.560  0.00  0.00    +0.000 A 
ATOM      9  N   UNL     1       6.426   6.433  17.695  0.00  0.00    +0.000 N 
ATOM     10  C   UNL     1       5.322   6.697  18.449  0.00  0.00    +0.000 A 
ENDROOT
BRANCH   1  11
ATOM     11  S   UNL     1       2.654   6.489  19.161  0.00  0.00    +0.000 S 
BRANCH  11  17
ATOM     12  F   UNL     1       1.197   2.529  22.149  0.00  0.00    +0.000 F 
ATOM     13  C   UNL     1       1.318   3.041  20.918  0.00  0.00    +0.000 A 
ATOM     14  C   UNL     1       0.903   2.290  19.824  0.00  0.00    +0.000 A 
ATOM     15  C   UNL     1       1.023   2.830  18.547  0.00  0.00    +0.000 A 
ATOM     16  C   UNL     1       1.569   4.108  18.380  0.00  0.00    +0.000 A 
ATOM     17  C   UNL     1       2.004   4.858  19.484  0.00  0.00    +0.000 A 
ATOM     18  C   UNL     1       1.857   4.316  20.762  0.00  0.00    +0.000 A 
ENDBRANCH  11  17
ENDBRANCH   1  11
BRANCH   9  19
ATOM     19  C   UNL     1       7.727   6.989  18.172  0.00  0.00    +0.000 C 
BRANCH  19  20
ATOM     20  C   UNL     1       8.054   8.230  17.354  0.00  0.00    +0.000 C 
BRANCH  20  21
ATOM     21  C   UNL     1       7.980   9.533  18.159  0.00  0.00    +0.000 C 
BRANCH  21  22
ATOM     22  C   UNL     1       9.343   9.755  18.822  0.00  0.00    +0.000 C 
BRANCH  22  23
ATOM     23  C   UNL     1       9.444  10.970  19.742  0.00  0.00    +0.000 C 
BRANCH  23  24
ATOM     24  C   UNL     1      10.850  11.624  19.663  0.00  0.00    +0.000 C 
ATOM     25  C   UNL     1      11.362  11.709  18.219  0.00  0.00    +0.000 C 
ATOM     26  C   UNL     1      10.631  12.767  17.397  0.00  0.00    +0.000 C 
ATOM     27  C   UNL     1      10.694  14.142  18.052  0.00  0.00    +0.000 C 
ATOM     28  C   UNL     1      10.283  14.128  19.522  0.00  0.00    +0.000 C 
ATOM     29  C   UNL     1      10.959  13.015  20.318  0.00  0.00    +0.000 C 
ENDBRANCH  23  24
ENDBRANCH  22  23
ENDBRANCH  21  22
ENDBRANCH  20  21
ENDBRANCH  19  20
ENDBRANCH   9  19
TORSDOF 8
ENDMDL
MODEL 8
REMARK VINA RESULT:      -8.0      2.417      3.153
REMARK  Name = 
REMARK  8 active torsions:
REMARK  status: ('A' for Active; 'I' for Inactive)
REMARK    1  A    between atoms: C_6  and  S_7
REMARK    2  A    between atoms: S_7  and  C_8
REMARK    3  A    between atoms: N_16  and  C_17
REMARK    4  A    between atoms: C_17  and  C_18
REMARK    5  A    between atoms: C_18  and  C_19
REMARK    6  A    between atoms: C_19  and  C_20
REMARK    7  A    between atoms: C_20  and  C_21
REMARK    8  A    between atoms: C_21  and  C_22
REMARK                            x       y       z     vdW  Elec       q    Type
REMARK                         _______ _______ _______ _____ _____    ______ ____
ROOT
ATOM      1  C   UNL     1       4.279   5.498  18.298  0.00  0.00    +0.000 A 
ATOM      2  C   UNL     1       4.101   4.782  17.128  0.00  0.00    +0.000 A 
ATOM      3  C   UNL     1       5.125   4.721  16.176  0.00  0.00    +0.000 A 
ATOM      4  C   UNL     1       4.943   3.976  15.003  0.00  0.00    +0.000 A 
ATOM      5  C   UNL     1       5.959   3.882  14.058  0.00  0.00    +0.000 A 
ATOM      6  C   UNL     1       7.154   4.546  14.270  0.00  0.00    +0.000 A 
ATOM      7  C   UNL     1       7.351   5.303  15.428  0.00  0.00    +0.000 A 
ATOM      8  C   UNL     1       6.352   5.396  16.414  0.00  0.00    +0.000 A 
ATOM      9  N   UNL     1       6.504   6.097  17.586  0.00  0.00    +0.000 N 
ATOM     10  C   UNL     1       5.499   6.139  18.506  0.00  0.00    +0.000 A 
ENDROOT
BRANCH   1  11
ATOM     11  S   UNL     1       3.028   5.475  19.564  0.00  0.00    +0.000 S 
BRANCH  11  17
ATOM     12  F   UNL     1       0.500   9.586  21.421  0.00  0.00    +0.000 F 
ATOM     13  C   UNL     1       1.072   8.980  20.373  0.00  0.00    +0.000 A 
ATOM     14  C   UNL     1       1.080   9.617  19.137  0.00  0.00    +0.000 A 
ATOM     15  C   UNL     1       1.682   8.987  18.053  0.00  0.00    +0.000 A 
ATOM     16  C   UNL     1       2.258   7.722  18.216  0.00  0.00    +0.000 A 
ATOM     17  C   UNL     1       2.235   7.070  19.460  0.00  0.00    +0.000 A 
ATOM     18  C   UNL     1       1.648   7.723  20.546  0.00  0.00    +0.000 A 
ENDBRANCH  11  17
ENDBRANCH   1  11
BRANCH   9  19
ATOM     19  C   UNL     1       7.768   6.817  17.921  0.00  0.00    +0.000 C 
BRANCH  19  20
ATOM     20  C   UNL     1       7.476   8.309  17.978  0.00  0.00    +0.000 C 
BRANCH  20  21
ATOM     21  C   UNL     1       8.642   9.182  17.498  0.00  0.00    +0.000 C 
BRANCH  21  22
ATOM     22  C   UNL     1       8.924  10.228  18.580  0.00  0.00    +0.000 C 
BRANCH  22  23
ATOM     23  C   UNL     1       9.148  11.654  18.081  0.00  0.00    +0.000 C 
BRANCH  23  24
ATOM     24  C   UNL     1      10.638  11.898  17.716  0.00  0.00    +0.000 C 
ATOM     25  C   UNL     1      10.909  13.366  17.364  0.00  0.00    +0.000 C 
ATOM     26  C   UNL     1      10.876  14.280  18.586  0.00  0.00    +0.000 C 
ATOM     27  C   UNL     1      11.846  13.819  19.669  0.00  0.00    +0.000 C 
ATOM     28  C   UNL     1      11.700  12.339  20.016  0.00  0.00    +0.000 C 
ATOM     29  C   UNL     1      11.653  11.441  18.783  0.00  0.00    +0.000 C 
ENDBRANCH  23  24
ENDBRANCH  22  23
ENDBRANCH  21  22
ENDBRANCH  20  21
ENDBRANCH  19  20
ENDBRANCH   9  19
TORSDOF 8
ENDMDL
MODEL 9
REMARK VINA RESULT:      -8.0      4.977      8.424
REMARK  Name = 
REMARK  8 active torsions:
REMARK  status: ('A' for Active; 'I' for Inactive)
REMARK    1  A    between atoms: C_6  and  S_7
REMARK    2  A    between atoms: S_7  and  C_8
REMARK    3  A    between atoms: N_16  and  C_17
REMARK    4  A    between atoms: C_17  and  C_18
REMARK    5  A    between atoms: C_18  and  C_19
REMARK    6  A    between atoms: C_19  and  C_20
REMARK    7  A    between atoms: C_20  and  C_21
REMARK    8  A    between atoms: C_21  and  C_22
REMARK                            x       y       z     vdW  Elec       q    Type
REMARK                         _______ _______ _______ _____ _____    ______ ____
ROOT
ATOM      1  C   UNL     1       5.432   4.870  18.145  0.00  0.00    +0.000 A 
ATOM      2  C   UNL     1       4.885   3.611  18.318  0.00  0.00    +0.000 A 
ATOM      3  C   UNL     1       3.580   3.470  18.804  0.00  0.00    +0.000 A 
ATOM      4  C   UNL     1       3.028   2.191  18.956  0.00  0.00    +0.000 A 
ATOM      5  C   UNL     1       1.723   2.032  19.412  0.00  0.00    +0.000 A 
ATOM      6  C   UNL     1       0.971   3.147  19.735  0.00  0.00    +0.000 A 
ATOM      7  C   UNL     1       1.507   4.431  19.600  0.00  0.00    +0.000 A 
ATOM      8  C   UNL     1       2.814   4.625  19.117  0.00  0.00    +0.000 A 
ATOM      9  N   UNL     1       3.379   5.863  18.932  0.00  0.00    +0.000 N 
ATOM     10  C   UNL     1       4.649   5.982  18.450  0.00  0.00    +0.000 A 
ENDROOT
BRANCH   1  11
ATOM     11  S   UNL     1       7.043   5.057  17.412  0.00  0.00    +0.000 S 
BRANCH  11  17
ATOM     12  F   UNL     1       8.149   5.441  12.376  0.00  0.00    +0.000 F 
ATOM     13  C   UNL     1       7.365   4.930  13.333  0.00  0.00    +0.000 A 
ATOM     14  C   UNL     1       6.316   4.088  12.978  0.00  0.00    +0.000 A 
ATOM     15  C   UNL     1       5.509   3.552  13.976  0.00  0.00    +0.000 A 
ATOM     16  C   UNL     1       5.753   3.875  15.316  0.00  0.00    +0.000 A 
ATOM     17  C   UNL     1       6.801   4.739  15.673  0.00  0.00    +0.000 A 
ATOM     18  C   UNL     1       7.618   5.252  14.664  0.00  0.00    +0.000 A 
ENDBRANCH  11  17
ENDBRANCH   1  11
BRANCH   9  19
ATOM     19  C   UNL     1       2.636   7.125  19.218  0.00  0.00    +0.000 C 
BRANCH  19  20
ATOM     20  C   UNL     1       2.625   7.979  17.958  0.00  0.00    +0.000 C 
BRANCH  20  21
ATOM     21  C   UNL     1       1.742   9.228  18.071  0.00  0.00    +0.000 C 
BRANCH  21  22
ATOM     22  C   UNL     1       0.778   9.019  19.242  0.00  0.00    +0.000 C 
BRANCH  22  23
ATOM     23  C   UNL     1      -0.252  10.126  19.460  0.00  0.00    +0.000 C 
BRANCH  23  24
ATOM     24  C   UNL     1      -0.652  10.798  18.119  0.00  0.00    +0.000 C 
ATOM     25  C   UNL     1      -1.563   9.898  17.276  0.00  0.00    +0.000 C 
ATOM     26  C   UNL     1      -2.975   9.791  17.846  0.00  0.00    +0.000 C 
ATOM     27  C   UNL     1      -3.622  11.160  18.028  0.00  0.00    +0.000 C 
ATOM     28  C   UNL     1      -2.737  12.148  18.784  0.00  0.00    +0.000 C 
ATOM     29  C   UNL     1      -1.305  12.188  18.257  0.00  0.00    +0.000 C 
ENDBRANCH  23  24
ENDBRANCH  22  23
ENDBRANCH  21  22
ENDBRANCH  20  21
ENDBRANCH  19  20
ENDBRANCH   9  19
TORSDOF 8
ENDMDL
