MODEL 1
REMARK VINA RESULT:      -6.7      0.000      0.000
REMARK  Name = 
REMARK  8 active torsions:
REMARK  status: ('A' for Active; 'I' for Inactive)
REMARK    1  A    between atoms: C_1  and  N_2
REMARK    2  A    between atoms: C_8  and  N_9
REMARK    3  A    between atoms: N_9  and  C_10
REMARK    4  A    between atoms: C_10  and  C_11
REMARK    5  A    between atoms: C_11  and  C_12
REMARK    6  A    between atoms: C_12  and  C_13
REMARK    7  A    between atoms: C_12  and  C_14
REMARK    8  A    between atoms: C_12  and  C_15
REMARK                            x       y       z     vdW  Elec       q    Type
REMARK                         _______ _______ _______ _____ _____    ______ ____
ROOT
ATOM      1  C   UNL     1       0.855   2.840  19.645  0.00  0.00    +0.000 C 
ATOM      2  N   UNL     1       2.078   3.622  19.819  0.00  0.00    +0.000 NA
ATOM      3  C   UNL     1       1.966   4.933  19.126  0.00  0.00    +0.000 C 
ATOM      4  C   UNL     1       3.279   5.769  19.187  0.00  0.00    +0.000 C 
ATOM      5  N   UNL     1       4.350   4.935  18.644  0.00  0.00    +0.000 N 
ATOM      6  C   UNL     1       5.397   5.491  17.946  0.00  0.00    +0.000 A 
ATOM      7  C   UNL     1       6.009   4.729  16.960  0.00  0.00    +0.000 A 
ATOM      8  C   UNL     1       7.026   5.294  16.222  0.00  0.00    +0.000 A 
ATOM      9  N   UNL     1       7.424   6.548  16.452  0.00  0.00    +0.000 NA
ATOM     10  C   UNL     1       6.760   7.226  17.405  0.00  0.00    +0.000 A 
ATOM     11  N   UNL     1       5.750   6.763  18.154  0.00  0.00    +0.000 NA
ATOM     12  C   UNL     1       4.548   3.679  19.368  0.00  0.00    +0.000 C 
ATOM     13  C   UNL     1       3.238   2.870  19.286  0.00  0.00    +0.000 C 
ENDROOT
BRANCH   8  14
ATOM     14  N   UNL     1       7.539   4.579  15.116  0.00  0.00    +0.000 N 
ATOM     15  H   UNL     1       8.525   4.762  14.968  0.00  0.00    +0.000 HD
BRANCH  14  16
ATOM     16  C   UNL     1       6.754   4.780  13.904  0.00  0.00    +0.000 C 
BRANCH  16  17
ATOM     17  C   UNL     1       5.979   3.504  13.550  0.00  0.00    +0.000 C 
BRANCH  17  18
ATOM     18  C   UNL     1       5.848   3.247  12.020  0.00  0.00    +0.000 C 
ATOM     19  C   UNL     1       4.467   3.687  11.506  0.00  0.00    +0.000 C 
ATOM     20  C   UNL     1       6.923   4.057  11.272  0.00  0.00    +0.000 C 
ATOM     21  C   UNL     1       6.061   1.757  11.694  0.00  0.00    +0.000 C 
ENDBRANCH  17  18
ENDBRANCH  16  17
ENDBRANCH  14  16
ENDBRANCH   8  14
TORSDOF 4
ENDMDL
MODEL 2
REMARK VINA RESULT:      -6.7      2.701      5.941
REMARK  Name = 
REMARK  8 active torsions:
REMARK  status: ('A' for Active; 'I' for Inactive)
REMARK    1  A    between atoms: C_1  and  N_2
REMARK    2  A    between atoms: C_8  and  N_9
REMARK    3  A    between atoms: N_9  and  C_10
REMARK    4  A    between atoms: C_10  and  C_11
REMARK    5  A    between atoms: C_11  and  C_12
REMARK    6  A    between atoms: C_12  and  C_13
REMARK    7  A    between atoms: C_12  and  C_14
REMARK    8  A    between atoms: C_12  and  C_15
REMARK                            x       y       z     vdW  Elec       q    Type
REMARK                         _______ _______ _______ _____ _____    ______ ____
ROOT
ATOM      1  C   UNL     1       1.377   3.126  20.548  0.00  0.00    +0.000 C 
ATOM      2  N   UNL     1       1.883   3.732  19.318  0.00  0.00    +0.000 NA
ATOM      3  C   UNL     1       2.924   2.871  18.697  0.00  0.00    +0.000 C 
ATOM      4  C   UNL     1       3.578   3.513  17.438  0.00  0.00    +0.000 C 
ATOM      5  N   UNL     1       4.095   4.821  17.838  0.00  0.00    +0.000 N 
ATOM      6  C   UNL     1       5.234   5.338  17.265  0.00  0.00    +0.000 A 
ATOM      7  C   UNL     1       6.023   6.190  18.026  0.00  0.00    +0.000 A 
ATOM      8  C   UNL     1       7.192   6.674  17.479  0.00  0.00    +0.000 A 
ATOM      9  N   UNL     1       7.559   6.338  16.239  0.00  0.00    +0.000 NA
ATOM     10  C   UNL     1       6.753   5.486  15.582  0.00  0.00    +0.000 A 
ATOM     11  N   UNL     1       5.613   4.953  16.044  0.00  0.00    +0.000 NA
ATOM     12  C   UNL     1       3.073   5.728  18.363  0.00  0.00    +0.000 C 
ATOM     13  C   UNL     1       2.449   5.070  19.610  0.00  0.00    +0.000 C 
ENDROOT
BRANCH   8  14
ATOM     14  N   UNL     1       8.073   7.409  18.304  0.00  0.00    +0.000 N 
ATOM     15  H   UNL     1       7.847   7.311  19.287  0.00  0.00    +0.000 HD
BRANCH  14  16
ATOM     16  C   UNL     1       8.186   8.806  17.901  0.00  0.00    +0.000 C 
BRANCH  16  17
ATOM     17  C   UNL     1       8.945   9.611  18.964  0.00  0.00    +0.000 C 
BRANCH  17  18
ATOM     18  C   UNL     1       9.255  11.077  18.544  0.00  0.00    +0.000 C 
ATOM     19  C   UNL     1      10.571  11.155  17.753  0.00  0.00    +0.000 C 
ATOM     20  C   UNL     1       8.120  11.605  17.648  0.00  0.00    +0.000 C 
ATOM     21  C   UNL     1       9.352  11.992  19.780  0.00  0.00    +0.000 C 
ENDBRANCH  17  18
ENDBRANCH  16  17
ENDBRANCH  14  16
ENDBRANCH   8  14
TORSDOF 4
ENDMDL
MODEL 3
REMARK VINA RESULT:      -6.5      2.429      4.357
REMARK  Name = 
REMARK  8 active torsions:
REMARK  status: ('A' for Active; 'I' for Inactive)
REMARK    1  A    between atoms: C_1  and  N_2
REMARK    2  A    between atoms: C_8  and  N_9
REMARK    3  A    between atoms: N_9  and  C_10
REMARK    4  A    between atoms: C_10  and  C_11
REMARK    5  A    between atoms: C_11  and  C_12
REMARK    6  A    between atoms: C_12  and  C_13
REMARK    7  A    between atoms: C_12  and  C_14
REMARK    8  A    between atoms: C_12  and  C_15
REMARK                            x       y       z     vdW  Elec       q    Type
REMARK                         _______ _______ _______ _____ _____    ______ ____
ROOT
ATOM      1  C   UNL     1       1.478  10.653  19.170  0.00  0.00    +0.000 C 
ATOM      2  N   UNL     1       1.341   9.202  19.051  0.00  0.00    +0.000 NA
ATOM      3  C   UNL     1       1.561   8.543  20.365  0.00  0.00    +0.000 C 
ATOM      4  C   UNL     1       1.531   6.988  20.282  0.00  0.00    +0.000 C 
ATOM      5  N   UNL     1       2.518   6.589  19.279  0.00  0.00    +0.000 N 
ATOM      6  C   UNL     1       3.220   5.413  19.406  0.00  0.00    +0.000 A 
ATOM      7  C   UNL     1       4.498   5.349  18.867  0.00  0.00    +0.000 A 
ATOM      8  C   UNL     1       5.229   4.192  19.031  0.00  0.00    +0.000 A 
ATOM      9  N   UNL     1       4.719   3.147  19.688  0.00  0.00    +0.000 NA
ATOM     10  C   UNL     1       3.487   3.302  20.203  0.00  0.00    +0.000 A 
ATOM     11  N   UNL     1       2.716   4.395  20.109  0.00  0.00    +0.000 NA
ATOM     12  C   UNL     1       2.271   7.145  17.949  0.00  0.00    +0.000 C 
ATOM     13  C   UNL     1       2.313   8.683  18.061  0.00  0.00    +0.000 C 
ENDROOT
BRANCH   8  14
ATOM     14  N   UNL     1       6.583   4.182  18.625  0.00  0.00    +0.000 N 
ATOM     15  H   UNL     1       7.218   4.161  19.415  0.00  0.00    +0.000 HD
BRANCH  14  16
ATOM     16  C   UNL     1       6.898   5.259  17.693  0.00  0.00    +0.000 C 
BRANCH  16  17
ATOM     17  C   UNL     1       7.421   4.686  16.370  0.00  0.00    +0.000 C 
BRANCH  17  18
ATOM     18  C   UNL     1       6.396   4.757  15.201  0.00  0.00    +0.000 C 
ATOM     19  C   UNL     1       5.499   5.999  15.332  0.00  0.00    +0.000 C 
ATOM     20  C   UNL     1       7.152   4.845  13.862  0.00  0.00    +0.000 C 
ATOM     21  C   UNL     1       5.513   3.495  15.168  0.00  0.00    +0.000 C 
ENDBRANCH  17  18
ENDBRANCH  16  17
ENDBRANCH  14  16
ENDBRANCH   8  14
TORSDOF 4
ENDMDL
MODEL 4
REMARK VINA RESULT:      -6.5      1.238      1.615
REMARK  Name = 
REMARK  8 active torsions:
REMARK  status: ('A' for Active; 'I' for Inactive)
REMARK    1  A    between atoms: C_1  and  N_2
REMARK    2  A    between atoms: C_8  and  N_9
REMARK    3  A    between atoms: N_9  and  C_10
REMARK    4  A    between atoms: C_10  and  C_11
REMARK    5  A    between atoms: C_11  and  C_12
REMARK    6  A    between atoms: C_12  and  C_13
REMARK    7  A    between atoms: C_12  and  C_14
REMARK    8  A    between atoms: C_12  and  C_15
REMARK                            x       y       z     vdW  Elec       q    Type
REMARK                         _______ _______ _______ _____ _____    ______ ____
ROOT
ATOM      1  C   UNL     1       0.371   3.670  20.079  0.00  0.00    +0.000 C 
ATOM      2  N   UNL     1       1.781   3.325  19.909  0.00  0.00    +0.000 NA
ATOM      3  C   UNL     1       2.654   4.422  20.405  0.00  0.00    +0.000 C 
ATOM      4  C   UNL     1       4.169   4.158  20.155  0.00  0.00    +0.000 C 
ATOM      5  N   UNL     1       4.334   3.911  18.723  0.00  0.00    +0.000 N 
ATOM      6  C   UNL     1       5.480   4.296  18.066  0.00  0.00    +0.000 A 
ATOM      7  C   UNL     1       5.385   4.629  16.721  0.00  0.00    +0.000 A 
ATOM      8  C   UNL     1       6.517   5.064  16.066  0.00  0.00    +0.000 A 
ATOM      9  N   UNL     1       7.686   5.157  16.706  0.00  0.00    +0.000 NA
ATOM     10  C   UNL     1       7.685   4.843  18.013  0.00  0.00    +0.000 A 
ATOM     11  N   UNL     1       6.630   4.432  18.731  0.00  0.00    +0.000 NA
ATOM     12  C   UNL     1       3.561   2.773  18.224  0.00  0.00    +0.000 C 
ATOM     13  C   UNL     1       2.068   3.065  18.479  0.00  0.00    +0.000 C 
ENDROOT
BRANCH   8  14
ATOM     14  N   UNL     1       6.390   5.554  14.747  0.00  0.00    +0.000 N 
ATOM     15  H   UNL     1       5.431   5.786  14.516  0.00  0.00    +0.000 HD
BRANCH  14  16
ATOM     16  C   UNL     1       6.995   4.668  13.758  0.00  0.00    +0.000 C 
BRANCH  16  17
ATOM     17  C   UNL     1       6.066   3.485  13.458  0.00  0.00    +0.000 C 
BRANCH  17  18
ATOM     18  C   UNL     1       5.849   3.221  11.939  0.00  0.00    +0.000 C 
ATOM     19  C   UNL     1       6.786   4.096  11.090  0.00  0.00    +0.000 C 
ATOM     20  C   UNL     1       6.152   1.744  11.628  0.00  0.00    +0.000 C 
ATOM     21  C   UNL     1       4.389   3.502  11.537  0.00  0.00    +0.000 C 
ENDBRANCH  17  18
ENDBRANCH  16  17
ENDBRANCH  14  16
ENDBRANCH   8  14
TORSDOF 4
ENDMDL
MODEL 5
REMARK VINA RESULT:      -6.4      3.011      7.493
REMARK  Name = 
REMARK  8 active torsions:
REMARK  status: ('A' for Active; 'I' for Inactive)
REMARK    1  A    between atoms: C_1  and  N_2
REMARK    2  A    between atoms: C_8  and  N_9
REMARK    3  A    between atoms: N_9  and  C_10
REMARK    4  A    between atoms: C_10  and  C_11
REMARK    5  A    between atoms: C_11  and  C_12
REMARK    6  A    between atoms: C_12  and  C_13
REMARK    7  A    between atoms: C_12  and  C_14
REMARK    8  A    between atoms: C_12  and  C_15
REMARK                            x       y       z     vdW  Elec       q    Type
REMARK                         _______ _______ _______ _____ _____    ______ ____
ROOT
ATOM      1  C   UNL     1       7.095   4.949  15.001  0.00  0.00    +0.000 C 
ATOM      2  N   UNL     1       6.448   4.266  16.121  0.00  0.00    +0.000 NA
ATOM      3  C   UNL     1       5.052   3.890  15.771  0.00  0.00    +0.000 C 
ATOM      4  C   UNL     1       4.275   3.253  16.961  0.00  0.00    +0.000 C 
ATOM      5  N   UNL     1       4.342   4.195  18.077  0.00  0.00    +0.000 N 
ATOM      6  C   UNL     1       3.302   4.310  18.970  0.00  0.00    +0.000 A 
ATOM      7  C   UNL     1       3.094   5.539  19.582  0.00  0.00    +0.000 A 
ATOM      8  C   UNL     1       2.025   5.678  20.441  0.00  0.00    +0.000 A 
ATOM      9  N   UNL     1       1.207   4.652  20.689  0.00  0.00    +0.000 NA
ATOM     10  C   UNL     1       1.462   3.505  20.034  0.00  0.00    +0.000 A 
ATOM     11  N   UNL     1       2.464   3.289  19.169  0.00  0.00    +0.000 NA
ATOM     12  C   UNL     1       5.705   4.509  18.508  0.00  0.00    +0.000 C 
ATOM     13  C   UNL     1       6.447   5.143  17.315  0.00  0.00    +0.000 C 
ENDROOT
BRANCH   8  14
ATOM     14  N   UNL     1       1.718   6.965  20.938  0.00  0.00    +0.000 N 
ATOM     15  H   UNL     1       0.800   7.000  21.366  0.00  0.00    +0.000 HD
BRANCH  14  16
ATOM     16  C   UNL     1       1.899   8.011  19.938  0.00  0.00    +0.000 C 
BRANCH  16  17
ATOM     17  C   UNL     1       1.037   9.233  20.279  0.00  0.00    +0.000 C 
BRANCH  17  18
ATOM     18  C   UNL     1       0.751  10.164  19.065  0.00  0.00    +0.000 C 
ATOM     19  C   UNL     1      -0.741  10.141  18.695  0.00  0.00    +0.000 C 
ATOM     20  C   UNL     1       1.137  11.610  19.427  0.00  0.00    +0.000 C 
ATOM     21  C   UNL     1       1.584   9.741  17.841  0.00  0.00    +0.000 C 
ENDBRANCH  17  18
ENDBRANCH  16  17
ENDBRANCH  14  16
ENDBRANCH   8  14
TORSDOF 4
ENDMDL
MODEL 6
REMARK VINA RESULT:      -6.4      1.061      1.094
REMARK  Name = 
REMARK  8 active torsions:
REMARK  status: ('A' for Active; 'I' for Inactive)
REMARK    1  A    between atoms: C_1  and  N_2
REMARK    2  A    between atoms: C_8  and  N_9
REMARK    3  A    between atoms: N_9  and  C_10
REMARK    4  A    between atoms: C_10  and  C_11
REMARK    5  A    between atoms: C_11  and  C_12
REMARK    6  A    between atoms: C_12  and  C_13
REMARK    7  A    between atoms: C_12  and  C_14
REMARK    8  A    between atoms: C_12  and  C_15
REMARK                            x       y       z     vdW  Elec       q    Type
REMARK                         _______ _______ _______ _____ _____    ______ ____
ROOT
ATOM      1  C   UNL     1       0.377   2.659  19.559  0.00  0.00    +0.000 C 
ATOM      2  N   UNL     1       1.833   2.758  19.656  0.00  0.00    +0.000 NA
ATOM      3  C   UNL     1       2.244   4.144  20.004  0.00  0.00    +0.000 C 
ATOM      4  C   UNL     1       3.789   4.338  20.019  0.00  0.00    +0.000 C 
ATOM      5  N   UNL     1       4.292   3.912  18.714  0.00  0.00    +0.000 N 
ATOM      6  C   UNL     1       5.384   4.523  18.142  0.00  0.00    +0.000 A 
ATOM      7  C   UNL     1       5.460   4.570  16.757  0.00  0.00    +0.000 A 
ATOM      8  C   UNL     1       6.525   5.223  16.174  0.00  0.00    +0.000 A 
ATOM      9  N   UNL     1       7.472   5.793  16.924  0.00  0.00    +0.000 NA
ATOM     10  C   UNL     1       7.308   5.726  18.257  0.00  0.00    +0.000 A 
ATOM     11  N   UNL     1       6.296   5.132  18.905  0.00  0.00    +0.000 NA
ATOM     12  C   UNL     1       3.986   2.519  18.386  0.00  0.00    +0.000 C 
ATOM     13  C   UNL     1       2.453   2.359  18.371  0.00  0.00    +0.000 C 
ENDROOT
BRANCH   8  14
ATOM     14  N   UNL     1       6.522   5.411  14.774  0.00  0.00    +0.000 N 
ATOM     15  H   UNL     1       6.463   6.390  14.520  0.00  0.00    +0.000 HD
BRANCH  14  16
ATOM     16  C   UNL     1       5.507   4.607  14.102  0.00  0.00    +0.000 C 
BRANCH  16  17
ATOM     17  C   UNL     1       6.122   3.309  13.563  0.00  0.00    +0.000 C 
BRANCH  17  18
ATOM     18  C   UNL     1       5.845   3.056  12.053  0.00  0.00    +0.000 C 
ATOM     19  C   UNL     1       4.385   3.384  11.700  0.00  0.00    +0.000 C 
ATOM     20  C   UNL     1       6.762   3.958  11.206  0.00  0.00    +0.000 C 
ATOM     21  C   UNL     1       6.141   1.591  11.678  0.00  0.00    +0.000 C 
ENDBRANCH  17  18
ENDBRANCH  16  17
ENDBRANCH  14  16
ENDBRANCH   8  14
TORSDOF 4
ENDMDL
MODEL 7
REMARK VINA RESULT:      -6.2      2.655      5.878
REMARK  Name = 
REMARK  8 active torsions:
REMARK  status: ('A' for Active; 'I' for Inactive)
REMARK    1  A    between atoms: C_1  and  N_2
REMARK    2  A    between atoms: C_8  and  N_9
REMARK    3  A    between atoms: N_9  and  C_10
REMARK    4  A    between atoms: C_10  and  C_11
REMARK    5  A    between atoms: C_11  and  C_12
REMARK    6  A    between atoms: C_12  and  C_13
REMARK    7  A    between atoms: C_12  and  C_14
REMARK    8  A    between atoms: C_12  and  C_15
REMARK                            x       y       z     vdW  Elec       q    Type
REMARK                         _______ _______ _______ _____ _____    ______ ____
ROOT
ATOM      1  C   UNL     1       1.247   3.580  20.747  0.00  0.00    +0.000 C 
ATOM      2  N   UNL     1       1.801   3.999  19.461  0.00  0.00    +0.000 NA
ATOM      3  C   UNL     1       2.875   3.069  19.022  0.00  0.00    +0.000 C 
ATOM      4  C   UNL     1       3.577   3.522  17.707  0.00  0.00    +0.000 C 
ATOM      5  N   UNL     1       4.066   4.883  17.925  0.00  0.00    +0.000 N 
ATOM      6  C   UNL     1       5.225   5.323  17.328  0.00  0.00    +0.000 A 
ATOM      7  C   UNL     1       5.973   6.292  17.982  0.00  0.00    +0.000 A 
ATOM      8  C   UNL     1       7.161   6.704  17.417  0.00  0.00    +0.000 A 
ATOM      9  N   UNL     1       7.584   6.190  16.258  0.00  0.00    +0.000 NA
ATOM     10  C   UNL     1       6.813   5.236  15.706  0.00  0.00    +0.000 A 
ATOM     11  N   UNL     1       5.659   4.763  16.195  0.00  0.00    +0.000 NA
ATOM     12  C   UNL     1       3.015   5.844  18.262  0.00  0.00    +0.000 C 
ATOM     13  C   UNL     1       2.343   5.374  19.568  0.00  0.00    +0.000 C 
ENDROOT
BRANCH   8  14
ATOM     14  N   UNL     1       8.000   7.569  18.155  0.00  0.00    +0.000 N 
ATOM     15  H   UNL     1       7.968   7.374  19.149  0.00  0.00    +0.000 HD
BRANCH  14  16
ATOM     16  C   UNL     1       7.754   8.976  17.862  0.00  0.00    +0.000 C 
BRANCH  16  17
ATOM     17  C   UNL     1       9.068   9.690  17.523  0.00  0.00    +0.000 C 
BRANCH  17  18
ATOM     18  C   UNL     1       9.360  10.935  18.412  0.00  0.00    +0.000 C 
ATOM     19  C   UNL     1       9.174  10.601  19.901  0.00  0.00    +0.000 C 
ATOM     20  C   UNL     1      10.815  11.388  18.195  0.00  0.00    +0.000 C 
ATOM     21  C   UNL     1       8.434  12.107  18.035  0.00  0.00    +0.000 C 
ENDBRANCH  17  18
ENDBRANCH  16  17
ENDBRANCH  14  16
ENDBRANCH   8  14
TORSDOF 4
ENDMDL
MODEL 8
REMARK VINA RESULT:      -6.2      2.773      4.911
REMARK  Name = 
REMARK  8 active torsions:
REMARK  status: ('A' for Active; 'I' for Inactive)
REMARK    1  A    between atoms: C_1  and  N_2
REMARK    2  A    between atoms: C_8  and  N_9
REMARK    3  A    between atoms: N_9  and  C_10
REMARK    4  A    between atoms: C_10  and  C_11
REMARK    5  A    between atoms: C_11  and  C_12
REMARK    6  A    between atoms: C_12  and  C_13
REMARK    7  A    between atoms: C_12  and  C_14
REMARK    8  A    between atoms: C_12  and  C_15
REMARK                            x       y       z     vdW  Elec       q    Type
REMARK                         _______ _______ _______ _____ _____    ______ ____
ROOT
ATOM      1  C   UNL     1       1.361  11.419  19.018  0.00  0.00    +0.000 C 
ATOM      2  N   UNL     1       1.188   9.974  18.884  0.00  0.00    +0.000 NA
ATOM      3  C   UNL     1       1.223   9.314  20.216  0.00  0.00    +0.000 C 
ATOM      4  C   UNL     1       1.148   7.760  20.130  0.00  0.00    +0.000 C 
ATOM      5  N   UNL     1       2.235   7.322  19.255  0.00  0.00    +0.000 N 
ATOM      6  C   UNL     1       2.874   6.122  19.467  0.00  0.00    +0.000 A 
ATOM      7  C   UNL     1       4.205   6.011  19.087  0.00  0.00    +0.000 A 
ATOM      8  C   UNL     1       4.869   4.830  19.340  0.00  0.00    +0.000 A 
ATOM      9  N   UNL     1       4.246   3.807  19.931  0.00  0.00    +0.000 NA
ATOM     10  C   UNL     1       2.967   4.007  20.292  0.00  0.00    +0.000 A 
ATOM     11  N   UNL     1       2.253   5.126  20.104  0.00  0.00    +0.000 NA
ATOM     12  C   UNL     1       2.171   7.880  17.904  0.00  0.00    +0.000 C 
ATOM     13  C   UNL     1       2.253   9.415  18.019  0.00  0.00    +0.000 C 
ENDROOT
BRANCH   8  14
ATOM     14  N   UNL     1       6.260   4.770  19.101  0.00  0.00    +0.000 N 
ATOM     15  H   UNL     1       6.800   4.908  19.948  0.00  0.00    +0.000 HD
BRANCH  14  16
ATOM     16  C   UNL     1       6.685   5.661  18.027  0.00  0.00    +0.000 C 
BRANCH  16  17
ATOM     17  C   UNL     1       7.062   4.853  16.779  0.00  0.00    +0.000 C 
BRANCH  17  18
ATOM     18  C   UNL     1       6.005   4.920  15.638  0.00  0.00    +0.000 C 
ATOM     19  C   UNL     1       6.657   4.661  14.270  0.00  0.00    +0.000 C 
ATOM     20  C   UNL     1       4.929   3.844  15.874  0.00  0.00    +0.000 C 
ATOM     21  C   UNL     1       5.308   6.294  15.617  0.00  0.00    +0.000 C 
ENDBRANCH  17  18
ENDBRANCH  16  17
ENDBRANCH  14  16
ENDBRANCH   8  14
TORSDOF 4
ENDMDL
MODEL 9
REMARK VINA RESULT:      -6.1      5.296      8.266
REMARK  Name = 
REMARK  8 active torsions:
REMARK  status: ('A' for Active; 'I' for Inactive)
REMARK    1  A    between atoms: C_1  and  N_2
REMARK    2  A    between atoms: C_8  and  N_9
REMARK    3  A    between atoms: N_9  and  C_10
REMARK    4  A    between atoms: C_10  and  C_11
REMARK    5  A    between atoms: C_11  and  C_12
REMARK    6  A    between atoms: C_12  and  C_13
REMARK    7  A    between atoms: C_12  and  C_14
REMARK    8  A    between atoms: C_12  and  C_15
REMARK                            x       y       z     vdW  Elec       q    Type
REMARK                         _______ _______ _______ _____ _____    ______ ____
ROOT
ATOM      1  C   UNL     1       4.944   3.887  16.033  0.00  0.00    +0.000 C 
ATOM      2  N   UNL     1       4.791   4.831  17.138  0.00  0.00    +0.000 NA
ATOM      3  C   UNL     1       3.632   4.459  17.992  0.00  0.00    +0.000 C 
ATOM      4  C   UNL     1       3.353   5.488  19.128  0.00  0.00    +0.000 C 
ATOM      5  N   UNL     1       3.189   6.797  18.495  0.00  0.00    +0.000 N 
ATOM      6  C   UNL     1       2.327   7.733  19.019  0.00  0.00    +0.000 A 
ATOM      7  C   UNL     1       1.729   8.633  18.148  0.00  0.00    +0.000 A 
ATOM      8  C   UNL     1       0.826   9.543  18.654  0.00  0.00    +0.000 A 
ATOM      9  N   UNL     1       0.536   9.567  19.958  0.00  0.00    +0.000 NA
ATOM     10  C   UNL     1       1.138   8.643  20.727  0.00  0.00    +0.000 A 
ATOM     11  N   UNL     1       2.009   7.711  20.315  0.00  0.00    +0.000 NA
ATOM     12  C   UNL     1       4.355   7.234  17.727  0.00  0.00    +0.000 C 
ATOM     13  C   UNL     1       4.602   6.202  16.608  0.00  0.00    +0.000 C 
ENDROOT
BRANCH   8  14
ATOM     14  N   UNL     1       0.098  10.351  17.752  0.00  0.00    +0.000 N 
ATOM     15  H   UNL     1       0.664  11.097  17.365  0.00  0.00    +0.000 HD
BRANCH  14  16
ATOM     16  C   UNL     1      -1.150  10.846  18.322  0.00  0.00    +0.000 C 
BRANCH  16  17
ATOM     17  C   UNL     1      -1.964  11.595  17.259  0.00  0.00    +0.000 C 
BRANCH  17  18
ATOM     18  C   UNL     1      -3.205  10.809  16.742  0.00  0.00    +0.000 C 
ATOM     19  C   UNL     1      -4.484  11.650  16.882  0.00  0.00    +0.000 C 
ATOM     20  C   UNL     1      -3.010  10.467  15.254  0.00  0.00    +0.000 C 
ATOM     21  C   UNL     1      -3.378   9.488  17.516  0.00  0.00    +0.000 C 
ENDBRANCH  17  18
ENDBRANCH  16  17
ENDBRANCH  14  16
ENDBRANCH   8  14
TORSDOF 4
ENDMDL
