MODEL 1
REMARK VINA RESULT:      -7.6      0.000      0.000
REMARK  Name = 
REMARK  7 active torsions:
REMARK  status: ('A' for Active; 'I' for Inactive)
REMARK    1  A    between atoms: C_2  and  C_16
REMARK    2  A    between atoms: N_3  and  O_4
REMARK    3  A    between atoms: O_4  and  C_5
REMARK    4  A    between atoms: C_5  and  C_7
REMARK    5  A    between atoms: C_7  and  C_8
REMARK    6  A    between atoms: C_8  and  C_9
REMARK    7  A    between atoms: C_9  and  C_10
REMARK                            x       y       z     vdW  Elec       q    Type
REMARK                         _______ _______ _______ _____ _____    ______ ____
ROOT
ATOM      1  O   UNL     1       4.643   2.675  19.287  0.00  0.00    +0.000 OA
ENDROOT
BRANCH   1   4
ATOM      2  N   UNL     1       5.235   3.766  16.999  0.00  0.00    +0.000 NA
ATOM      3  C   UNL     1       5.761   4.281  18.070  0.00  0.00    +0.000 C 
ATOM      4  N   UNL     1       5.666   3.630  19.297  0.00  0.00    +0.000 N 
ATOM      5  H   UNL     1       4.801   2.879  17.276  0.00  0.00    +0.000 HD
ATOM      6  H   UNL     1       5.627   4.235  20.117  0.00  0.00    +0.000 HD
BRANCH   3   7
ATOM      7  C   UNL     1       6.485   5.572  17.952  0.00  0.00    +0.000 A 
ATOM      8  C   UNL     1       7.530   5.937  18.811  0.00  0.00    +0.000 A 
ATOM      9  C   UNL     1       8.162   7.170  18.632  0.00  0.00    +0.000 A 
ATOM     10  C   UNL     1       7.737   7.977  17.601  0.00  0.00    +0.000 A 
ATOM     11  N   UNL     1       6.739   7.670  16.753  0.00  0.00    +0.000 NA
ATOM     12  C   UNL     1       6.136   6.463  16.945  0.00  0.00    +0.000 A 
ENDBRANCH   3   7
ENDBRANCH   1   4
BRANCH   1  13
ATOM     13  C   UNL     1       4.457   2.104  20.515  0.00  0.00    +0.000 C 
ATOM     14  O   UNL     1       5.317   1.515  21.158  0.00  0.00    +0.000 OA
BRANCH  13  15
ATOM     15  C   UNL     1       3.132   2.562  21.061  0.00  0.00    +0.000 C 
BRANCH  15  16
ATOM     16  C   UNL     1       1.976   2.311  20.105  0.00  0.00    +0.000 C 
BRANCH  16  17
ATOM     17  C   UNL     1       0.967   3.460  20.160  0.00  0.00    +0.000 C 
BRANCH  17  18
ATOM     18  C   UNL     1       1.585   4.750  19.684  0.00  0.00    +0.000 A 
ATOM     19  C   UNL     1       1.683   5.849  20.545  0.00  0.00    +0.000 A 
ATOM     20  C   UNL     1       2.199   7.061  20.086  0.00  0.00    +0.000 A 
ATOM     21  C   UNL     1       2.625   7.184  18.765  0.00  0.00    +0.000 A 
ATOM     22  C   UNL     1       2.543   6.092  17.903  0.00  0.00    +0.000 A 
ATOM     23  C   UNL     1       2.023   4.879  18.359  0.00  0.00    +0.000 A 
ENDBRANCH  17  18
ENDBRANCH  16  17
ENDBRANCH  15  16
ENDBRANCH  13  15
ENDBRANCH   1  13
TORSDOF 7
ENDMDL
MODEL 2
REMARK VINA RESULT:      -7.4      1.572      2.442
REMARK  Name = 
REMARK  7 active torsions:
REMARK  status: ('A' for Active; 'I' for Inactive)
REMARK    1  A    between atoms: C_2  and  C_16
REMARK    2  A    between atoms: N_3  and  O_4
REMARK    3  A    between atoms: O_4  and  C_5
REMARK    4  A    between atoms: C_5  and  C_7
REMARK    5  A    between atoms: C_7  and  C_8
REMARK    6  A    between atoms: C_8  and  C_9
REMARK    7  A    between atoms: C_9  and  C_10
REMARK                            x       y       z     vdW  Elec       q    Type
REMARK                         _______ _______ _______ _____ _____    ______ ____
ROOT
ATOM      1  O   UNL     1       5.171   3.438  20.107  0.00  0.00    +0.000 OA
ENDROOT
BRANCH   1   4
ATOM      2  N   UNL     1       6.831   5.128  19.030  0.00  0.00    +0.000 NA
ATOM      3  C   UNL     1       6.053   4.455  18.236  0.00  0.00    +0.000 C 
ATOM      4  N   UNL     1       4.999   3.699  18.742  0.00  0.00    +0.000 N 
ATOM      5  H   UNL     1       6.496   4.968  19.985  0.00  0.00    +0.000 HD
ATOM      6  H   UNL     1       4.763   2.860  18.213  0.00  0.00    +0.000 HD
BRANCH   3   7
ATOM      7  C   UNL     1       6.298   4.528  16.774  0.00  0.00    +0.000 A 
ATOM      8  C   UNL     1       5.514   3.843  15.838  0.00  0.00    +0.000 A 
ATOM      9  C   UNL     1       5.809   3.965  14.477  0.00  0.00    +0.000 A 
ATOM     10  C   UNL     1       6.862   4.773  14.110  0.00  0.00    +0.000 A 
ATOM     11  N   UNL     1       7.644   5.449  14.972  0.00  0.00    +0.000 NA
ATOM     12  C   UNL     1       7.338   5.315  16.293  0.00  0.00    +0.000 A 
ENDBRANCH   3   7
ENDBRANCH   1   4
BRANCH   1  13
ATOM     13  C   UNL     1       4.691   2.208  20.463  0.00  0.00    +0.000 C 
ATOM     14  O   UNL     1       5.263   1.413  21.198  0.00  0.00    +0.000 OA
BRANCH  13  15
ATOM     15  C   UNL     1       3.248   2.119  20.047  0.00  0.00    +0.000 C 
BRANCH  15  16
ATOM     16  C   UNL     1       2.290   2.649  21.103  0.00  0.00    +0.000 C 
BRANCH  16  17
ATOM     17  C   UNL     1       1.117   3.384  20.451  0.00  0.00    +0.000 C 
BRANCH  17  18
ATOM     18  C   UNL     1       1.576   4.652  19.777  0.00  0.00    +0.000 A 
ATOM     19  C   UNL     1       1.803   4.679  18.396  0.00  0.00    +0.000 A 
ATOM     20  C   UNL     1       2.286   5.835  17.783  0.00  0.00    +0.000 A 
ATOM     21  C   UNL     1       2.541   6.975  18.543  0.00  0.00    +0.000 A 
ATOM     22  C   UNL     1       2.306   6.963  19.916  0.00  0.00    +0.000 A 
ATOM     23  C   UNL     1       1.827   5.805  20.533  0.00  0.00    +0.000 A 
ENDBRANCH  17  18
ENDBRANCH  16  17
ENDBRANCH  15  16
ENDBRANCH  13  15
ENDBRANCH   1  13
TORSDOF 7
ENDMDL
MODEL 3
REMARK VINA RESULT:      -7.3      2.668      3.994
REMARK  Name = 
REMARK  7 active torsions:
REMARK  status: ('A' for Active; 'I' for Inactive)
REMARK    1  A    between atoms: C_2  and  C_16
REMARK    2  A    between atoms: N_3  and  O_4
REMARK    3  A    between atoms: O_4  and  C_5
REMARK    4  A    between atoms: C_5  and  C_7
REMARK    5  A    between atoms: C_7  and  C_8
REMARK    6  A    between atoms: C_8  and  C_9
REMARK    7  A    between atoms: C_9  and  C_10
REMARK                            x       y       z     vdW  Elec       q    Type
REMARK                         _______ _______ _______ _____ _____    ______ ____
ROOT
ATOM      1  O   UNL     1       6.529   4.271  18.152  0.00  0.00    +0.000 OA
ENDROOT
BRANCH   1   4
ATOM      2  N   UNL     1       7.313   6.053  16.424  0.00  0.00    +0.000 NA
ATOM      3  C   UNL     1       6.799   4.951  15.966  0.00  0.00    +0.000 C 
ATOM      4  N   UNL     1       6.165   4.051  16.818  0.00  0.00    +0.000 N 
ATOM      5  H   UNL     1       7.142   6.067  17.435  0.00  0.00    +0.000 HD
ATOM      6  H   UNL     1       6.232   3.069  16.553  0.00  0.00    +0.000 HD
BRANCH   3   7
ATOM      7  C   UNL     1       6.882   4.683  14.509  0.00  0.00    +0.000 A 
ATOM      8  C   UNL     1       7.744   5.383  13.656  0.00  0.00    +0.000 A 
ATOM      9  C   UNL     1       7.764   5.069  12.294  0.00  0.00    +0.000 A 
ATOM     10  C   UNL     1       6.937   4.064  11.846  0.00  0.00    +0.000 A 
ATOM     11  N   UNL     1       6.092   3.365  12.626  0.00  0.00    +0.000 NA
ATOM     12  C   UNL     1       6.088   3.689  13.949  0.00  0.00    +0.000 A 
ENDBRANCH   3   7
ENDBRANCH   1   4
BRANCH   1  13
ATOM     13  C   UNL     1       5.454   4.226  18.996  0.00  0.00    +0.000 C 
ATOM     14  O   UNL     1       5.070   3.230  19.596  0.00  0.00    +0.000 OA
BRANCH  13  15
ATOM     15  C   UNL     1       5.012   5.635  19.284  0.00  0.00    +0.000 C 
BRANCH  15  16
ATOM     16  C   UNL     1       4.105   6.206  18.206  0.00  0.00    +0.000 C 
BRANCH  16  17
ATOM     17  C   UNL     1       2.693   6.435  18.750  0.00  0.00    +0.000 C 
BRANCH  17  18
ATOM     18  C   UNL     1       2.023   5.129  19.093  0.00  0.00    +0.000 A 
ATOM     19  C   UNL     1       1.703   4.824  20.421  0.00  0.00    +0.000 A 
ATOM     20  C   UNL     1       1.138   3.590  20.745  0.00  0.00    +0.000 A 
ATOM     21  C   UNL     1       0.885   2.653  19.745  0.00  0.00    +0.000 A 
ATOM     22  C   UNL     1       1.188   2.952  18.419  0.00  0.00    +0.000 A 
ATOM     23  C   UNL     1       1.757   4.185  18.092  0.00  0.00    +0.000 A 
ENDBRANCH  17  18
ENDBRANCH  16  17
ENDBRANCH  15  16
ENDBRANCH  13  15
ENDBRANCH   1  13
TORSDOF 7
ENDMDL
MODEL 4
REMARK VINA RESULT:      -7.2      1.687      2.281
REMARK  Name = 
REMARK  7 active torsions:
REMARK  status: ('A' for Active; 'I' for Inactive)
REMARK    1  A    between atoms: C_2  and  C_16
REMARK    2  A    between atoms: N_3  and  O_4
REMARK    3  A    between atoms: O_4  and  C_5
REMARK    4  A    between atoms: C_5  and  C_7
REMARK    5  A    between atoms: C_7  and  C_8
REMARK    6  A    between atoms: C_8  and  C_9
REMARK    7  A    between atoms: C_9  and  C_10
REMARK                            x       y       z     vdW  Elec       q    Type
REMARK                         _______ _______ _______ _____ _____    ______ ____
ROOT
ATOM      1  O   UNL     1       5.157   3.404  19.816  0.00  0.00    +0.000 OA
ENDROOT
BRANCH   1   4
ATOM      2  N   UNL     1       6.828   5.117  18.794  0.00  0.00    +0.000 NA
ATOM      3  C   UNL     1       6.081   4.438  17.976  0.00  0.00    +0.000 C 
ATOM      4  N   UNL     1       5.022   3.667  18.448  0.00  0.00    +0.000 N 
ATOM      5  H   UNL     1       6.467   4.950  19.739  0.00  0.00    +0.000 HD
ATOM      6  H   UNL     1       4.811   2.828  17.909  0.00  0.00    +0.000 HD
BRANCH   3   7
ATOM      7  C   UNL     1       6.368   4.519  16.522  0.00  0.00    +0.000 A 
ATOM      8  C   UNL     1       5.671   3.767  15.567  0.00  0.00    +0.000 A 
ATOM      9  C   UNL     1       6.001   3.903  14.216  0.00  0.00    +0.000 A 
ATOM     10  C   UNL     1       6.998   4.789  13.875  0.00  0.00    +0.000 A 
ATOM     11  N   UNL     1       7.695   5.531  14.755  0.00  0.00    +0.000 NA
ATOM     12  C   UNL     1       7.357   5.382  16.066  0.00  0.00    +0.000 A 
ENDBRANCH   3   7
ENDBRANCH   1   4
BRANCH   1  13
ATOM     13  C   UNL     1       4.662   2.176  20.158  0.00  0.00    +0.000 C 
ATOM     14  O   UNL     1       5.278   1.310  20.766  0.00  0.00    +0.000 OA
BRANCH  13  15
ATOM     15  C   UNL     1       3.175   2.178  19.925  0.00  0.00    +0.000 C 
BRANCH  15  16
ATOM     16  C   UNL     1       2.380   2.567  21.162  0.00  0.00    +0.000 C 
BRANCH  16  17
ATOM     17  C   UNL     1       1.215   3.487  20.790  0.00  0.00    +0.000 C 
BRANCH  17  18
ATOM     18  C   UNL     1       1.681   4.635  19.931  0.00  0.00    +0.000 A 
ATOM     19  C   UNL     1       2.008   5.866  20.511  0.00  0.00    +0.000 A 
ATOM     20  C   UNL     1       2.381   6.946  19.710  0.00  0.00    +0.000 A 
ATOM     21  C   UNL     1       2.433   6.804  18.324  0.00  0.00    +0.000 A 
ATOM     22  C   UNL     1       2.122   5.578  17.739  0.00  0.00    +0.000 A 
ATOM     23  C   UNL     1       1.744   4.497  18.538  0.00  0.00    +0.000 A 
ENDBRANCH  17  18
ENDBRANCH  16  17
ENDBRANCH  15  16
ENDBRANCH  13  15
ENDBRANCH   1  13
TORSDOF 7
ENDMDL
MODEL 5
REMARK VINA RESULT:      -7.1      3.216      6.471
REMARK  Name = 
REMARK  7 active torsions:
REMARK  status: ('A' for Active; 'I' for Inactive)
REMARK    1  A    between atoms: C_2  and  C_16
REMARK    2  A    between atoms: N_3  and  O_4
REMARK    3  A    between atoms: O_4  and  C_5
REMARK    4  A    between atoms: C_5  and  C_7
REMARK    5  A    between atoms: C_7  and  C_8
REMARK    6  A    between atoms: C_8  and  C_9
REMARK    7  A    between atoms: C_9  and  C_10
REMARK                            x       y       z     vdW  Elec       q    Type
REMARK                         _______ _______ _______ _____ _____    ______ ____
ROOT
ATOM      1  O   UNL     1       6.854   5.135  19.051  0.00  0.00    +0.000 OA
ENDROOT
BRANCH   1   4
ATOM      2  N   UNL     1       4.414   5.755  19.708  0.00  0.00    +0.000 NA
ATOM      3  C   UNL     1       4.648   4.533  19.335  0.00  0.00    +0.000 C 
ATOM      4  N   UNL     1       5.952   4.072  19.177  0.00  0.00    +0.000 N 
ATOM      5  H   UNL     1       5.324   6.210  19.836  0.00  0.00    +0.000 HD
ATOM      6  H   UNL     1       6.086   3.361  18.459  0.00  0.00    +0.000 HD
BRANCH   3   7
ATOM      7  C   UNL     1       3.493   3.630  19.102  0.00  0.00    +0.000 A 
ATOM      8  C   UNL     1       3.329   2.895  17.921  0.00  0.00    +0.000 A 
ATOM      9  C   UNL     1       2.214   2.066  17.780  0.00  0.00    +0.000 A 
ATOM     10  C   UNL     1       1.320   1.994  18.824  0.00  0.00    +0.000 A 
ATOM     11  N   UNL     1       1.433   2.681  19.976  0.00  0.00    +0.000 NA
ATOM     12  C   UNL     1       2.528   3.484  20.092  0.00  0.00    +0.000 A 
ENDBRANCH   3   7
ENDBRANCH   1   4
BRANCH   1  13
ATOM     13  C   UNL     1       7.565   5.075  17.885  0.00  0.00    +0.000 C 
ATOM     14  O   UNL     1       8.227   4.116  17.510  0.00  0.00    +0.000 OA
BRANCH  13  15
ATOM     15  C   UNL     1       7.169   6.243  17.023  0.00  0.00    +0.000 C 
BRANCH  15  16
ATOM     16  C   UNL     1       5.864   6.016  16.275  0.00  0.00    +0.000 C 
BRANCH  16  17
ATOM     17  C   UNL     1       5.767   4.572  15.779  0.00  0.00    +0.000 C 
BRANCH  17  18
ATOM     18  C   UNL     1       6.298   4.441  14.375  0.00  0.00    +0.000 A 
ATOM     19  C   UNL     1       7.376   5.226  13.949  0.00  0.00    +0.000 A 
ATOM     20  C   UNL     1       7.829   5.149  12.631  0.00  0.00    +0.000 A 
ATOM     21  C   UNL     1       7.210   4.284  11.730  0.00  0.00    +0.000 A 
ATOM     22  C   UNL     1       6.145   3.490  12.147  0.00  0.00    +0.000 A 
ATOM     23  C   UNL     1       5.687   3.569  13.464  0.00  0.00    +0.000 A 
ENDBRANCH  17  18
ENDBRANCH  16  17
ENDBRANCH  15  16
ENDBRANCH  13  15
ENDBRANCH   1  13
TORSDOF 7
ENDMDL
MODEL 6
REMARK VINA RESULT:      -7.0      2.380      3.861
REMARK  Name = 
REMARK  7 active torsions:
REMARK  status: ('A' for Active; 'I' for Inactive)
REMARK    1  A    between atoms: C_2  and  C_16
REMARK    2  A    between atoms: N_3  and  O_4
REMARK    3  A    between atoms: O_4  and  C_5
REMARK    4  A    between atoms: C_5  and  C_7
REMARK    5  A    between atoms: C_7  and  C_8
REMARK    6  A    between atoms: C_8  and  C_9
REMARK    7  A    between atoms: C_9  and  C_10
REMARK                            x       y       z     vdW  Elec       q    Type
REMARK                         _______ _______ _______ _____ _____    ______ ____
ROOT
ATOM      1  O   UNL     1       3.518   6.027  19.725  0.00  0.00    +0.000 OA
ENDROOT
BRANCH   1   4
ATOM      2  N   UNL     1       5.652   4.592  19.323  0.00  0.00    +0.000 NA
ATOM      3  C   UNL     1       5.180   5.270  18.319  0.00  0.00    +0.000 C 
ATOM      4  N   UNL     1       4.180   6.220  18.506  0.00  0.00    +0.000 N 
ATOM      5  H   UNL     1       5.155   4.912  20.160  0.00  0.00    +0.000 HD
ATOM      6  H   UNL     1       3.533   6.341  17.727  0.00  0.00    +0.000 HD
BRANCH   3   7
ATOM      7  C   UNL     1       5.747   5.024  16.969  0.00  0.00    +0.000 A 
ATOM      8  C   UNL     1       4.965   5.011  15.808  0.00  0.00    +0.000 A 
ATOM      9  C   UNL     1       5.576   4.773  14.574  0.00  0.00    +0.000 A 
ATOM     10  C   UNL     1       6.938   4.573  14.550  0.00  0.00    +0.000 A 
ATOM     11  N   UNL     1       7.730   4.575  15.638  0.00  0.00    +0.000 NA
ATOM     12  C   UNL     1       7.113   4.808  16.830  0.00  0.00    +0.000 A 
ENDBRANCH   3   7
ENDBRANCH   1   4
BRANCH   1  13
ATOM     13  C   UNL     1       2.414   6.825  19.845  0.00  0.00    +0.000 C 
ATOM     14  O   UNL     1       2.196   7.834  19.187  0.00  0.00    +0.000 OA
BRANCH  13  15
ATOM     15  C   UNL     1       1.399   6.111  20.695  0.00  0.00    +0.000 C 
BRANCH  15  16
ATOM     16  C   UNL     1       1.927   4.815  21.292  0.00  0.00    +0.000 C 
BRANCH  16  17
ATOM     17  C   UNL     1       1.190   3.609  20.707  0.00  0.00    +0.000 C 
BRANCH  17  18
ATOM     18  C   UNL     1       1.932   3.037  19.526  0.00  0.00    +0.000 A 
ATOM     19  C   UNL     1       2.936   2.081  19.716  0.00  0.00    +0.000 A 
ATOM     20  C   UNL     1       3.664   1.597  18.628  0.00  0.00    +0.000 A 
ATOM     21  C   UNL     1       3.391   2.061  17.342  0.00  0.00    +0.000 A 
ATOM     22  C   UNL     1       2.385   3.002  17.142  0.00  0.00    +0.000 A 
ATOM     23  C   UNL     1       1.658   3.492  18.229  0.00  0.00    +0.000 A 
ENDBRANCH  17  18
ENDBRANCH  16  17
ENDBRANCH  15  16
ENDBRANCH  13  15
ENDBRANCH   1  13
TORSDOF 7
ENDMDL
MODEL 7
REMARK VINA RESULT:      -6.9      0.927      1.007
REMARK  Name = 
REMARK  7 active torsions:
REMARK  status: ('A' for Active; 'I' for Inactive)
REMARK    1  A    between atoms: C_2  and  C_16
REMARK    2  A    between atoms: N_3  and  O_4
REMARK    3  A    between atoms: O_4  and  C_5
REMARK    4  A    between atoms: C_5  and  C_7
REMARK    5  A    between atoms: C_7  and  C_8
REMARK    6  A    between atoms: C_8  and  C_9
REMARK    7  A    between atoms: C_9  and  C_10
REMARK                            x       y       z     vdW  Elec       q    Type
REMARK                         _______ _______ _______ _____ _____    ______ ____
ROOT
ATOM      1  O   UNL     1       4.654   2.893  18.298  0.00  0.00    +0.000 OA
ENDROOT
BRANCH   1   4
ATOM      2  N   UNL     1       6.276   3.867  16.511  0.00  0.00    +0.000 NA
ATOM      3  C   UNL     1       6.208   4.471  17.660  0.00  0.00    +0.000 C 
ATOM      4  N   UNL     1       5.533   3.893  18.732  0.00  0.00    +0.000 N 
ATOM      5  H   UNL     1       5.772   2.980  16.609  0.00  0.00    +0.000 HD
ATOM      6  H   UNL     1       5.092   4.544  19.381  0.00  0.00    +0.000 HD
BRANCH   3   7
ATOM      7  C   UNL     1       6.884   5.784  17.812  0.00  0.00    +0.000 A 
ATOM      8  C   UNL     1       7.811   6.048  18.828  0.00  0.00    +0.000 A 
ATOM      9  C   UNL     1       8.406   7.310  18.901  0.00  0.00    +0.000 A 
ATOM     10  C   UNL     1       8.062   8.247  17.953  0.00  0.00    +0.000 A 
ATOM     11  N   UNL     1       7.177   8.041  16.960  0.00  0.00    +0.000 NA
ATOM     12  C   UNL     1       6.609   6.804  16.908  0.00  0.00    +0.000 A 
ENDBRANCH   3   7
ENDBRANCH   1   4
BRANCH   1  13
ATOM     13  C   UNL     1       4.257   2.076  19.320  0.00  0.00    +0.000 C 
ATOM     14  O   UNL     1       4.706   2.099  20.459  0.00  0.00    +0.000 OA
BRANCH  13  15
ATOM     15  C   UNL     1       3.002   1.359  18.899  0.00  0.00    +0.000 C 
BRANCH  15  16
ATOM     16  C   UNL     1       2.037   2.250  18.133  0.00  0.00    +0.000 C 
BRANCH  16  17
ATOM     17  C   UNL     1       1.138   3.029  19.095  0.00  0.00    +0.000 C 
BRANCH  17  18
ATOM     18  C   UNL     1       1.604   4.455  19.241  0.00  0.00    +0.000 A 
ATOM     19  C   UNL     1       1.491   5.114  20.471  0.00  0.00    +0.000 A 
ATOM     20  C   UNL     1       1.867   6.453  20.591  0.00  0.00    +0.000 A 
ATOM     21  C   UNL     1       2.361   7.142  19.485  0.00  0.00    +0.000 A 
ATOM     22  C   UNL     1       2.489   6.491  18.261  0.00  0.00    +0.000 A 
ATOM     23  C   UNL     1       2.110   5.153  18.137  0.00  0.00    +0.000 A 
ENDBRANCH  17  18
ENDBRANCH  16  17
ENDBRANCH  15  16
ENDBRANCH  13  15
ENDBRANCH   1  13
TORSDOF 7
ENDMDL
MODEL 8
REMARK VINA RESULT:      -6.9      3.247      7.443
REMARK  Name = 
REMARK  7 active torsions:
REMARK  status: ('A' for Active; 'I' for Inactive)
REMARK    1  A    between atoms: C_2  and  C_16
REMARK    2  A    between atoms: N_3  and  O_4
REMARK    3  A    between atoms: O_4  and  C_5
REMARK    4  A    between atoms: C_5  and  C_7
REMARK    5  A    between atoms: C_7  and  C_8
REMARK    6  A    between atoms: C_8  and  C_9
REMARK    7  A    between atoms: C_9  and  C_10
REMARK                            x       y       z     vdW  Elec       q    Type
REMARK                         _______ _______ _______ _____ _____    ______ ____
ROOT
ATOM      1  O   UNL     1       6.881   5.333  17.929  0.00  0.00    +0.000 OA
ENDROOT
BRANCH   1   4
ATOM      2  N   UNL     1       5.286   3.477  17.044  0.00  0.00    +0.000 NA
ATOM      3  C   UNL     1       4.811   4.320  17.912  0.00  0.00    +0.000 C 
ATOM      4  N   UNL     1       5.528   5.459  18.267  0.00  0.00    +0.000 N 
ATOM      5  H   UNL     1       6.196   3.839  16.741  0.00  0.00    +0.000 HD
ATOM      6  H   UNL     1       5.395   5.785  19.223  0.00  0.00    +0.000 HD
BRANCH   3   7
ATOM      7  C   UNL     1       3.476   4.052  18.501  0.00  0.00    +0.000 A 
ATOM      8  C   UNL     1       3.130   4.435  19.803  0.00  0.00    +0.000 A 
ATOM      9  C   UNL     1       1.850   4.147  20.284  0.00  0.00    +0.000 A 
ATOM     10  C   UNL     1       0.968   3.505  19.444  0.00  0.00    +0.000 A 
ATOM     11  N   UNL     1       1.255   3.117  18.188  0.00  0.00    +0.000 NA
ATOM     12  C   UNL     1       2.508   3.407  17.740  0.00  0.00    +0.000 A 
ENDBRANCH   3   7
ENDBRANCH   1   4
BRANCH   1  13
ATOM     13  C   UNL     1       7.293   6.315  17.071  0.00  0.00    +0.000 C 
ATOM     14  O   UNL     1       7.583   6.147  15.893  0.00  0.00    +0.000 OA
BRANCH  13  15
ATOM     15  C   UNL     1       7.056   7.650  17.722  0.00  0.00    +0.000 C 
BRANCH  15  16
ATOM     16  C   UNL     1       8.345   8.368  18.094  0.00  0.00    +0.000 C 
BRANCH  16  17
ATOM     17  C   UNL     1       8.166   9.885  18.003  0.00  0.00    +0.000 C 
BRANCH  17  18
ATOM     18  C   UNL     1       9.324  10.609  18.640  0.00  0.00    +0.000 A 
ATOM     19  C   UNL     1       9.362  10.804  20.026  0.00  0.00    +0.000 A 
ATOM     20  C   UNL     1      10.403  11.527  20.609  0.00  0.00    +0.000 A 
ATOM     21  C   UNL     1      11.418  12.056  19.813  0.00  0.00    +0.000 A 
ATOM     22  C   UNL     1      11.396  11.856  18.435  0.00  0.00    +0.000 A 
ATOM     23  C   UNL     1      10.353  11.137  17.848  0.00  0.00    +0.000 A 
ENDBRANCH  17  18
ENDBRANCH  16  17
ENDBRANCH  15  16
ENDBRANCH  13  15
ENDBRANCH   1  13
TORSDOF 7
ENDMDL
MODEL 9
REMARK VINA RESULT:      -6.9      3.271      7.707
REMARK  Name = 
REMARK  7 active torsions:
REMARK  status: ('A' for Active; 'I' for Inactive)
REMARK    1  A    between atoms: C_2  and  C_16
REMARK    2  A    between atoms: N_3  and  O_4
REMARK    3  A    between atoms: O_4  and  C_5
REMARK    4  A    between atoms: C_5  and  C_7
REMARK    5  A    between atoms: C_7  and  C_8
REMARK    6  A    between atoms: C_8  and  C_9
REMARK    7  A    between atoms: C_9  and  C_10
REMARK                            x       y       z     vdW  Elec       q    Type
REMARK                         _______ _______ _______ _____ _____    ______ ____
ROOT
ATOM      1  O   UNL     1       6.338   6.050  18.678  0.00  0.00    +0.000 OA
ENDROOT
BRANCH   1   4
ATOM      2  N   UNL     1       5.684   3.561  19.060  0.00  0.00    +0.000 NA
ATOM      3  C   UNL     1       4.736   4.449  19.099  0.00  0.00    +0.000 C 
ATOM      4  N   UNL     1       4.969   5.760  18.695  0.00  0.00    +0.000 N 
ATOM      5  H   UNL     1       6.520   4.031  18.699  0.00  0.00    +0.000 HD
ATOM      6  H   UNL     1       4.426   6.475  19.178  0.00  0.00    +0.000 HD
BRANCH   3   7
ATOM      7  C   UNL     1       3.390   4.028  19.564  0.00  0.00    +0.000 A 
ATOM      8  C   UNL     1       2.460   4.924  20.107  0.00  0.00    +0.000 A 
ATOM      9  C   UNL     1       1.213   4.448  20.520  0.00  0.00    +0.000 A 
ATOM     10  C   UNL     1       0.943   3.107  20.363  0.00  0.00    +0.000 A 
ATOM     11  N   UNL     1       1.804   2.210  19.850  0.00  0.00    +0.000 NA
ATOM     12  C   UNL     1       3.014   2.695  19.454  0.00  0.00    +0.000 A 
ENDBRANCH   3   7
ENDBRANCH   1   4
BRANCH   1  13
ATOM     13  C   UNL     1       6.711   6.719  17.545  0.00  0.00    +0.000 C 
ATOM     14  O   UNL     1       5.994   6.915  16.572  0.00  0.00    +0.000 OA
BRANCH  13  15
ATOM     15  C   UNL     1       8.021   7.412  17.807  0.00  0.00    +0.000 C 
BRANCH  15  16
ATOM     16  C   UNL     1       7.912   8.928  17.761  0.00  0.00    +0.000 C 
BRANCH  16  17
ATOM     17  C   UNL     1       8.847   9.571  18.787  0.00  0.00    +0.000 C 
BRANCH  17  18
ATOM     18  C   UNL     1       9.403  10.875  18.276  0.00  0.00    +0.000 A 
ATOM     19  C   UNL     1      10.787  11.077  18.206  0.00  0.00    +0.000 A 
ATOM     20  C   UNL     1      11.301  12.306  17.790  0.00  0.00    +0.000 A 
ATOM     21  C   UNL     1      10.437  13.341  17.437  0.00  0.00    +0.000 A 
ATOM     22  C   UNL     1       9.059  13.145  17.490  0.00  0.00    +0.000 A 
ATOM     23  C   UNL     1       8.542  11.918  17.910  0.00  0.00    +0.000 A 
ENDBRANCH  17  18
ENDBRANCH  16  17
ENDBRANCH  15  16
ENDBRANCH  13  15
ENDBRANCH   1  13
TORSDOF 7
ENDMDL
