MODEL 1
REMARK VINA RESULT:      -8.4      0.000      0.000
REMARK  Name = 
REMARK  6 active torsions:
REMARK  status: ('A' for Active; 'I' for Inactive)
REMARK    1  A    between atoms: C_2  and  C_13
REMARK    2  A    between atoms: N_3  and  C_4
REMARK    3  A    between atoms: C_4  and  C_5
REMARK    4  A    between atoms: C_5  and  C_6
REMARK    5  A    between atoms: C_6  and  N_7
REMARK    6  A    between atoms: N_17  and  C_18
REMARK                            x       y       z     vdW  Elec       q    Type
REMARK                         _______ _______ _______ _____ _____    ______ ____
ROOT
ATOM      1  C   UNL     1      -0.297   9.699  21.125  0.00  0.00    +0.000 C 
ATOM      2  C   UNL     1      -0.456  10.524  19.832  0.00  0.00    +0.000 C 
ATOM      3  C   UNL     1       0.039   9.793  18.585  0.00  0.00    +0.000 C 
ATOM      4  C   UNL     1       1.471   9.289  18.764  0.00  0.00    +0.000 C 
ATOM      5  N   UNL     1       1.506   8.493  19.978  0.00  0.00    +0.000 N 
ATOM      6  C   UNL     1       1.125   9.138  21.232  0.00  0.00    +0.000 C 
ENDROOT
BRANCH   5   7
ATOM      7  C   UNL     1       1.997   7.210  19.948  0.00  0.00    +0.000 A 
ATOM      8  N   UNL     1       1.485   6.284  20.811  0.00  0.00    +0.000 NA
ATOM      9  C   UNL     1       1.899   5.007  20.729  0.00  0.00    +0.000 A 
ATOM     10  N   UNL     1       2.836   4.478  19.917  0.00  0.00    +0.000 NA
ATOM     11  C   UNL     1       3.360   5.428  19.125  0.00  0.00    +0.000 A 
ATOM     12  C   UNL     1       3.015   6.763  19.065  0.00  0.00    +0.000 A 
ATOM     13  N   UNL     1       3.781   7.420  18.115  0.00  0.00    +0.000 NA
ATOM     14  C   UNL     1       4.585   6.503  17.617  0.00  0.00    +0.000 A 
ATOM     15  N   UNL     1       4.352   5.274  18.190  0.00  0.00    +0.000 N 
ATOM     16  C   UNL     1       5.021   4.044  17.841  0.00  0.00    +0.000 C 
ATOM     17  C   UNL     1       4.801   3.644  16.383  0.00  0.00    +0.000 C 
ATOM     18  C   UNL     1       5.651   4.443  15.389  0.00  0.00    +0.000 C 
ATOM     19  C   UNL     1       5.299   5.930  15.290  0.00  0.00    +0.000 C 
ATOM     20  C   UNL     1       5.613   6.720  16.559  0.00  0.00    +0.000 C 
ENDBRANCH   5   7
BRANCH   1  22
ATOM     21  O   UNL     1      -0.154  10.397  23.438  0.00  0.00    +0.000 OA
ATOM     22  C   UNL     1      -0.643  10.580  22.323  0.00  0.00    +0.000 C 
ATOM     23  N   UNL     1      -1.528  11.608  22.092  0.00  0.00    +0.000 N 
ATOM     24  H   UNL     1      -1.694  11.907  21.132  0.00  0.00    +0.000 HD
BRANCH  23  25
ATOM     25  C   UNL     1      -1.884  12.507  23.171  0.00  0.00    +0.000 C 
BRANCH  25  26
ATOM     26  C   UNL     1      -3.361  12.440  23.524  0.00  0.00    +0.000 C 
BRANCH  26  27
ATOM     27  C   UNL     1      -4.154  13.588  22.899  0.00  0.00    +0.000 C 
BRANCH  27  28
ATOM     28  N   UNL     1      -5.395  13.129  22.292  0.00  0.00    +0.000 N 
ATOM     29  C   UNL     1      -5.418  12.486  21.003  0.00  0.00    +0.000 C 
ATOM     30  C   UNL     1      -6.900  12.309  20.737  0.00  0.00    +0.000 C 
ATOM     31  C   UNL     1      -7.481  12.069  22.123  0.00  0.00    +0.000 C 
ATOM     32  C   UNL     1      -6.539  12.828  23.026  0.00  0.00    +0.000 C 
ATOM     33  O   UNL     1      -6.732  13.049  24.212  0.00  0.00    +0.000 OA
ENDBRANCH  27  28
ENDBRANCH  26  27
ENDBRANCH  25  26
ENDBRANCH  23  25
ENDBRANCH   1  22
TORSDOF 6
ENDMDL
MODEL 2
REMARK VINA RESULT:      -8.3      4.312     10.546
REMARK  Name = 
REMARK  6 active torsions:
REMARK  status: ('A' for Active; 'I' for Inactive)
REMARK    1  A    between atoms: C_2  and  C_13
REMARK    2  A    between atoms: N_3  and  C_4
REMARK    3  A    between atoms: C_4  and  C_5
REMARK    4  A    between atoms: C_5  and  C_6
REMARK    5  A    between atoms: C_6  and  N_7
REMARK    6  A    between atoms: N_17  and  C_18
REMARK                            x       y       z     vdW  Elec       q    Type
REMARK                         _______ _______ _______ _____ _____    ______ ____
ROOT
ATOM      1  C   UNL     1       2.620   4.442  18.157  0.00  0.00    +0.000 C 
ATOM      2  C   UNL     1       1.982   3.667  19.328  0.00  0.00    +0.000 C 
ATOM      3  C   UNL     1       1.070   4.530  20.197  0.00  0.00    +0.000 C 
ATOM      4  C   UNL     1       1.787   5.792  20.676  0.00  0.00    +0.000 C 
ATOM      5  N   UNL     1       2.312   6.469  19.504  0.00  0.00    +0.000 N 
ATOM      6  C   UNL     1       3.256   5.742  18.658  0.00  0.00    +0.000 C 
ENDROOT
BRANCH   5   7
ATOM      7  C   UNL     1       2.012   7.791  19.276  0.00  0.00    +0.000 A 
ATOM      8  N   UNL     1       2.278   8.330  18.051  0.00  0.00    +0.000 NA
ATOM      9  C   UNL     1       1.907   9.597  17.793  0.00  0.00    +0.000 A 
ATOM     10  N   UNL     1       1.331  10.488  18.625  0.00  0.00    +0.000 NA
ATOM     11  C   UNL     1       1.140   9.944  19.837  0.00  0.00    +0.000 A 
ATOM     12  C   UNL     1       1.428   8.656  20.240  0.00  0.00    +0.000 A 
ATOM     13  N   UNL     1       1.080   8.473  21.569  0.00  0.00    +0.000 NA
ATOM     14  C   UNL     1       0.601   9.633  21.969  0.00  0.00    +0.000 A 
ATOM     15  N   UNL     1       0.603  10.551  20.944  0.00  0.00    +0.000 N 
ATOM     16  C   UNL     1       0.101  11.902  21.025  0.00  0.00    +0.000 C 
ATOM     17  C   UNL     1      -1.388  11.960  21.361  0.00  0.00    +0.000 C 
ATOM     18  C   UNL     1      -1.698  11.706  22.839  0.00  0.00    +0.000 C 
ATOM     19  C   UNL     1      -1.393  10.288  23.328  0.00  0.00    +0.000 C 
ATOM     20  C   UNL     1       0.095   9.948  23.336  0.00  0.00    +0.000 C 
ENDBRANCH   5   7
BRANCH   1  22
ATOM     21  O   UNL     1       3.698   2.331  17.665  0.00  0.00    +0.000 OA
ATOM     22  C   UNL     1       3.647   3.545  17.468  0.00  0.00    +0.000 C 
ATOM     23  N   UNL     1       4.514   4.164  16.597  0.00  0.00    +0.000 N 
ATOM     24  H   UNL     1       4.277   5.090  16.243  0.00  0.00    +0.000 HD
BRANCH  23  25
ATOM     25  C   UNL     1       5.498   3.376  15.882  0.00  0.00    +0.000 C 
BRANCH  25  26
ATOM     26  C   UNL     1       6.781   4.147  15.615  0.00  0.00    +0.000 C 
BRANCH  26  27
ATOM     27  C   UNL     1       6.598   5.653  15.809  0.00  0.00    +0.000 C 
BRANCH  27  28
ATOM     28  N   UNL     1       7.311   6.144  16.980  0.00  0.00    +0.000 N 
ATOM     29  C   UNL     1       7.434   7.552  17.258  0.00  0.00    +0.000 C 
ATOM     30  C   UNL     1       8.341   7.581  18.472  0.00  0.00    +0.000 C 
ATOM     31  C   UNL     1       7.961   6.315  19.227  0.00  0.00    +0.000 C 
ATOM     32  C   UNL     1       7.509   5.383  18.129  0.00  0.00    +0.000 C 
ATOM     33  O   UNL     1       7.281   4.192  18.271  0.00  0.00    +0.000 OA
ENDBRANCH  27  28
ENDBRANCH  26  27
ENDBRANCH  25  26
ENDBRANCH  23  25
ENDBRANCH   1  22
TORSDOF 6
ENDMDL
MODEL 3
REMARK VINA RESULT:      -8.3      2.983     10.440
REMARK  Name = 
REMARK  6 active torsions:
REMARK  status: ('A' for Active; 'I' for Inactive)
REMARK    1  A    between atoms: C_2  and  C_13
REMARK    2  A    between atoms: N_3  and  C_4
REMARK    3  A    between atoms: C_4  and  C_5
REMARK    4  A    between atoms: C_5  and  C_6
REMARK    5  A    between atoms: C_6  and  N_7
REMARK    6  A    between atoms: N_17  and  C_18
REMARK                            x       y       z     vdW  Elec       q    Type
REMARK                         _______ _______ _______ _____ _____    ______ ____
ROOT
ATOM      1  C   UNL     1       0.325  10.438  19.488  0.00  0.00    +0.000 C 
ATOM      2  C   UNL     1       1.113  11.761  19.584  0.00  0.00    +0.000 C 
ATOM      3  C   UNL     1       0.223  13.000  19.510  0.00  0.00    +0.000 C 
ATOM      4  C   UNL     1      -0.681  12.966  18.278  0.00  0.00    +0.000 C 
ATOM      5  N   UNL     1      -1.406  11.709  18.302  0.00  0.00    +0.000 N 
ATOM      6  C   UNL     1      -0.632  10.470  18.292  0.00  0.00    +0.000 C 
ENDROOT
BRANCH   5   7
ATOM      7  C   UNL     1      -2.778  11.701  18.218  0.00  0.00    +0.000 A 
ATOM      8  N   UNL     1      -3.371  11.184  17.102  0.00  0.00    +0.000 NA
ATOM      9  C   UNL     1      -4.712  11.094  17.050  0.00  0.00    +0.000 A 
ATOM     10  N   UNL     1      -5.618  11.510  17.958  0.00  0.00    +0.000 NA
ATOM     11  C   UNL     1      -5.001  12.068  19.014  0.00  0.00    +0.000 A 
ATOM     12  C   UNL     1      -3.644  12.197  19.228  0.00  0.00    +0.000 A 
ATOM     13  N   UNL     1      -3.402  12.823  20.440  0.00  0.00    +0.000 NA
ATOM     14  C   UNL     1      -4.590  13.082  20.946  0.00  0.00    +0.000 A 
ATOM     15  N   UNL     1      -5.591  12.624  20.120  0.00  0.00    +0.000 N 
ATOM     16  C   UNL     1      -7.006  12.699  20.393  0.00  0.00    +0.000 C 
ATOM     17  C   UNL     1      -7.406  11.936  21.655  0.00  0.00    +0.000 C 
ATOM     18  C   UNL     1      -7.068  12.672  22.955  0.00  0.00    +0.000 C 
ATOM     19  C   UNL     1      -5.571  12.836  23.233  0.00  0.00    +0.000 C 
ATOM     20  C   UNL     1      -4.862  13.760  22.246  0.00  0.00    +0.000 C 
ENDBRANCH   5   7
BRANCH   1  22
ATOM     21  O   UNL     1       1.530   8.512  20.324  0.00  0.00    +0.000 OA
ATOM     22  C   UNL     1       1.313   9.278  19.385  0.00  0.00    +0.000 C 
ATOM     23  N   UNL     1       1.946   9.118  18.173  0.00  0.00    +0.000 N 
ATOM     24  H   UNL     1       1.552   9.571  17.350  0.00  0.00    +0.000 HD
BRANCH  23  25
ATOM     25  C   UNL     1       2.875   8.022  17.987  0.00  0.00    +0.000 C 
BRANCH  25  26
ATOM     26  C   UNL     1       2.185   6.667  17.983  0.00  0.00    +0.000 C 
BRANCH  26  27
ATOM     27  C   UNL     1       3.071   5.570  18.575  0.00  0.00    +0.000 C 
BRANCH  27  28
ATOM     28  N   UNL     1       2.292   4.440  19.062  0.00  0.00    +0.000 N 
ATOM     29  C   UNL     1       1.556   4.503  20.299  0.00  0.00    +0.000 C 
ATOM     30  C   UNL     1       1.024   3.092  20.451  0.00  0.00    +0.000 C 
ATOM     31  C   UNL     1       0.774   2.653  19.015  0.00  0.00    +0.000 C 
ATOM     32  C   UNL     1       1.800   3.437  18.233  0.00  0.00    +0.000 C 
ATOM     33  O   UNL     1       2.070   3.257  17.055  0.00  0.00    +0.000 OA
ENDBRANCH  27  28
ENDBRANCH  26  27
ENDBRANCH  25  26
ENDBRANCH  23  25
ENDBRANCH   1  22
TORSDOF 6
ENDMDL
MODEL 4
REMARK VINA RESULT:      -8.2      3.226     10.147
REMARK  Name = 
REMARK  6 active torsions:
REMARK  status: ('A' for Active; 'I' for Inactive)
REMARK    1  A    between atoms: C_2  and  C_13
REMARK    2  A    between atoms: N_3  and  C_4
REMARK    3  A    between atoms: C_4  and  C_5
REMARK    4  A    between atoms: C_5  and  C_6
REMARK    5  A    between atoms: C_6  and  N_7
REMARK    6  A    between atoms: N_17  and  C_18
REMARK                            x       y       z     vdW  Elec       q    Type
REMARK                         _______ _______ _______ _____ _____    ______ ____
ROOT
ATOM      1  C   UNL     1       1.915   7.619  18.866  0.00  0.00    +0.000 C 
ATOM      2  C   UNL     1       2.124   7.230  20.344  0.00  0.00    +0.000 C 
ATOM      3  C   UNL     1       1.072   7.824  21.279  0.00  0.00    +0.000 C 
ATOM      4  C   UNL     1       0.958   9.338  21.101  0.00  0.00    +0.000 C 
ATOM      5  N   UNL     1       0.720   9.596  19.693  0.00  0.00    +0.000 N 
ATOM      6  C   UNL     1       1.719   9.132  18.732  0.00  0.00    +0.000 C 
ENDROOT
BRANCH   5   7
ATOM      7  C   UNL     1      -0.356  10.357  19.301  0.00  0.00    +0.000 A 
ATOM      8  N   UNL     1      -0.745  10.332  17.993  0.00  0.00    +0.000 NA
ATOM      9  C   UNL     1      -1.848  11.004  17.621  0.00  0.00    +0.000 A 
ATOM     10  N   UNL     1      -2.645  11.792  18.371  0.00  0.00    +0.000 NA
ATOM     11  C   UNL     1      -2.198  11.842  19.636  0.00  0.00    +0.000 A 
ATOM     12  C   UNL     1      -1.112  11.181  20.176  0.00  0.00    +0.000 A 
ATOM     13  N   UNL     1      -0.978  11.486  21.521  0.00  0.00    +0.000 NA
ATOM     14  C   UNL     1      -1.956  12.326  21.790  0.00  0.00    +0.000 A 
ATOM     15  N   UNL     1      -2.732  12.557  20.678  0.00  0.00    +0.000 N 
ATOM     16  C   UNL     1      -3.913  13.386  20.634  0.00  0.00    +0.000 C 
ATOM     17  C   UNL     1      -5.018  12.891  21.566  0.00  0.00    +0.000 C 
ATOM     18  C   UNL     1      -4.778  13.228  23.041  0.00  0.00    +0.000 C 
ATOM     19  C   UNL     1      -3.583  12.515  23.679  0.00  0.00    +0.000 C 
ATOM     20  C   UNL     1      -2.234  12.952  23.114  0.00  0.00    +0.000 C 
ENDBRANCH   5   7
BRANCH   1  22
ATOM     21  O   UNL     1       3.380   7.593  16.939  0.00  0.00    +0.000 OA
ATOM     22  C   UNL     1       3.111   7.134  18.050  0.00  0.00    +0.000 C 
ATOM     23  N   UNL     1       3.892   6.159  18.627  0.00  0.00    +0.000 N 
ATOM     24  H   UNL     1       3.820   6.004  19.632  0.00  0.00    +0.000 HD
BRANCH  23  25
ATOM     25  C   UNL     1       5.062   5.669  17.929  0.00  0.00    +0.000 C 
BRANCH  25  26
ATOM     26  C   UNL     1       5.164   4.152  17.953  0.00  0.00    +0.000 C 
BRANCH  26  27
ATOM     27  C   UNL     1       3.941   3.483  17.324  0.00  0.00    +0.000 C 
BRANCH  27  28
ATOM     28  N   UNL     1       2.923   3.164  18.315  0.00  0.00    +0.000 N 
ATOM     29  C   UNL     1       3.266   2.773  19.658  0.00  0.00    +0.000 C 
ATOM     30  C   UNL     1       1.922   2.426  20.266  0.00  0.00    +0.000 C 
ATOM     31  C   UNL     1       0.966   3.397  19.587  0.00  0.00    +0.000 C 
ATOM     32  C   UNL     1       1.615   3.635  18.245  0.00  0.00    +0.000 C 
ATOM     33  O   UNL     1       1.092   4.219  17.308  0.00  0.00    +0.000 OA
ENDBRANCH  27  28
ENDBRANCH  26  27
ENDBRANCH  25  26
ENDBRANCH  23  25
ENDBRANCH   1  22
TORSDOF 6
ENDMDL
MODEL 5
REMARK VINA RESULT:      -8.2      0.995      1.186
REMARK  Name = 
REMARK  6 active torsions:
REMARK  status: ('A' for Active; 'I' for Inactive)
REMARK    1  A    between atoms: C_2  and  C_13
REMARK    2  A    between atoms: N_3  and  C_4
REMARK    3  A    between atoms: C_4  and  C_5
REMARK    4  A    between atoms: C_5  and  C_6
REMARK    5  A    between atoms: C_6  and  N_7
REMARK    6  A    between atoms: N_17  and  C_18
REMARK                            x       y       z     vdW  Elec       q    Type
REMARK                         _______ _______ _______ _____ _____    ______ ____
ROOT
ATOM      1  C   UNL     1      -0.267   9.730  21.100  0.00  0.00    +0.000 C 
ATOM      2  C   UNL     1      -0.449  10.535  19.796  0.00  0.00    +0.000 C 
ATOM      3  C   UNL     1       0.024   9.785  18.553  0.00  0.00    +0.000 C 
ATOM      4  C   UNL     1       1.459   9.285  18.715  0.00  0.00    +0.000 C 
ATOM      5  N   UNL     1       1.516   8.508  19.940  0.00  0.00    +0.000 N 
ATOM      6  C   UNL     1       1.157   9.172  21.191  0.00  0.00    +0.000 C 
ENDROOT
BRANCH   5   7
ATOM      7  C   UNL     1       2.007   7.224  19.922  0.00  0.00    +0.000 A 
ATOM      8  N   UNL     1       1.499   6.307  20.797  0.00  0.00    +0.000 NA
ATOM      9  C   UNL     1       1.913   5.030  20.727  0.00  0.00    +0.000 A 
ATOM     10  N   UNL     1       2.847   4.493  19.916  0.00  0.00    +0.000 NA
ATOM     11  C   UNL     1       3.368   5.434  19.112  0.00  0.00    +0.000 A 
ATOM     12  C   UNL     1       3.023   6.769  19.039  0.00  0.00    +0.000 A 
ATOM     13  N   UNL     1       3.785   7.416  18.080  0.00  0.00    +0.000 NA
ATOM     14  C   UNL     1       4.587   6.494  17.589  0.00  0.00    +0.000 A 
ATOM     15  N   UNL     1       4.357   5.271  18.175  0.00  0.00    +0.000 N 
ATOM     16  C   UNL     1       5.025   4.037  17.837  0.00  0.00    +0.000 C 
ATOM     17  C   UNL     1       4.800   3.622  16.384  0.00  0.00    +0.000 C 
ATOM     18  C   UNL     1       5.645   4.411  15.378  0.00  0.00    +0.000 C 
ATOM     19  C   UNL     1       5.293   5.896  15.265  0.00  0.00    +0.000 C 
ATOM     20  C   UNL     1       5.611   6.700  16.524  0.00  0.00    +0.000 C 
ENDBRANCH   5   7
BRANCH   1  22
ATOM     21  O   UNL     1      -0.190  10.389  23.427  0.00  0.00    +0.000 OA
ATOM     22  C   UNL     1      -0.594  10.630  22.289  0.00  0.00    +0.000 C 
ATOM     23  N   UNL     1      -1.359  11.743  22.024  0.00  0.00    +0.000 N 
ATOM     24  H   UNL     1      -1.439  12.065  21.061  0.00  0.00    +0.000 HD
BRANCH  23  25
ATOM     25  C   UNL     1      -1.685  12.662  23.095  0.00  0.00    +0.000 C 
BRANCH  25  26
ATOM     26  C   UNL     1      -2.997  13.393  22.858  0.00  0.00    +0.000 C 
BRANCH  26  27
ATOM     27  C   UNL     1      -3.638  13.004  21.525  0.00  0.00    +0.000 C 
BRANCH  27  28
ATOM     28  N   UNL     1      -5.043  12.653  21.676  0.00  0.00    +0.000 N 
ATOM     29  C   UNL     1      -5.854  13.202  22.733  0.00  0.00    +0.000 C 
ATOM     30  C   UNL     1      -7.170  12.468  22.569  0.00  0.00    +0.000 C 
ATOM     31  C   UNL     1      -7.273  12.261  21.064  0.00  0.00    +0.000 C 
ATOM     32  C   UNL     1      -5.830  12.183  20.628  0.00  0.00    +0.000 C 
ATOM     33  O   UNL     1      -5.452  11.846  19.517  0.00  0.00    +0.000 OA
ENDBRANCH  27  28
ENDBRANCH  26  27
ENDBRANCH  25  26
ENDBRANCH  23  25
ENDBRANCH   1  22
TORSDOF 6
ENDMDL
MODEL 6
REMARK VINA RESULT:      -8.2      4.405      9.797
REMARK  Name = 
REMARK  6 active torsions:
REMARK  status: ('A' for Active; 'I' for Inactive)
REMARK    1  A    between atoms: C_2  and  C_13
REMARK    2  A    between atoms: N_3  and  C_4
REMARK    3  A    between atoms: C_4  and  C_5
REMARK    4  A    between atoms: C_5  and  C_6
REMARK    5  A    between atoms: C_6  and  N_7
REMARK    6  A    between atoms: N_17  and  C_18
REMARK                            x       y       z     vdW  Elec       q    Type
REMARK                         _______ _______ _______ _____ _____    ______ ____
ROOT
ATOM      1  C   UNL     1       2.041   7.299  18.569  0.00  0.00    +0.000 C 
ATOM      2  C   UNL     1       2.037   6.775  20.020  0.00  0.00    +0.000 C 
ATOM      3  C   UNL     1       1.084   7.540  20.936  0.00  0.00    +0.000 C 
ATOM      4  C   UNL     1       1.340   9.046  20.877  0.00  0.00    +0.000 C 
ATOM      5  N   UNL     1       1.281   9.446  19.483  0.00  0.00    +0.000 N 
ATOM      6  C   UNL     1       2.215   8.821  18.549  0.00  0.00    +0.000 C 
ENDROOT
BRANCH   5   7
ATOM      7  C   UNL     1       0.446  10.466  19.092  0.00  0.00    +0.000 A 
ATOM      8  N   UNL     1      -0.815  10.164  18.666  0.00  0.00    +0.000 NA
ATOM      9  C   UNL     1      -1.665  11.161  18.365  0.00  0.00    +0.000 A 
ATOM     10  N   UNL     1      -1.434  12.490  18.363  0.00  0.00    +0.000 NA
ATOM     11  C   UNL     1      -0.167  12.746  18.727  0.00  0.00    +0.000 A 
ATOM     12  C   UNL     1       0.804  11.840  19.101  0.00  0.00    +0.000 A 
ATOM     13  N   UNL     1       1.985  12.495  19.411  0.00  0.00    +0.000 NA
ATOM     14  C   UNL     1       1.739  13.774  19.216  0.00  0.00    +0.000 A 
ATOM     15  N   UNL     1       0.438  13.974  18.817  0.00  0.00    +0.000 N 
ATOM     16  C   UNL     1      -0.177  15.255  18.565  0.00  0.00    +0.000 C 
ATOM     17  C   UNL     1      -0.192  16.156  19.800  0.00  0.00    +0.000 C 
ATOM     18  C   UNL     1       1.159  16.811  20.104  0.00  0.00    +0.000 C 
ATOM     19  C   UNL     1       2.265  15.840  20.524  0.00  0.00    +0.000 C 
ATOM     20  C   UNL     1       2.706  14.892  19.411  0.00  0.00    +0.000 C 
ENDBRANCH   5   7
BRANCH   1  22
ATOM     21  O   UNL     1       4.077   7.215  17.264  0.00  0.00    +0.000 OA
ATOM     22  C   UNL     1       3.151   6.598  17.790  0.00  0.00    +0.000 C 
ATOM     23  N   UNL     1       3.073   5.226  17.714  0.00  0.00    +0.000 N 
ATOM     24  H   UNL     1       2.477   4.730  18.376  0.00  0.00    +0.000 HD
BRANCH  23  25
ATOM     25  C   UNL     1       4.105   4.485  17.017  0.00  0.00    +0.000 C 
BRANCH  25  26
ATOM     26  C   UNL     1       4.426   3.159  17.688  0.00  0.00    +0.000 C 
BRANCH  26  27
ATOM     27  C   UNL     1       3.184   2.281  17.849  0.00  0.00    +0.000 C 
BRANCH  27  28
ATOM     28  N   UNL     1       2.574   2.432  19.162  0.00  0.00    +0.000 N 
ATOM     29  C   UNL     1       3.302   2.975  20.280  0.00  0.00    +0.000 C 
ATOM     30  C   UNL     1       2.326   2.821  21.429  0.00  0.00    +0.000 C 
ATOM     31  C   UNL     1       0.969   3.018  20.768  0.00  0.00    +0.000 C 
ATOM     32  C   UNL     1       1.199   2.531  19.358  0.00  0.00    +0.000 C 
ATOM     33  O   UNL     1       0.322   2.346  18.529  0.00  0.00    +0.000 OA
ENDBRANCH  27  28
ENDBRANCH  26  27
ENDBRANCH  25  26
ENDBRANCH  23  25
ENDBRANCH   1  22
TORSDOF 6
ENDMDL
MODEL 7
REMARK VINA RESULT:      -8.2      2.397      3.405
REMARK  Name = 
REMARK  6 active torsions:
REMARK  status: ('A' for Active; 'I' for Inactive)
REMARK    1  A    between atoms: C_2  and  C_13
REMARK    2  A    between atoms: N_3  and  C_4
REMARK    3  A    between atoms: C_4  and  C_5
REMARK    4  A    between atoms: C_5  and  C_6
REMARK    5  A    between atoms: C_6  and  N_7
REMARK    6  A    between atoms: N_17  and  C_18
REMARK                            x       y       z     vdW  Elec       q    Type
REMARK                         _______ _______ _______ _____ _____    ______ ____
ROOT
ATOM      1  C   UNL     1      -0.223   9.639  21.153  0.00  0.00    +0.000 C 
ATOM      2  C   UNL     1      -0.410  10.460  19.860  0.00  0.00    +0.000 C 
ATOM      3  C   UNL     1       0.052   9.724  18.605  0.00  0.00    +0.000 C 
ATOM      4  C   UNL     1       1.486   9.216  18.751  0.00  0.00    +0.000 C 
ATOM      5  N   UNL     1       1.548   8.424  19.967  0.00  0.00    +0.000 N 
ATOM      6  C   UNL     1       1.199   9.074  21.228  0.00  0.00    +0.000 C 
ENDROOT
BRANCH   5   7
ATOM      7  C   UNL     1       2.034   7.139  19.930  0.00  0.00    +0.000 A 
ATOM      8  N   UNL     1       1.523   6.211  20.791  0.00  0.00    +0.000 NA
ATOM      9  C   UNL     1       1.931   4.933  20.702  0.00  0.00    +0.000 A 
ATOM     10  N   UNL     1       2.863   4.404  19.884  0.00  0.00    +0.000 NA
ATOM     11  C   UNL     1       3.387   5.355  19.094  0.00  0.00    +0.000 A 
ATOM     12  C   UNL     1       3.047   6.692  19.040  0.00  0.00    +0.000 A 
ATOM     13  N   UNL     1       3.812   7.350  18.090  0.00  0.00    +0.000 NA
ATOM     14  C   UNL     1       4.610   6.432  17.585  0.00  0.00    +0.000 A 
ATOM     15  N   UNL     1       4.375   5.202  18.154  0.00  0.00    +0.000 N 
ATOM     16  C   UNL     1       5.038   3.970  17.798  0.00  0.00    +0.000 C 
ATOM     17  C   UNL     1       4.811   3.578  16.338  0.00  0.00    +0.000 C 
ATOM     18  C   UNL     1       5.659   4.377  15.344  0.00  0.00    +0.000 C 
ATOM     19  C   UNL     1       5.313   5.866  15.253  0.00  0.00    +0.000 C 
ATOM     20  C   UNL     1       5.634   6.649  16.523  0.00  0.00    +0.000 C 
ENDBRANCH   5   7
BRANCH   1  22
ATOM     21  O   UNL     1      -0.097  10.290  23.480  0.00  0.00    +0.000 OA
ATOM     22  C   UNL     1      -0.538  10.525  22.355  0.00  0.00    +0.000 C 
ATOM     23  N   UNL     1      -1.336  11.621  22.117  0.00  0.00    +0.000 N 
ATOM     24  H   UNL     1      -1.451  11.945  21.158  0.00  0.00    +0.000 HD
BRANCH  23  25
ATOM     25  C   UNL     1      -1.656  12.527  23.201  0.00  0.00    +0.000 C 
BRANCH  25  26
ATOM     26  C   UNL     1      -1.959  13.935  22.715  0.00  0.00    +0.000 C 
BRANCH  26  27
ATOM     27  C   UNL     1      -0.686  14.756  22.501  0.00  0.00    +0.000 C 
BRANCH  27  28
ATOM     28  N   UNL     1      -0.224  14.698  21.122  0.00  0.00    +0.000 N 
ATOM     29  C   UNL     1      -0.500  15.755  20.184  0.00  0.00    +0.000 C 
ATOM     30  C   UNL     1       0.051  15.208  18.882  0.00  0.00    +0.000 C 
ATOM     31  C   UNL     1       1.251  14.384  19.325  0.00  0.00    +0.000 C 
ATOM     32  C   UNL     1       0.863  13.930  20.712  0.00  0.00    +0.000 C 
ATOM     33  O   UNL     1       1.464  13.096  21.370  0.00  0.00    +0.000 OA
ENDBRANCH  27  28
ENDBRANCH  26  27
ENDBRANCH  25  26
ENDBRANCH  23  25
ENDBRANCH   1  22
TORSDOF 6
ENDMDL
MODEL 8
REMARK VINA RESULT:      -8.2      1.007      1.204
REMARK  Name = 
REMARK  6 active torsions:
REMARK  status: ('A' for Active; 'I' for Inactive)
REMARK    1  A    between atoms: C_2  and  C_13
REMARK    2  A    between atoms: N_3  and  C_4
REMARK    3  A    between atoms: C_4  and  C_5
REMARK    4  A    between atoms: C_5  and  C_6
REMARK    5  A    between atoms: C_6  and  N_7
REMARK    6  A    between atoms: N_17  and  C_18
REMARK                            x       y       z     vdW  Elec       q    Type
REMARK                         _______ _______ _______ _____ _____    ______ ____
ROOT
ATOM      1  C   UNL     1      -0.413   9.737  20.718  0.00  0.00    +0.000 C 
ATOM      2  C   UNL     1      -0.456  10.538  19.400  0.00  0.00    +0.000 C 
ATOM      3  C   UNL     1       0.177   9.798  18.224  0.00  0.00    +0.000 C 
ATOM      4  C   UNL     1       1.593   9.328  18.556  0.00  0.00    +0.000 C 
ATOM      5  N   UNL     1       1.521   8.554  19.782  0.00  0.00    +0.000 N 
ATOM      6  C   UNL     1       1.001   9.210  20.979  0.00  0.00    +0.000 C 
ENDROOT
BRANCH   5   7
ATOM      7  C   UNL     1       2.038   7.281  19.826  0.00  0.00    +0.000 A 
ATOM      8  N   UNL     1       1.554   6.400  20.750  0.00  0.00    +0.000 NA
ATOM      9  C   UNL     1       1.993   5.129  20.742  0.00  0.00    +0.000 A 
ATOM     10  N   UNL     1       2.933   4.570  19.953  0.00  0.00    +0.000 NA
ATOM     11  C   UNL     1       3.430   5.479  19.099  0.00  0.00    +0.000 A 
ATOM     12  C   UNL     1       3.057   6.801  18.960  0.00  0.00    +0.000 A 
ATOM     13  N   UNL     1       3.800   7.413  17.964  0.00  0.00    +0.000 NA
ATOM     14  C   UNL     1       4.618   6.484  17.515  0.00  0.00    +0.000 A 
ATOM     15  N   UNL     1       4.416   5.288  18.164  0.00  0.00    +0.000 N 
ATOM     16  C   UNL     1       5.107   4.052  17.885  0.00  0.00    +0.000 C 
ATOM     17  C   UNL     1       4.882   3.559  16.456  0.00  0.00    +0.000 C 
ATOM     18  C   UNL     1       5.705   4.312  15.406  0.00  0.00    +0.000 C 
ATOM     19  C   UNL     1       5.322   5.783  15.220  0.00  0.00    +0.000 C 
ATOM     20  C   UNL     1       5.631   6.656  16.434  0.00  0.00    +0.000 C 
ENDBRANCH   5   7
BRANCH   1  22
ATOM     21  O   UNL     1      -0.703  10.351  23.041  0.00  0.00    +0.000 OA
ATOM     22  C   UNL     1      -0.897  10.630  21.858  0.00  0.00    +0.000 C 
ATOM     23  N   UNL     1      -1.557  11.783  21.496  0.00  0.00    +0.000 N 
ATOM     24  H   UNL     1      -1.458  12.126  20.542  0.00  0.00    +0.000 HD
BRANCH  23  25
ATOM     25  C   UNL     1      -2.021  12.697  22.520  0.00  0.00    +0.000 C 
BRANCH  25  26
ATOM     26  C   UNL     1      -3.526  12.910  22.475  0.00  0.00    +0.000 C 
BRANCH  26  27
ATOM     27  C   UNL     1      -4.178  12.692  23.841  0.00  0.00    +0.000 C 
BRANCH  27  28
ATOM     28  N   UNL     1      -5.458  13.376  23.951  0.00  0.00    +0.000 N 
ATOM     29  C   UNL     1      -5.637  14.730  23.494  0.00  0.00    +0.000 C 
ATOM     30  C   UNL     1      -7.055  15.050  23.922  0.00  0.00    +0.000 C 
ATOM     31  C   UNL     1      -7.774  13.714  23.789  0.00  0.00    +0.000 C 
ATOM     32  C   UNL     1      -6.676  12.708  24.039  0.00  0.00    +0.000 C 
ATOM     33  O   UNL     1      -6.849  11.510  24.202  0.00  0.00    +0.000 OA
ENDBRANCH  27  28
ENDBRANCH  26  27
ENDBRANCH  25  26
ENDBRANCH  23  25
ENDBRANCH   1  22
TORSDOF 6
ENDMDL
MODEL 9
REMARK VINA RESULT:      -8.2      3.194     10.893
REMARK  Name = 
REMARK  6 active torsions:
REMARK  status: ('A' for Active; 'I' for Inactive)
REMARK    1  A    between atoms: C_2  and  C_13
REMARK    2  A    between atoms: N_3  and  C_4
REMARK    3  A    between atoms: C_4  and  C_5
REMARK    4  A    between atoms: C_5  and  C_6
REMARK    5  A    between atoms: C_6  and  N_7
REMARK    6  A    between atoms: N_17  and  C_18
REMARK                            x       y       z     vdW  Elec       q    Type
REMARK                         _______ _______ _______ _____ _____    ______ ____
ROOT
ATOM      1  C   UNL     1       0.320   9.959  20.154  0.00  0.00    +0.000 C 
ATOM      2  C   UNL     1       1.140  11.229  20.462  0.00  0.00    +0.000 C 
ATOM      3  C   UNL     1       0.425  12.519  20.067  0.00  0.00    +0.000 C 
ATOM      4  C   UNL     1      -0.033  12.480  18.609  0.00  0.00    +0.000 C 
ATOM      5  N   UNL     1      -0.827  11.277  18.432  0.00  0.00    +0.000 N 
ATOM      6  C   UNL     1      -0.195   9.990  18.711  0.00  0.00    +0.000 C 
ENDROOT
BRANCH   5   7
ATOM      7  C   UNL     1      -2.095  11.357  17.906  0.00  0.00    +0.000 A 
ATOM      8  N   UNL     1      -2.312  10.923  16.630  0.00  0.00    +0.000 NA
ATOM      9  C   UNL     1      -3.564  10.917  16.140  0.00  0.00    +0.000 A 
ATOM     10  N   UNL     1      -4.698  11.353  16.727  0.00  0.00    +0.000 NA
ATOM     11  C   UNL     1      -4.437  11.829  17.955  0.00  0.00    +0.000 A 
ATOM     12  C   UNL     1      -3.221  11.866  18.607  0.00  0.00    +0.000 A 
ATOM     13  N   UNL     1      -3.361  12.428  19.866  0.00  0.00    +0.000 NA
ATOM     14  C   UNL     1      -4.636  12.739  19.971  0.00  0.00    +0.000 A 
ATOM     15  N   UNL     1      -5.331  12.377  18.840  0.00  0.00    +0.000 N 
ATOM     16  C   UNL     1      -6.753  12.528  18.642  0.00  0.00    +0.000 C 
ATOM     17  C   UNL     1      -7.578  11.742  19.660  0.00  0.00    +0.000 C 
ATOM     18  C   UNL     1      -7.652  12.404  21.039  0.00  0.00    +0.000 C 
ATOM     19  C   UNL     1      -6.323  12.464  21.797  0.00  0.00    +0.000 C 
ATOM     20  C   UNL     1      -5.288  13.381  21.149  0.00  0.00    +0.000 C 
ENDBRANCH   5   7
BRANCH   1  22
ATOM     21  O   UNL     1       1.320   8.240  21.533  0.00  0.00    +0.000 OA
ATOM     22  C   UNL     1       1.190   8.731  20.412  0.00  0.00    +0.000 C 
ATOM     23  N   UNL     1       1.819   8.185  19.316  0.00  0.00    +0.000 N 
ATOM     24  H   UNL     1       1.482   8.426  18.385  0.00  0.00    +0.000 HD
BRANCH  23  25
ATOM     25  C   UNL     1       2.639   7.000  19.474  0.00  0.00    +0.000 C 
BRANCH  25  26
ATOM     26  C   UNL     1       2.977   6.343  18.146  0.00  0.00    +0.000 C 
BRANCH  26  27
ATOM     27  C   UNL     1       4.123   7.057  17.428  0.00  0.00    +0.000 C 
BRANCH  27  28
ATOM     28  N   UNL     1       5.339   6.256  17.406  0.00  0.00    +0.000 N 
ATOM     29  C   UNL     1       5.742   5.457  18.535  0.00  0.00    +0.000 C 
ATOM     30  C   UNL     1       7.094   4.921  18.107  0.00  0.00    +0.000 C 
ATOM     31  C   UNL     1       6.944   4.746  16.602  0.00  0.00    +0.000 C 
ATOM     32  C   UNL     1       5.938   5.809  16.232  0.00  0.00    +0.000 C 
ATOM     33  O   UNL     1       5.657   6.140  15.090  0.00  0.00    +0.000 OA
ENDBRANCH  27  28
ENDBRANCH  26  27
ENDBRANCH  25  26
ENDBRANCH  23  25
ENDBRANCH   1  22
TORSDOF 6
ENDMDL
