MODEL 1
REMARK VINA RESULT:      -8.5      0.000      0.000
REMARK  Name = 
REMARK  12 active torsions:
REMARK  status: ('A' for Active; 'I' for Inactive)
REMARK    1  A    between atoms: C_1  and  N_2
REMARK    2  A    between atoms: N_2  and  C_3
REMARK    3  A    between atoms: N_2  and  C_16
REMARK    4  A    between atoms: C_3  and  C_4
REMARK    5  A    between atoms: C_19  and  C_20
REMARK    6  A    between atoms: N_22  and  CA_23
REMARK    7  A    between atoms: CA_23  and  CB_24
REMARK    8  A    between atoms: CA_23  and  C_29
REMARK    9  A    between atoms: CB_24  and  CG_25
REMARK   10  A    between atoms: CG_25  and  CD_26
REMARK   11  A    between atoms: CD_26  and  OE2_28
REMARK   12  A    between atoms: C_29  and  OXT_31
REMARK                            x       y       z     vdW  Elec       q    Type
REMARK                         _______ _______ _______ _____ _____    ______ ____
ROOT
ATOM      1  C   UNK A   0       1.430   9.035  19.707  0.00  0.00    +0.000 A 
ATOM      2  C   UNK A   0       1.683   7.814  20.355  0.00  0.00    +0.000 A 
ATOM      3  C   UNK A   0       2.308   6.734  19.712  0.00  0.00    +0.000 A 
ATOM      4  C   UNK A   0       2.705   6.846  18.381  0.00  0.00    +0.000 A 
ATOM      5  C   UNK A   0       2.409   8.018  17.688  0.00  0.00    +0.000 A 
ATOM      6  C   UNK A   0       1.786   9.087  18.347  0.00  0.00    +0.000 A 
ENDROOT
BRANCH   4   7
ATOM      7  C   UNK A   0       3.432   5.710  17.753  0.00  0.00    +0.000 C 
ATOM      8  O   UNK A   0       2.892   4.617  17.627  0.00  0.00    +0.000 OA
ATOM      9  N   GLU A   1       4.727   5.956  17.363  0.00  0.00    +0.000 N 
ATOM     10  H   GLU A   1       5.177   6.829  17.613  0.00  0.00    +0.000 HD
BRANCH   9  11
ATOM     11  CA  GLU A   1       5.573   4.925  16.760  0.00  0.00    +0.000 C 
BRANCH  11  12
ATOM     12  C   GLU A   1       7.010   5.219  17.211  0.00  0.00    +0.000 C 
ATOM     13  O   GLU A   1       7.643   4.488  17.962  0.00  0.00    +0.000 OA
BRANCH  12  14
ATOM     14  OXT GLU A   1       7.551   6.333  16.669  0.00  0.00    +0.000 OA
ATOM     15  HXT GLU A   1       6.953   6.846  16.082  0.00  0.00    +0.000 HD
ENDBRANCH  12  14
ENDBRANCH  11  12
BRANCH  11  16
ATOM     16  CB  GLU A   1       5.473   4.965  15.224  0.00  0.00    +0.000 C 
BRANCH  16  17
ATOM     17  CG  GLU A   1       6.312   3.918  14.507  0.00  0.00    +0.000 C 
BRANCH  17  18
ATOM     18  CD  GLU A   1       7.117   4.544  13.404  0.00  0.00    +0.000 C 
ATOM     19  OE1 GLU A   1       6.993   4.214  12.233  0.00  0.00    +0.000 OA
BRANCH  18  20
ATOM     20  OE2 GLU A   1       7.913   5.553  13.811  0.00  0.00    +0.000 OA
ATOM     21  HE2 GLU A   1       8.592   5.302  14.467  0.00  0.00    +0.000 HD
ENDBRANCH  18  20
ENDBRANCH  17  18
ENDBRANCH  16  17
ENDBRANCH  11  16
ENDBRANCH   9  11
ENDBRANCH   4   7
BRANCH   1  23
ATOM     22  C   UNK A   0       0.585  10.055  21.794  0.00  0.00    +0.000 C 
ATOM     23  N   UNK A   0       0.840  10.117  20.357  0.00  0.00    +0.000 N 
BRANCH  23  24
ATOM     24  C   UNK A   0       0.574  11.398  19.672  0.00  0.00    +0.000 C 
BRANCH  24  25
ATOM     25  C   UNK A   0      -0.908  11.578  19.340  0.00  0.00    +0.000 C 
ATOM     26  N   UNK A   0      -1.395  11.004  18.273  0.00  0.00    +0.000 NA
ATOM     27  C   UNK A   0      -2.763  11.250  17.990  0.00  0.00    +0.000 A 
ATOM     28  C   UNK A   0      -3.345  10.853  16.787  0.00  0.00    +0.000 A 
ATOM     29  N   UNK A   0      -2.628  10.046  15.891  0.00  0.00    +0.000 N 
ATOM     30  N   UNK A   0      -4.611  11.146  16.453  0.00  0.00    +0.000 NA
ATOM     31  C   UNK A   0      -5.313  11.866  17.327  0.00  0.00    +0.000 A 
ATOM     32  N   UNK A   0      -6.619  12.172  16.993  0.00  0.00    +0.000 N 
ATOM     33  N   UNK A   0      -4.871  12.280  18.519  0.00  0.00    +0.000 NA
ATOM     34  C   UNK A   0      -3.605  11.966  18.834  0.00  0.00    +0.000 A 
ATOM     35  N   UNK A   0      -3.165  12.336  20.106  0.00  0.00    +0.000 N 
ATOM     36  C   UNK A   0      -1.727  12.451  20.291  0.00  0.00    +0.000 C 
ATOM     37  H   UNK A   0      -1.663  10.349  15.831  0.00  0.00    +0.000 HD
ATOM     38  H   UNK A   0      -3.125  10.002  15.009  0.00  0.00    +0.000 HD
ATOM     39  H   UNK A   0      -6.961  11.497  16.319  0.00  0.00    +0.000 HD
ATOM     40  H   UNK A   0      -7.162  12.304  17.830  0.00  0.00    +0.000 HD
ATOM     41  H   UNK A   0      -3.774  13.039  20.508  0.00  0.00    +0.000 HD
ENDBRANCH  24  25
ENDBRANCH  23  24
ENDBRANCH   1  23
TORSDOF 11
ENDMDL
MODEL 2
REMARK VINA RESULT:      -8.3      1.327      2.212
REMARK  Name = 
REMARK  12 active torsions:
REMARK  status: ('A' for Active; 'I' for Inactive)
REMARK    1  A    between atoms: C_1  and  N_2
REMARK    2  A    between atoms: N_2  and  C_3
REMARK    3  A    between atoms: N_2  and  C_16
REMARK    4  A    between atoms: C_3  and  C_4
REMARK    5  A    between atoms: C_19  and  C_20
REMARK    6  A    between atoms: N_22  and  CA_23
REMARK    7  A    between atoms: CA_23  and  CB_24
REMARK    8  A    between atoms: CA_23  and  C_29
REMARK    9  A    between atoms: CB_24  and  CG_25
REMARK   10  A    between atoms: CG_25  and  CD_26
REMARK   11  A    between atoms: CD_26  and  OE2_28
REMARK   12  A    between atoms: C_29  and  OXT_31
REMARK                            x       y       z     vdW  Elec       q    Type
REMARK                         _______ _______ _______ _____ _____    ______ ____
ROOT
ATOM      1  C   UNK A   0       1.863   8.089  19.555  0.00  0.00    +0.000 A 
ATOM      2  C   UNK A   0       2.119   6.830  20.126  0.00  0.00    +0.000 A 
ATOM      3  C   UNK A   0       2.959   5.884  19.518  0.00  0.00    +0.000 A 
ATOM      4  C   UNK A   0       3.578   6.173  18.304  0.00  0.00    +0.000 A 
ATOM      5  C   UNK A   0       3.292   7.385  17.677  0.00  0.00    +0.000 A 
ATOM      6  C   UNK A   0       2.452   8.319  18.299  0.00  0.00    +0.000 A 
ENDROOT
BRANCH   4   7
ATOM      7  C   UNK A   0       4.520   5.179  17.726  0.00  0.00    +0.000 C 
ATOM      8  O   UNK A   0       5.070   4.350  18.442  0.00  0.00    +0.000 OA
ATOM      9  N   GLU A   1       4.751   5.272  16.373  0.00  0.00    +0.000 N 
ATOM     10  H   GLU A   1       4.385   6.058  15.847  0.00  0.00    +0.000 HD
BRANCH   9  11
ATOM     11  CA  GLU A   1       5.677   4.382  15.673  0.00  0.00    +0.000 C 
BRANCH  11  12
ATOM     12  C   GLU A   1       7.092   4.888  15.985  0.00  0.00    +0.000 C 
ATOM     13  O   GLU A   1       7.543   5.940  15.550  0.00  0.00    +0.000 OA
BRANCH  12  14
ATOM     14  OXT GLU A   1       7.795   4.099  16.827  0.00  0.00    +0.000 OA
ATOM     15  HXT GLU A   1       7.883   3.161  16.549  0.00  0.00    +0.000 HD
ENDBRANCH  12  14
ENDBRANCH  11  12
BRANCH  11  16
ATOM     16  CB  GLU A   1       5.420   4.408  14.155  0.00  0.00    +0.000 C 
BRANCH  16  17
ATOM     17  CG  GLU A   1       6.398   3.586  13.331  0.00  0.00    +0.000 C 
BRANCH  17  18
ATOM     18  CD  GLU A   1       5.715   2.979  12.140  0.00  0.00    +0.000 C 
ATOM     19  OE1 GLU A   1       6.174   2.016  11.540  0.00  0.00    +0.000 OA
BRANCH  18  20
ATOM     20  OE2 GLU A   1       4.519   3.532  11.853  0.00  0.00    +0.000 OA
ATOM     21  HE2 GLU A   1       4.472   3.980  10.986  0.00  0.00    +0.000 HD
ENDBRANCH  18  20
ENDBRANCH  17  18
ENDBRANCH  16  17
ENDBRANCH  11  16
ENDBRANCH   9  11
ENDBRANCH   4   7
BRANCH   1  23
ATOM     22  C   UNK A   0       0.392   8.722  21.439  0.00  0.00    +0.000 C 
ATOM     23  N   UNK A   0       1.055   9.040  20.176  0.00  0.00    +0.000 N 
BRANCH  23  24
ATOM     24  C   UNK A   0       0.938  10.423  19.674  0.00  0.00    +0.000 C 
BRANCH  24  25
ATOM     25  C   UNK A   0      -0.407  10.679  18.994  0.00  0.00    +0.000 C 
ATOM     26  N   UNK A   0      -1.283  11.446  19.586  0.00  0.00    +0.000 NA
ATOM     27  C   UNK A   0      -2.532  11.602  18.931  0.00  0.00    +0.000 A 
ATOM     28  C   UNK A   0      -3.609  12.236  19.550  0.00  0.00    +0.000 A 
ATOM     29  N   UNK A   0      -3.431  12.886  20.781  0.00  0.00    +0.000 N 
ATOM     30  N   UNK A   0      -4.826  12.325  18.992  0.00  0.00    +0.000 NA
ATOM     31  C   UNK A   0      -4.984  11.757  17.797  0.00  0.00    +0.000 A 
ATOM     32  N   UNK A   0      -6.234  11.843  17.214  0.00  0.00    +0.000 N 
ATOM     33  N   UNK A   0      -4.021  11.146  17.099  0.00  0.00    +0.000 NA
ATOM     34  C   UNK A   0      -2.810  11.079  17.673  0.00  0.00    +0.000 A 
ATOM     35  N   UNK A   0      -1.789  10.505  16.916  0.00  0.00    +0.000 N 
ATOM     36  C   UNK A   0      -0.644   9.989  17.650  0.00  0.00    +0.000 C 
ATOM     37  H   UNK A   0      -2.836  12.337  21.391  0.00  0.00    +0.000 HD
ATOM     38  H   UNK A   0      -4.337  13.132  21.163  0.00  0.00    +0.000 HD
ATOM     39  H   UNK A   0      -6.732  12.637  17.602  0.00  0.00    +0.000 HD
ATOM     40  H   UNK A   0      -6.145  11.799  16.213  0.00  0.00    +0.000 HD
ATOM     41  H   UNK A   0      -2.168   9.964  16.147  0.00  0.00    +0.000 HD
ENDBRANCH  24  25
ENDBRANCH  23  24
ENDBRANCH   1  23
TORSDOF 11
ENDMDL
MODEL 3
REMARK VINA RESULT:      -8.3      0.997      1.976
REMARK  Name = 
REMARK  12 active torsions:
REMARK  status: ('A' for Active; 'I' for Inactive)
REMARK    1  A    between atoms: C_1  and  N_2
REMARK    2  A    between atoms: N_2  and  C_3
REMARK    3  A    between atoms: N_2  and  C_16
REMARK    4  A    between atoms: C_3  and  C_4
REMARK    5  A    between atoms: C_19  and  C_20
REMARK    6  A    between atoms: N_22  and  CA_23
REMARK    7  A    between atoms: CA_23  and  CB_24
REMARK    8  A    between atoms: CA_23  and  C_29
REMARK    9  A    between atoms: CB_24  and  CG_25
REMARK   10  A    between atoms: CG_25  and  CD_26
REMARK   11  A    between atoms: CD_26  and  OE2_28
REMARK   12  A    between atoms: C_29  and  OXT_31
REMARK                            x       y       z     vdW  Elec       q    Type
REMARK                         _______ _______ _______ _____ _____    ______ ____
ROOT
ATOM      1  C   UNK A   0       1.434   8.197  20.033  0.00  0.00    +0.000 A 
ATOM      2  C   UNK A   0       1.471   6.947  20.675  0.00  0.00    +0.000 A 
ATOM      3  C   UNK A   0       2.230   5.871  20.187  0.00  0.00    +0.000 A 
ATOM      4  C   UNK A   0       2.985   6.016  19.025  0.00  0.00    +0.000 A 
ATOM      5  C   UNK A   0       2.917   7.219  18.326  0.00  0.00    +0.000 A 
ATOM      6  C   UNK A   0       2.156   8.284  18.829  0.00  0.00    +0.000 A 
ENDROOT
BRANCH   4   7
ATOM      7  C   UNK A   0       3.835   4.880  18.578  0.00  0.00    +0.000 C 
ATOM      8  O   UNK A   0       3.538   3.726  18.866  0.00  0.00    +0.000 OA
ATOM      9  N   GLU A   1       4.964   5.208  17.865  0.00  0.00    +0.000 N 
ATOM     10  H   GLU A   1       5.243   6.178  17.771  0.00  0.00    +0.000 HD
BRANCH   9  11
ATOM     11  CA  GLU A   1       5.910   4.199  17.388  0.00  0.00    +0.000 C 
BRANCH  11  12
ATOM     12  C   GLU A   1       7.297   4.855  17.405  0.00  0.00    +0.000 C 
ATOM     13  O   GLU A   1       7.483   6.045  17.183  0.00  0.00    +0.000 OA
BRANCH  12  14
ATOM     14  OXT GLU A   1       8.307   4.020  17.737  0.00  0.00    +0.000 OA
ATOM     15  HXT GLU A   1       8.038   3.203  18.211  0.00  0.00    +0.000 HD
ENDBRANCH  12  14
ENDBRANCH  11  12
BRANCH  11  16
ATOM     16  CB  GLU A   1       5.550   3.742  15.962  0.00  0.00    +0.000 C 
BRANCH  16  17
ATOM     17  CG  GLU A   1       5.549   4.851  14.921  0.00  0.00    +0.000 C 
BRANCH  17  18
ATOM     18  CD  GLU A   1       6.602   4.605  13.879  0.00  0.00    +0.000 C 
ATOM     19  OE1 GLU A   1       7.540   5.371  13.700  0.00  0.00    +0.000 OA
BRANCH  18  20
ATOM     20  OE2 GLU A   1       6.467   3.432  13.229  0.00  0.00    +0.000 OA
ATOM     21  HE2 GLU A   1       7.300   3.056  12.883  0.00  0.00    +0.000 HD
ENDBRANCH  18  20
ENDBRANCH  17  18
ENDBRANCH  16  17
ENDBRANCH  11  16
ENDBRANCH   9  11
ENDBRANCH   4   7
BRANCH   1  23
ATOM     22  C   UNK A   0       0.041   9.163  21.832  0.00  0.00    +0.000 C 
ATOM     23  N   UNK A   0       0.708   9.273  20.536  0.00  0.00    +0.000 N 
BRANCH  23  24
ATOM     24  C   UNK A   0       0.687  10.591  19.870  0.00  0.00    +0.000 C 
BRANCH  24  25
ATOM     25  C   UNK A   0      -0.623  10.837  19.120  0.00  0.00    +0.000 C 
ATOM     26  N   UNK A   0      -1.543  11.580  19.675  0.00  0.00    +0.000 NA
ATOM     27  C   UNK A   0      -2.756  11.729  18.954  0.00  0.00    +0.000 A 
ATOM     28  C   UNK A   0      -3.876  12.335  19.521  0.00  0.00    +0.000 A 
ATOM     29  N   UNK A   0      -3.777  12.967  20.770  0.00  0.00    +0.000 N 
ATOM     30  N   UNK A   0      -5.061  12.415  18.899  0.00  0.00    +0.000 NA
ATOM     31  C   UNK A   0      -5.144  11.864  17.688  0.00  0.00    +0.000 A 
ATOM     32  N   UNK A   0      -6.361  11.941  17.037  0.00  0.00    +0.000 N 
ATOM     33  N   UNK A   0      -4.134  11.280  17.035  0.00  0.00    +0.000 NA
ATOM     34  C   UNK A   0      -2.956  11.222  17.674  0.00  0.00    +0.000 A 
ATOM     35  N   UNK A   0      -1.884  10.677  16.966  0.00  0.00    +0.000 N 
ATOM     36  C   UNK A   0      -0.774  10.166  17.754  0.00  0.00    +0.000 C 
ATOM     37  H   UNK A   0      -3.208  12.418  21.404  0.00  0.00    +0.000 HD
ATOM     38  H   UNK A   0      -4.706  13.193  21.105  0.00  0.00    +0.000 HD
ATOM     39  H   UNK A   0      -6.892  12.721  17.409  0.00  0.00    +0.000 HD
ATOM     40  H   UNK A   0      -6.216  11.915  16.042  0.00  0.00    +0.000 HD
ATOM     41  H   UNK A   0      -2.212  10.143  16.169  0.00  0.00    +0.000 HD
ENDBRANCH  24  25
ENDBRANCH  23  24
ENDBRANCH   1  23
TORSDOF 11
ENDMDL
MODEL 4
REMARK VINA RESULT:      -8.1      1.423      2.539
REMARK  Name = 
REMARK  12 active torsions:
REMARK  status: ('A' for Active; 'I' for Inactive)
REMARK    1  A    between atoms: C_1  and  N_2
REMARK    2  A    between atoms: N_2  and  C_3
REMARK    3  A    between atoms: N_2  and  C_16
REMARK    4  A    between atoms: C_3  and  C_4
REMARK    5  A    between atoms: C_19  and  C_20
REMARK    6  A    between atoms: N_22  and  CA_23
REMARK    7  A    between atoms: CA_23  and  CB_24
REMARK    8  A    between atoms: CA_23  and  C_29
REMARK    9  A    between atoms: CB_24  and  CG_25
REMARK   10  A    between atoms: CG_25  and  CD_26
REMARK   11  A    between atoms: CD_26  and  OE2_28
REMARK   12  A    between atoms: C_29  and  OXT_31
REMARK                            x       y       z     vdW  Elec       q    Type
REMARK                         _______ _______ _______ _____ _____    ______ ____
ROOT
ATOM      1  C   UNK A   0       1.117   9.969  19.429  0.00  0.00    +0.000 A 
ATOM      2  C   UNK A   0       1.591   9.731  18.127  0.00  0.00    +0.000 A 
ATOM      3  C   UNK A   0       2.160   8.507  17.744  0.00  0.00    +0.000 A 
ATOM      4  C   UNK A   0       2.274   7.468  18.665  0.00  0.00    +0.000 A 
ATOM      5  C   UNK A   0       1.877   7.692  19.982  0.00  0.00    +0.000 A 
ATOM      6  C   UNK A   0       1.309   8.920  20.347  0.00  0.00    +0.000 A 
ENDROOT
BRANCH   4   7
ATOM      7  C   UNK A   0       2.813   6.160  18.206  0.00  0.00    +0.000 C 
ATOM      8  O   UNK A   0       2.066   5.204  18.031  0.00  0.00    +0.000 OA
ATOM      9  N   GLU A   1       4.175   6.090  18.029  0.00  0.00    +0.000 N 
ATOM     10  H   GLU A   1       4.766   6.861  18.320  0.00  0.00    +0.000 HD
BRANCH   9  11
ATOM     11  CA  GLU A   1       4.849   4.861  17.612  0.00  0.00    +0.000 C 
BRANCH  11  12
ATOM     12  C   GLU A   1       5.612   4.341  18.838  0.00  0.00    +0.000 C 
ATOM     13  O   GLU A   1       6.470   4.990  19.422  0.00  0.00    +0.000 OA
BRANCH  12  14
ATOM     14  OXT GLU A   1       5.227   3.116  19.260  0.00  0.00    +0.000 OA
ATOM     15  HXT GLU A   1       5.537   2.365  18.708  0.00  0.00    +0.000 HD
ENDBRANCH  12  14
ENDBRANCH  11  12
BRANCH  11  16
ATOM     16  CB  GLU A   1       5.821   5.136  16.450  0.00  0.00    +0.000 C 
BRANCH  16  17
ATOM     17  CG  GLU A   1       5.458   4.450  15.142  0.00  0.00    +0.000 C 
BRANCH  17  18
ATOM     18  CD  GLU A   1       6.619   4.468  14.190  0.00  0.00    +0.000 C 
ATOM     19  OE1 GLU A   1       7.562   5.238  14.320  0.00  0.00    +0.000 OA
BRANCH  18  20
ATOM     20  OE2 GLU A   1       6.568   3.509  13.244  0.00  0.00    +0.000 OA
ATOM     21  HE2 GLU A   1       6.978   3.752  12.391  0.00  0.00    +0.000 HD
ENDBRANCH  18  20
ENDBRANCH  17  18
ENDBRANCH  16  17
ENDBRANCH  11  16
ENDBRANCH   9  11
ENDBRANCH   4   7
BRANCH   1  23
ATOM     22  C   UNK A   0       0.542  11.599  21.197  0.00  0.00    +0.000 C 
ATOM     23  N   UNK A   0       0.522  11.173  19.799  0.00  0.00    +0.000 N 
BRANCH  23  24
ATOM     24  C   UNK A   0      -0.026  12.119  18.807  0.00  0.00    +0.000 C 
BRANCH  24  25
ATOM     25  C   UNK A   0      -1.550  12.030  18.704  0.00  0.00    +0.000 C 
ATOM     26  N   UNK A   0      -2.278  12.422  19.715  0.00  0.00    +0.000 NA
ATOM     27  C   UNK A   0      -3.682  12.267  19.581  0.00  0.00    +0.000 A 
ATOM     28  C   UNK A   0      -4.547  12.468  20.655  0.00  0.00    +0.000 A 
ATOM     29  N   UNK A   0      -4.061  12.997  21.861  0.00  0.00    +0.000 N 
ATOM     30  N   UNK A   0      -5.868  12.247  20.584  0.00  0.00    +0.000 NA
ATOM     31  C   UNK A   0      -6.342  11.798  19.423  0.00  0.00    +0.000 A 
ATOM     32  N   UNK A   0      -7.703  11.568  19.339  0.00  0.00    +0.000 N 
ATOM     33  N   UNK A   0      -5.615  11.592  18.319  0.00  0.00    +0.000 NA
ATOM     34  C   UNK A   0      -4.298  11.831  18.413  0.00  0.00    +0.000 A 
ATOM     35  N   UNK A   0      -3.550  11.684  17.244  0.00  0.00    +0.000 N 
ATOM     36  C   UNK A   0      -2.122  11.460  17.407  0.00  0.00    +0.000 C 
ATOM     37  H   UNK A   0      -3.163  12.588  22.093  0.00  0.00    +0.000 HD
ATOM     38  H   UNK A   0      -4.775  12.911  22.575  0.00  0.00    +0.000 HD
ATOM     39  H   UNK A   0      -8.182  12.123  20.039  0.00  0.00    +0.000 HD
ATOM     40  H   UNK A   0      -8.006  11.667  18.384  0.00  0.00    +0.000 HD
ATOM     41  H   UNK A   0      -4.061  11.145  16.553  0.00  0.00    +0.000 HD
ENDBRANCH  24  25
ENDBRANCH  23  24
ENDBRANCH   1  23
TORSDOF 11
ENDMDL
MODEL 5
REMARK VINA RESULT:      -8.1      1.185      1.468
REMARK  Name = 
REMARK  12 active torsions:
REMARK  status: ('A' for Active; 'I' for Inactive)
REMARK    1  A    between atoms: C_1  and  N_2
REMARK    2  A    between atoms: N_2  and  C_3
REMARK    3  A    between atoms: N_2  and  C_16
REMARK    4  A    between atoms: C_3  and  C_4
REMARK    5  A    between atoms: C_19  and  C_20
REMARK    6  A    between atoms: N_22  and  CA_23
REMARK    7  A    between atoms: CA_23  and  CB_24
REMARK    8  A    between atoms: CA_23  and  C_29
REMARK    9  A    between atoms: CB_24  and  CG_25
REMARK   10  A    between atoms: CG_25  and  CD_26
REMARK   11  A    between atoms: CD_26  and  OE2_28
REMARK   12  A    between atoms: C_29  and  OXT_31
REMARK                            x       y       z     vdW  Elec       q    Type
REMARK                         _______ _______ _______ _____ _____    ______ ____
ROOT
ATOM      1  C   UNK A   0       0.735   9.350  20.693  0.00  0.00    +0.000 A 
ATOM      2  C   UNK A   0       0.910   8.132  21.373  0.00  0.00    +0.000 A 
ATOM      3  C   UNK A   0       1.588   7.043  20.804  0.00  0.00    +0.000 A 
ATOM      4  C   UNK A   0       2.121   7.141  19.521  0.00  0.00    +0.000 A 
ATOM      5  C   UNK A   0       1.907   8.310  18.793  0.00  0.00    +0.000 A 
ATOM      6  C   UNK A   0       1.229   9.389  19.377  0.00  0.00    +0.000 A 
ENDROOT
BRANCH   4   7
ATOM      7  C   UNK A   0       2.898   5.994  18.978  0.00  0.00    +0.000 C 
ATOM      8  O   UNK A   0       2.508   4.844  19.139  0.00  0.00    +0.000 OA
ATOM      9  N   GLU A   1       4.071   6.305  18.330  0.00  0.00    +0.000 N 
ATOM     10  H   GLU A   1       4.423   7.255  18.344  0.00  0.00    +0.000 HD
BRANCH   9  11
ATOM     11  CA  GLU A   1       4.953   5.280  17.773  0.00  0.00    +0.000 C 
BRANCH  11  12
ATOM     12  C   GLU A   1       5.720   4.672  18.956  0.00  0.00    +0.000 C 
ATOM     13  O   GLU A   1       6.533   5.297  19.624  0.00  0.00    +0.000 OA
BRANCH  12  14
ATOM     14  OXT GLU A   1       5.390   3.393  19.239  0.00  0.00    +0.000 OA
ATOM     15  HXT GLU A   1       4.832   3.271  20.039  0.00  0.00    +0.000 HD
ENDBRANCH  12  14
ENDBRANCH  11  12
BRANCH  11  16
ATOM     16  CB  GLU A   1       5.933   5.894  16.756  0.00  0.00    +0.000 C 
BRANCH  16  17
ATOM     17  CG  GLU A   1       5.562   5.664  15.300  0.00  0.00    +0.000 C 
BRANCH  17  18
ATOM     18  CD  GLU A   1       6.590   4.809  14.616  0.00  0.00    +0.000 C 
ATOM     19  OE1 GLU A   1       6.327   3.704  14.162  0.00  0.00    +0.000 OA
BRANCH  18  20
ATOM     20  OE2 GLU A   1       7.791   5.404  14.473  0.00  0.00    +0.000 OA
ATOM     21  HE2 GLU A   1       8.487   4.837  14.089  0.00  0.00    +0.000 HD
ENDBRANCH  18  20
ENDBRANCH  17  18
ENDBRANCH  16  17
ENDBRANCH  11  16
ENDBRANCH   9  11
ENDBRANCH   4   7
BRANCH   1  23
ATOM     22  C   UNK A   0      -0.306  10.395  22.677  0.00  0.00    +0.000 C 
ATOM     23  N   UNK A   0       0.091  10.442  21.272  0.00  0.00    +0.000 N 
BRANCH  23  24
ATOM     24  C   UNK A   0      -0.098  11.717  20.552  0.00  0.00    +0.000 C 
BRANCH  24  25
ATOM     25  C   UNK A   0      -1.524  11.873  20.020  0.00  0.00    +0.000 C 
ATOM     26  N   UNK A   0      -1.842  11.316  18.882  0.00  0.00    +0.000 NA
ATOM     27  C   UNK A   0      -3.163  11.541  18.415  0.00  0.00    +0.000 A 
ATOM     28  C   UNK A   0      -3.561  11.162  17.135  0.00  0.00    +0.000 A 
ATOM     29  N   UNK A   0      -2.706  10.393  16.330  0.00  0.00    +0.000 N 
ATOM     30  N   UNK A   0      -4.775  11.436  16.633  0.00  0.00    +0.000 NA
ATOM     31  C   UNK A   0      -5.610  12.118  17.416  0.00  0.00    +0.000 A 
ATOM     32  N   UNK A   0      -6.863  12.405  16.908  0.00  0.00    +0.000 N 
ATOM     33  N   UNK A   0      -5.349  12.511  18.667  0.00  0.00    +0.000 NA
ATOM     34  C   UNK A   0      -4.132  12.216  19.150  0.00  0.00    +0.000 A 
ATOM     35  N   UNK A   0      -3.884  12.563  20.478  0.00  0.00    +0.000 N 
ATOM     36  C   UNK A   0      -2.489  12.705  20.865  0.00  0.00    +0.000 C 
ATOM     37  H   UNK A   0      -1.750  10.718  16.413  0.00  0.00    +0.000 HD
ATOM     38  H   UNK A   0      -3.074  10.361  15.386  0.00  0.00    +0.000 HD
ATOM     39  H   UNK A   0      -7.091  11.739  16.178  0.00  0.00    +0.000 HD
ATOM     40  H   UNK A   0      -7.521  12.503  17.664  0.00  0.00    +0.000 HD
ATOM     41  H   UNK A   0      -4.560  13.243  20.807  0.00  0.00    +0.000 HD
ENDBRANCH  24  25
ENDBRANCH  23  24
ENDBRANCH   1  23
TORSDOF 11
ENDMDL
MODEL 6
REMARK VINA RESULT:      -7.9      1.297      2.215
REMARK  Name = 
REMARK  12 active torsions:
REMARK  status: ('A' for Active; 'I' for Inactive)
REMARK    1  A    between atoms: C_1  and  N_2
REMARK    2  A    between atoms: N_2  and  C_3
REMARK    3  A    between atoms: N_2  and  C_16
REMARK    4  A    between atoms: C_3  and  C_4
REMARK    5  A    between atoms: C_19  and  C_20
REMARK    6  A    between atoms: N_22  and  CA_23
REMARK    7  A    between atoms: CA_23  and  CB_24
REMARK    8  A    between atoms: CA_23  and  C_29
REMARK    9  A    between atoms: CB_24  and  CG_25
REMARK   10  A    between atoms: CG_25  and  CD_26
REMARK   11  A    between atoms: CD_26  and  OE2_28
REMARK   12  A    between atoms: C_29  and  OXT_31
REMARK                            x       y       z     vdW  Elec       q    Type
REMARK                         _______ _______ _______ _____ _____    ______ ____
ROOT
ATOM      1  C   UNK A   0       1.192   9.943  19.382  0.00  0.00    +0.000 A 
ATOM      2  C   UNK A   0       1.291   8.891  20.309  0.00  0.00    +0.000 A 
ATOM      3  C   UNK A   0       1.841   7.644  19.977  0.00  0.00    +0.000 A 
ATOM      4  C   UNK A   0       2.315   7.406  18.689  0.00  0.00    +0.000 A 
ATOM      5  C   UNK A   0       2.170   8.404  17.726  0.00  0.00    +0.000 A 
ATOM      6  C   UNK A   0       1.621   9.645  18.075  0.00  0.00    +0.000 A 
ENDROOT
BRANCH   4   7
ATOM      7  C   UNK A   0       2.959   6.099  18.392  0.00  0.00    +0.000 C 
ATOM      8  O   UNK A   0       2.320   5.056  18.472  0.00  0.00    +0.000 OA
ATOM      9  N   GLU A   1       4.293   6.137  18.061  0.00  0.00    +0.000 N 
ATOM     10  H   GLU A   1       4.813   7.004  18.144  0.00  0.00    +0.000 HD
BRANCH   9  11
ATOM     11  CA  GLU A   1       5.064   4.928  17.775  0.00  0.00    +0.000 C 
BRANCH  11  12
ATOM     12  C   GLU A   1       6.516   5.230  18.169  0.00  0.00    +0.000 C 
ATOM     13  O   GLU A   1       6.893   6.325  18.565  0.00  0.00    +0.000 OA
BRANCH  12  14
ATOM     14  OXT GLU A   1       7.350   4.168  18.094  0.00  0.00    +0.000 OA
ATOM     15  HXT GLU A   1       7.673   3.952  17.192  0.00  0.00    +0.000 HD
ENDBRANCH  12  14
ENDBRANCH  11  12
BRANCH  11  16
ATOM     16  CB  GLU A   1       4.978   4.564  16.281  0.00  0.00    +0.000 C 
BRANCH  16  17
ATOM     17  CG  GLU A   1       5.693   5.531  15.351  0.00  0.00    +0.000 C 
BRANCH  17  18
ATOM     18  CD  GLU A   1       6.645   4.799  14.449  0.00  0.00    +0.000 C 
ATOM     19  OE1 GLU A   1       6.395   3.690  13.994  0.00  0.00    +0.000 OA
BRANCH  18  20
ATOM     20  OE2 GLU A   1       7.744   5.507  14.120  0.00  0.00    +0.000 OA
ATOM     21  HE2 GLU A   1       8.395   5.024  13.575  0.00  0.00    +0.000 HD
ENDBRANCH  18  20
ENDBRANCH  17  18
ENDBRANCH  16  17
ENDBRANCH  11  16
ENDBRANCH   9  11
ENDBRANCH   4   7
BRANCH   1  23
ATOM     22  C   UNK A   0       0.799  11.684  21.093  0.00  0.00    +0.000 C 
ATOM     23  N   UNK A   0       0.678  11.192  19.722  0.00  0.00    +0.000 N 
BRANCH  23  24
ATOM     24  C   UNK A   0       0.119  12.116  18.714  0.00  0.00    +0.000 C 
BRANCH  24  25
ATOM     25  C   UNK A   0      -1.405  12.026  18.630  0.00  0.00    +0.000 C 
ATOM     26  N   UNK A   0      -2.121  12.407  19.654  0.00  0.00    +0.000 NA
ATOM     27  C   UNK A   0      -3.526  12.250  19.537  0.00  0.00    +0.000 A 
ATOM     28  C   UNK A   0      -4.378  12.441  20.624  0.00  0.00    +0.000 A 
ATOM     29  N   UNK A   0      -3.877  12.959  21.828  0.00  0.00    +0.000 N 
ATOM     30  N   UNK A   0      -5.700  12.218  20.568  0.00  0.00    +0.000 NA
ATOM     31  C   UNK A   0      -6.188  11.779  19.408  0.00  0.00    +0.000 A 
ATOM     32  N   UNK A   0      -7.549  11.547  19.340  0.00  0.00    +0.000 N 
ATOM     33  N   UNK A   0      -5.475  11.585  18.294  0.00  0.00    +0.000 NA
ATOM     34  C   UNK A   0      -4.156  11.824  18.372  0.00  0.00    +0.000 A 
ATOM     35  N   UNK A   0      -3.424  11.691  17.193  0.00  0.00    +0.000 N 
ATOM     36  C   UNK A   0      -1.994  11.467  17.335  0.00  0.00    +0.000 C 
ATOM     37  H   UNK A   0      -2.975  12.550  22.045  0.00  0.00    +0.000 HD
ATOM     38  H   UNK A   0      -4.581  12.865  22.551  0.00  0.00    +0.000 HD
ATOM     39  H   UNK A   0      -8.020  12.096  20.051  0.00  0.00    +0.000 HD
ATOM     40  H   UNK A   0      -7.864  11.655  18.390  0.00  0.00    +0.000 HD
ATOM     41  H   UNK A   0      -3.942  11.157  16.504  0.00  0.00    +0.000 HD
ENDBRANCH  24  25
ENDBRANCH  23  24
ENDBRANCH   1  23
TORSDOF 11
ENDMDL
MODEL 7
REMARK VINA RESULT:      -7.9      1.817      2.301
REMARK  Name = 
REMARK  12 active torsions:
REMARK  status: ('A' for Active; 'I' for Inactive)
REMARK    1  A    between atoms: C_1  and  N_2
REMARK    2  A    between atoms: N_2  and  C_3
REMARK    3  A    between atoms: N_2  and  C_16
REMARK    4  A    between atoms: C_3  and  C_4
REMARK    5  A    between atoms: C_19  and  C_20
REMARK    6  A    between atoms: N_22  and  CA_23
REMARK    7  A    between atoms: CA_23  and  CB_24
REMARK    8  A    between atoms: CA_23  and  C_29
REMARK    9  A    between atoms: CB_24  and  CG_25
REMARK   10  A    between atoms: CG_25  and  CD_26
REMARK   11  A    between atoms: CD_26  and  OE2_28
REMARK   12  A    between atoms: C_29  and  OXT_31
REMARK                            x       y       z     vdW  Elec       q    Type
REMARK                         _______ _______ _______ _____ _____    ______ ____
ROOT
ATOM      1  C   UNK A   0       1.213   9.123  20.080  0.00  0.00    +0.000 A 
ATOM      2  C   UNK A   0       1.432   7.905  20.746  0.00  0.00    +0.000 A 
ATOM      3  C   UNK A   0       2.002   6.791  20.112  0.00  0.00    +0.000 A 
ATOM      4  C   UNK A   0       2.377   6.862  18.772  0.00  0.00    +0.000 A 
ATOM      5  C   UNK A   0       2.111   8.032  18.062  0.00  0.00    +0.000 A 
ATOM      6  C   UNK A   0       1.542   9.136  18.712  0.00  0.00    +0.000 A 
ENDROOT
BRANCH   4   7
ATOM      7  C   UNK A   0       3.047   5.688  18.152  0.00  0.00    +0.000 C 
ATOM      8  O   UNK A   0       2.396   4.848  17.542  0.00  0.00    +0.000 OA
ATOM      9  N   GLU A   1       4.407   5.596  18.333  0.00  0.00    +0.000 N 
ATOM     10  H   GLU A   1       4.881   6.236  18.961  0.00  0.00    +0.000 HD
BRANCH   9  11
ATOM     11  CA  GLU A   1       5.194   4.480  17.808  0.00  0.00    +0.000 C 
BRANCH  11  12
ATOM     12  C   GLU A   1       4.813   3.246  18.637  0.00  0.00    +0.000 C 
ATOM     13  O   GLU A   1       5.077   3.126  19.827  0.00  0.00    +0.000 OA
BRANCH  12  14
ATOM     14  OXT GLU A   1       4.111   2.311  17.960  0.00  0.00    +0.000 OA
ATOM     15  HXT GLU A   1       3.136   2.421  17.981  0.00  0.00    +0.000 HD
ENDBRANCH  12  14
ENDBRANCH  11  12
BRANCH  11  16
ATOM     16  CB  GLU A   1       6.702   4.767  17.933  0.00  0.00    +0.000 C 
BRANCH  16  17
ATOM     17  CG  GLU A   1       7.222   5.845  16.995  0.00  0.00    +0.000 C 
BRANCH  17  18
ATOM     18  CD  GLU A   1       7.664   7.055  17.768  0.00  0.00    +0.000 C 
ATOM     19  OE1 GLU A   1       8.288   6.972  18.817  0.00  0.00    +0.000 OA
BRANCH  18  20
ATOM     20  OE2 GLU A   1       7.390   8.225  17.158  0.00  0.00    +0.000 OA
ATOM     21  HE2 GLU A   1       8.154   8.826  17.060  0.00  0.00    +0.000 HD
ENDBRANCH  18  20
ENDBRANCH  17  18
ENDBRANCH  16  17
ENDBRANCH  11  16
ENDBRANCH   9  11
ENDBRANCH   4   7
BRANCH   1  23
ATOM     22  C   UNK A   0       0.462  10.218  22.165  0.00  0.00    +0.000 C 
ATOM     23  N   UNK A   0       0.677  10.238  20.720  0.00  0.00    +0.000 N 
BRANCH  23  24
ATOM     24  C   UNK A   0       0.431  11.511  20.012  0.00  0.00    +0.000 C 
BRANCH  24  25
ATOM     25  C   UNK A   0      -1.032  11.666  19.594  0.00  0.00    +0.000 C 
ATOM     26  N   UNK A   0      -1.416  11.192  18.439  0.00  0.00    +0.000 NA
ATOM     27  C   UNK A   0      -2.772  11.413  18.085  0.00  0.00    +0.000 A 
ATOM     28  C   UNK A   0      -3.251  11.127  16.808  0.00  0.00    +0.000 A 
ATOM     29  N   UNK A   0      -2.437  10.451  15.886  0.00  0.00    +0.000 N 
ATOM     30  N   UNK A   0      -4.504  11.403  16.415  0.00  0.00    +0.000 NA
ATOM     31  C   UNK A   0      -5.298  11.994  17.307  0.00  0.00    +0.000 A 
ATOM     32  N   UNK A   0      -6.591  12.282  16.913  0.00  0.00    +0.000 N 
ATOM     33  N   UNK A   0      -4.958  12.293  18.565  0.00  0.00    +0.000 NA
ATOM     34  C   UNK A   0      -3.703  11.998  18.937  0.00  0.00    +0.000 A 
ATOM     35  N   UNK A   0      -3.370  12.244  20.269  0.00  0.00    +0.000 N 
ATOM     36  C   UNK A   0      -1.955  12.397  20.570  0.00  0.00    +0.000 C 
ATOM     37  H   UNK A   0      -1.486  10.798  15.928  0.00  0.00    +0.000 HD
ATOM     38  H   UNK A   0      -2.870  10.484  14.970  0.00  0.00    +0.000 HD
ATOM     39  H   UNK A   0      -6.853  11.671  16.148  0.00  0.00    +0.000 HD
ATOM     40  H   UNK A   0      -7.195  12.300  17.717  0.00  0.00    +0.000 HD
ATOM     41  H   UNK A   0      -4.038  12.874  20.698  0.00  0.00    +0.000 HD
ENDBRANCH  24  25
ENDBRANCH  23  24
ENDBRANCH   1  23
TORSDOF 11
ENDMDL
MODEL 8
REMARK VINA RESULT:      -7.9      1.745      2.537
REMARK  Name = 
REMARK  12 active torsions:
REMARK  status: ('A' for Active; 'I' for Inactive)
REMARK    1  A    between atoms: C_1  and  N_2
REMARK    2  A    between atoms: N_2  and  C_3
REMARK    3  A    between atoms: N_2  and  C_16
REMARK    4  A    between atoms: C_3  and  C_4
REMARK    5  A    between atoms: C_19  and  C_20
REMARK    6  A    between atoms: N_22  and  CA_23
REMARK    7  A    between atoms: CA_23  and  CB_24
REMARK    8  A    between atoms: CA_23  and  C_29
REMARK    9  A    between atoms: CB_24  and  CG_25
REMARK   10  A    between atoms: CG_25  and  CD_26
REMARK   11  A    between atoms: CD_26  and  OE2_28
REMARK   12  A    between atoms: C_29  and  OXT_31
REMARK                            x       y       z     vdW  Elec       q    Type
REMARK                         _______ _______ _______ _____ _____    ______ ____
ROOT
ATOM      1  C   UNK A   0       1.430   9.876  19.258  0.00  0.00    +0.000 A 
ATOM      2  C   UNK A   0       1.829   9.549  17.950  0.00  0.00    +0.000 A 
ATOM      3  C   UNK A   0       2.205   8.249  17.580  0.00  0.00    +0.000 A 
ATOM      4  C   UNK A   0       2.194   7.221  18.520  0.00  0.00    +0.000 A 
ATOM      5  C   UNK A   0       1.870   7.524  19.841  0.00  0.00    +0.000 A 
ATOM      6  C   UNK A   0       1.494   8.827  20.193  0.00  0.00    +0.000 A 
ENDROOT
BRANCH   4   7
ATOM      7  C   UNK A   0       2.526   5.841  18.076  0.00  0.00    +0.000 C 
ATOM      8  O   UNK A   0       1.643   5.006  17.918  0.00  0.00    +0.000 OA
ATOM      9  N   GLU A   1       3.861   5.564  17.892  0.00  0.00    +0.000 N 
ATOM     10  H   GLU A   1       4.564   6.240  18.169  0.00  0.00    +0.000 HD
BRANCH   9  11
ATOM     11  CA  GLU A   1       4.338   4.242  17.488  0.00  0.00    +0.000 C 
BRANCH  11  12
ATOM     12  C   GLU A   1       4.457   3.408  18.771  0.00  0.00    +0.000 C 
ATOM     13  O   GLU A   1       5.421   3.465  19.525  0.00  0.00    +0.000 OA
BRANCH  12  14
ATOM     14  OXT GLU A   1       3.383   2.632  19.037  0.00  0.00    +0.000 OA
ATOM     15  HXT GLU A   1       2.896   2.306  18.249  0.00  0.00    +0.000 HD
ENDBRANCH  12  14
ENDBRANCH  11  12
BRANCH  11  16
ATOM     16  CB  GLU A   1       5.705   4.344  16.785  0.00  0.00    +0.000 C 
BRANCH  16  17
ATOM     17  CG  GLU A   1       6.417   5.674  16.975  0.00  0.00    +0.000 C 
BRANCH  17  18
ATOM     18  CD  GLU A   1       7.534   5.543  17.971  0.00  0.00    +0.000 C 
ATOM     19  OE1 GLU A   1       7.968   6.499  18.600  0.00  0.00    +0.000 OA
BRANCH  18  20
ATOM     20  OE2 GLU A   1       7.946   4.275  18.169  0.00  0.00    +0.000 OA
ATOM     21  HE2 GLU A   1       8.796   4.049  17.743  0.00  0.00    +0.000 HD
ENDBRANCH  18  20
ENDBRANCH  17  18
ENDBRANCH  16  17
ENDBRANCH  11  16
ENDBRANCH   9  11
ENDBRANCH   4   7
BRANCH   1  23
ATOM     22  C   UNK A   0       1.490  12.313  18.848  0.00  0.00    +0.000 C 
ATOM     23  N   UNK A   0       1.025  11.160  19.616  0.00  0.00    +0.000 N 
BRANCH  23  24
ATOM     24  C   UNK A   0       0.025  11.404  20.674  0.00  0.00    +0.000 C 
BRANCH  24  25
ATOM     25  C   UNK A   0      -1.377  11.626  20.105  0.00  0.00    +0.000 C 
ATOM     26  N   UNK A   0      -1.716  11.021  18.998  0.00  0.00    +0.000 NA
ATOM     27  C   UNK A   0      -3.010  11.307  18.491  0.00  0.00    +0.000 A 
ATOM     28  C   UNK A   0      -3.414  10.877  17.229  0.00  0.00    +0.000 A 
ATOM     29  N   UNK A   0      -2.603  10.000  16.491  0.00  0.00    +0.000 N 
ATOM     30  N   UNK A   0      -4.597  11.202  16.687  0.00  0.00    +0.000 NA
ATOM     31  C   UNK A   0      -5.394  11.990  17.408  0.00  0.00    +0.000 A 
ATOM     32  N   UNK A   0      -6.616  12.331  16.859  0.00  0.00    +0.000 N 
ATOM     33  N   UNK A   0      -5.125  12.442  18.638  0.00  0.00    +0.000 NA
ATOM     34  C   UNK A   0      -3.940  12.094  19.163  0.00  0.00    +0.000 A 
ATOM     35  N   UNK A   0      -3.689  12.506  20.471  0.00  0.00    +0.000 N 
ATOM     36  C   UNK A   0      -2.294  12.574  20.877  0.00  0.00    +0.000 C 
ATOM     37  H   UNK A   0      -1.628  10.263  16.573  0.00  0.00    +0.000 HD
ATOM     38  H   UNK A   0      -2.958   9.934  15.544  0.00  0.00    +0.000 HD
ATOM     39  H   UNK A   0      -6.879  11.638  16.167  0.00  0.00    +0.000 HD
ATOM     40  H   UNK A   0      -7.276  12.523  17.594  0.00  0.00    +0.000 HD
ATOM     41  H   UNK A   0      -4.320  13.251  20.743  0.00  0.00    +0.000 HD
ENDBRANCH  24  25
ENDBRANCH  23  24
ENDBRANCH   1  23
TORSDOF 11
ENDMDL
MODEL 9
REMARK VINA RESULT:      -7.8      2.500      4.060
REMARK  Name = 
REMARK  12 active torsions:
REMARK  status: ('A' for Active; 'I' for Inactive)
REMARK    1  A    between atoms: C_1  and  N_2
REMARK    2  A    between atoms: N_2  and  C_3
REMARK    3  A    between atoms: N_2  and  C_16
REMARK    4  A    between atoms: C_3  and  C_4
REMARK    5  A    between atoms: C_19  and  C_20
REMARK    6  A    between atoms: N_22  and  CA_23
REMARK    7  A    between atoms: CA_23  and  CB_24
REMARK    8  A    between atoms: CA_23  and  C_29
REMARK    9  A    between atoms: CB_24  and  CG_25
REMARK   10  A    between atoms: CG_25  and  CD_26
REMARK   11  A    between atoms: CD_26  and  OE2_28
REMARK   12  A    between atoms: C_29  and  OXT_31
REMARK                            x       y       z     vdW  Elec       q    Type
REMARK                         _______ _______ _______ _____ _____    ______ ____
ROOT
ATOM      1  C   UNK A   0       0.851  10.845  19.994  0.00  0.00    +0.000 A 
ATOM      2  C   UNK A   0       0.792  10.036  21.142  0.00  0.00    +0.000 A 
ATOM      3  C   UNK A   0       1.182   8.688  21.135  0.00  0.00    +0.000 A 
ATOM      4  C   UNK A   0       1.649   8.099  19.961  0.00  0.00    +0.000 A 
ATOM      5  C   UNK A   0       1.655   8.853  18.789  0.00  0.00    +0.000 A 
ATOM      6  C   UNK A   0       1.265  10.199  18.815  0.00  0.00    +0.000 A 
ENDROOT
BRANCH   4   7
ATOM      7  C   UNK A   0       2.123   6.690  20.006  0.00  0.00    +0.000 C 
ATOM      8  O   UNK A   0       1.751   5.934  20.896  0.00  0.00    +0.000 OA
ATOM      9  N   GLU A   1       3.010   6.314  19.025  0.00  0.00    +0.000 N 
ATOM     10  H   GLU A   1       3.397   7.008  18.395  0.00  0.00    +0.000 HD
BRANCH   9  11
ATOM     11  CA  GLU A   1       3.585   4.970  18.962  0.00  0.00    +0.000 C 
BRANCH  11  12
ATOM     12  C   GLU A   1       5.091   5.148  18.726  0.00  0.00    +0.000 C 
ATOM     13  O   GLU A   1       5.948   4.543  19.358  0.00  0.00    +0.000 OA
BRANCH  12  14
ATOM     14  OXT GLU A   1       5.405   5.997  17.722  0.00  0.00    +0.000 OA
ATOM     15  HXT GLU A   1       4.665   6.557  17.400  0.00  0.00    +0.000 HD
ENDBRANCH  12  14
ENDBRANCH  11  12
BRANCH  11  16
ATOM     16  CB  GLU A   1       2.955   4.158  17.815  0.00  0.00    +0.000 C 
BRANCH  16  17
ATOM     17  CG  GLU A   1       1.469   3.876  17.980  0.00  0.00    +0.000 C 
BRANCH  17  18
ATOM     18  CD  GLU A   1       1.231   2.912  19.106  0.00  0.00    +0.000 C 
ATOM     19  OE1 GLU A   1       1.743   1.801  19.138  0.00  0.00    +0.000 OA
BRANCH  18  20
ATOM     20  OE2 GLU A   1       0.482   3.414  20.108  0.00  0.00    +0.000 OA
ATOM     21  HE2 GLU A   1       0.593   4.373  20.263  0.00  0.00    +0.000 HD
ENDBRANCH  18  20
ENDBRANCH  17  18
ENDBRANCH  16  17
ENDBRANCH  11  16
ENDBRANCH   9  11
ENDBRANCH   4   7
BRANCH   1  23
ATOM     22  C   UNK A   0       0.955  13.055  21.098  0.00  0.00    +0.000 C 
ATOM     23  N   UNK A   0       0.496  12.192  20.011  0.00  0.00    +0.000 N 
BRANCH  23  24
ATOM     24  C   UNK A   0      -0.228  12.830  18.894  0.00  0.00    +0.000 C 
BRANCH  24  25
ATOM     25  C   UNK A   0      -1.715  12.474  18.891  0.00  0.00    +0.000 C 
ATOM     26  N   UNK A   0      -2.450  12.807  19.918  0.00  0.00    +0.000 NA
ATOM     27  C   UNK A   0      -3.810  12.402  19.881  0.00  0.00    +0.000 A 
ATOM     28  C   UNK A   0      -4.643  12.529  20.991  0.00  0.00    +0.000 A 
ATOM     29  N   UNK A   0      -4.198  13.220  22.129  0.00  0.00    +0.000 N 
ATOM     30  N   UNK A   0      -5.906  12.080  21.015  0.00  0.00    +0.000 NA
ATOM     31  C   UNK A   0      -6.351  11.473  19.916  0.00  0.00    +0.000 A 
ATOM     32  N   UNK A   0      -7.652  11.006  19.930  0.00  0.00    +0.000 N 
ATOM     33  N   UNK A   0      -5.654  11.316  18.785  0.00  0.00    +0.000 NA
ATOM     34  C   UNK A   0      -4.396  11.783  18.782  0.00  0.00    +0.000 A 
ATOM     35  N   UNK A   0      -3.694  11.684  17.581  0.00  0.00    +0.000 N 
ATOM     36  C   UNK A   0      -2.242  11.721  17.670  0.00  0.00    +0.000 C 
ATOM     37  H   UNK A   0      -3.232  12.990  22.331  0.00  0.00    +0.000 HD
ATOM     38  H   UNK A   0      -4.849  13.064  22.890  0.00  0.00    +0.000 HD
ATOM     39  H   UNK A   0      -8.186  11.520  20.622  0.00  0.00    +0.000 HD
ATOM     40  H   UNK A   0      -8.015  10.983  18.992  0.00  0.00    +0.000 HD
ATOM     41  H   UNK A   0      -4.135  11.016  16.958  0.00  0.00    +0.000 HD
ENDBRANCH  24  25
ENDBRANCH  23  24
ENDBRANCH   1  23
TORSDOF 11
ENDMDL
