MODEL 1
REMARK VINA RESULT:      -7.6      0.000      0.000
REMARK  Name = 
REMARK  4 active torsions:
REMARK  status: ('A' for Active; 'I' for Inactive)
REMARK    1  A    between atoms: C_1  and  C_2
REMARK    2  A    between atoms: C_4  and  C_5
REMARK    3  A    between atoms: C_8  and  C_9
REMARK    4  A    between atoms: C_13  and  O_14
REMARK                            x       y       z     vdW  Elec       q    Type
REMARK                         _______ _______ _______ _____ _____    ______ ____
ROOT
ATOM      1  C   UNL     1      -0.634  13.490  20.766  0.00  0.00    +0.000 C 
ATOM      2  C   UNL     1      -0.136  12.078  20.659  0.00  0.00    +0.000 A 
ATOM      3  C   UNL     1      -0.403  11.136  21.662  0.00  0.00    +0.000 A 
ATOM      4  C   UNL     1       0.068   9.812  21.564  0.00  0.00    +0.000 A 
ATOM      5  C   UNL     1      -0.234   8.831  22.662  0.00  0.00    +0.000 C 
ATOM      6  C   UNL     1       0.817   9.436  20.439  0.00  0.00    +0.000 A 
ATOM      7  O   UNL     1       1.276   8.138  20.364  0.00  0.00    +0.000 OA
ATOM      8  C   UNL     1       2.024   7.773  19.260  0.00  0.00    +0.000 A 
ATOM      9  C   UNL     1       2.337   8.581  18.237  0.00  0.00    +0.000 A 
ATOM     10  C   UNL     1       1.866   9.971  18.264  0.00  0.00    +0.000 A 
ATOM     11  O   UNL     1       2.132  10.740  17.350  0.00  0.00    +0.000 OA
ATOM     12  C   UNL     1       1.079  10.375  19.439  0.00  0.00    +0.000 A 
ATOM     13  C   UNL     1       0.609  11.688  19.543  0.00  0.00    +0.000 A 
ENDROOT
BRANCH   8  14
ATOM     14  C   UNL     1       2.513   6.390  19.260  0.00  0.00    +0.000 A 
ATOM     15  C   UNL     1       3.330   5.939  18.215  0.00  0.00    +0.000 A 
ATOM     16  C   UNL     1       3.725   4.600  18.164  0.00  0.00    +0.000 A 
ATOM     17 BR   UNL     1       4.807   4.023  16.719  0.00  0.00    +0.000 Br
ATOM     18  C   UNL     1       3.316   3.701  19.154  0.00  0.00    +0.000 A 
ATOM     19  C   UNL     1       2.508   4.153  20.201  0.00  0.00    +0.000 A 
ATOM     20 BR   UNL     1       1.908   2.978  21.565  0.00  0.00    +0.000 Br
ATOM     21  C   UNL     1       2.108   5.492  20.256  0.00  0.00    +0.000 A 
BRANCH  18  22
ATOM     22  O   UNL     1       3.685   2.383  19.104  0.00  0.00    +0.000 OA
ATOM     23  H   UNL     1       2.959   1.850  19.475  0.00  0.00    +0.000 HD
ENDBRANCH  18  22
ENDBRANCH   8  14
TORSDOF 2
ENDMDL
MODEL 2
REMARK VINA RESULT:      -7.5      0.183      2.023
REMARK  Name = 
REMARK  4 active torsions:
REMARK  status: ('A' for Active; 'I' for Inactive)
REMARK    1  A    between atoms: C_1  and  C_2
REMARK    2  A    between atoms: C_4  and  C_5
REMARK    3  A    between atoms: C_8  and  C_9
REMARK    4  A    between atoms: C_13  and  O_14
REMARK                            x       y       z     vdW  Elec       q    Type
REMARK                         _______ _______ _______ _____ _____    ______ ____
ROOT
ATOM      1  C   UNL     1      -0.594  13.495  20.757  0.00  0.00    +0.000 C 
ATOM      2  C   UNL     1      -0.109  12.081  20.618  0.00  0.00    +0.000 A 
ATOM      3  C   UNL     1      -0.415  11.109  21.582  0.00  0.00    +0.000 A 
ATOM      4  C   UNL     1       0.044   9.784  21.455  0.00  0.00    +0.000 A 
ATOM      5  C   UNL     1      -0.302   8.772  22.510  0.00  0.00    +0.000 C 
ATOM      6  C   UNL     1       0.820   9.436  20.340  0.00  0.00    +0.000 A 
ATOM      7  O   UNL     1       1.267   8.135  20.235  0.00  0.00    +0.000 OA
ATOM      8  C   UNL     1       2.043   7.797  19.142  0.00  0.00    +0.000 A 
ATOM      9  C   UNL     1       2.394   8.633  18.156  0.00  0.00    +0.000 A 
ATOM     10  C   UNL     1       1.939  10.027  18.215  0.00  0.00    +0.000 A 
ATOM     11  O   UNL     1       2.240  10.823  17.334  0.00  0.00    +0.000 OA
ATOM     12  C   UNL     1       1.122  10.403  19.379  0.00  0.00    +0.000 A 
ATOM     13  C   UNL     1       0.664  11.718  19.513  0.00  0.00    +0.000 A 
ENDROOT
BRANCH   8  14
ATOM     14  C   UNL     1       2.516   6.409  19.111  0.00  0.00    +0.000 A 
ATOM     15  C   UNL     1       2.125   5.517  20.119  0.00  0.00    +0.000 A 
ATOM     16  C   UNL     1       2.642   4.220  20.144  0.00  0.00    +0.000 A 
ATOM     17 BR   UNL     1       2.110   3.053  21.539  0.00  0.00    +0.000 Br
ATOM     18  C   UNL     1       3.548   3.798  19.166  0.00  0.00    +0.000 A 
ATOM     19  C   UNL     1       3.931   4.684  18.156  0.00  0.00    +0.000 A 
ATOM     20 BR   UNL     1       5.168   4.175  16.810  0.00  0.00    +0.000 Br
ATOM     21  C   UNL     1       3.418   5.985  18.127  0.00  0.00    +0.000 A 
BRANCH  18  22
ATOM     22  O   UNL     1       4.072   2.533  19.190  0.00  0.00    +0.000 OA
ATOM     23  H   UNL     1       3.338   1.902  19.304  0.00  0.00    +0.000 HD
ENDBRANCH  18  22
ENDBRANCH   8  14
TORSDOF 2
ENDMDL
MODEL 3
REMARK VINA RESULT:      -7.5      1.656      3.369
REMARK  Name = 
REMARK  4 active torsions:
REMARK  status: ('A' for Active; 'I' for Inactive)
REMARK    1  A    between atoms: C_1  and  C_2
REMARK    2  A    between atoms: C_4  and  C_5
REMARK    3  A    between atoms: C_8  and  C_9
REMARK    4  A    between atoms: C_13  and  O_14
REMARK                            x       y       z     vdW  Elec       q    Type
REMARK                         _______ _______ _______ _____ _____    ______ ____
ROOT
ATOM      1  C   UNL     1      -2.674  13.482  21.364  0.00  0.00    +0.000 C 
ATOM      2  C   UNL     1      -1.859  12.301  20.924  0.00  0.00    +0.000 A 
ATOM      3  C   UNL     1      -1.808  11.915  19.576  0.00  0.00    +0.000 A 
ATOM      4  C   UNL     1      -1.047  10.805  19.164  0.00  0.00    +0.000 A 
ATOM      5  C   UNL     1      -1.019  10.419  17.712  0.00  0.00    +0.000 C 
ATOM      6  C   UNL     1      -0.328  10.076  20.123  0.00  0.00    +0.000 A 
ATOM      7  O   UNL     1       0.405   8.987  19.701  0.00  0.00    +0.000 OA
ATOM      8  C   UNL     1       1.103   8.262  20.651  0.00  0.00    +0.000 A 
ATOM      9  C   UNL     1       1.136   8.537  21.961  0.00  0.00    +0.000 A 
ATOM     10  C   UNL     1       0.378   9.691  22.462  0.00  0.00    +0.000 A 
ATOM     11  O   UNL     1       0.382   9.974  23.652  0.00  0.00    +0.000 OA
ATOM     12  C   UNL     1      -0.378  10.463  21.464  0.00  0.00    +0.000 A 
ATOM     13  C   UNL     1      -1.136  11.566  21.867  0.00  0.00    +0.000 A 
ENDROOT
BRANCH   8  14
ATOM     14  C   UNL     1       1.831   7.095  20.141  0.00  0.00    +0.000 A 
ATOM     15  C   UNL     1       1.713   5.861  20.793  0.00  0.00    +0.000 A 
ATOM     16  C   UNL     1       2.472   4.769  20.365  0.00  0.00    +0.000 A 
ATOM     17 BR   UNL     1       2.305   3.123  21.292  0.00  0.00    +0.000 Br
ATOM     18  C   UNL     1       3.351   4.894  19.285  0.00  0.00    +0.000 A 
ATOM     19  C   UNL     1       3.462   6.123  18.629  0.00  0.00    +0.000 A 
ATOM     20 BR   UNL     1       4.647   6.360  17.166  0.00  0.00    +0.000 Br
ATOM     21  C   UNL     1       2.706   7.221  19.054  0.00  0.00    +0.000 A 
BRANCH  18  22
ATOM     22  O   UNL     1       4.111   3.834  18.868  0.00  0.00    +0.000 OA
ATOM     23  H   UNL     1       3.553   3.262  18.309  0.00  0.00    +0.000 HD
ENDBRANCH  18  22
ENDBRANCH   8  14
TORSDOF 2
ENDMDL
MODEL 4
REMARK VINA RESULT:      -7.5      1.632      2.734
REMARK  Name = 
REMARK  4 active torsions:
REMARK  status: ('A' for Active; 'I' for Inactive)
REMARK    1  A    between atoms: C_1  and  C_2
REMARK    2  A    between atoms: C_4  and  C_5
REMARK    3  A    between atoms: C_8  and  C_9
REMARK    4  A    between atoms: C_13  and  O_14
REMARK                            x       y       z     vdW  Elec       q    Type
REMARK                         _______ _______ _______ _____ _____    ______ ____
ROOT
ATOM      1  C   UNL     1      -2.696  13.429  21.127  0.00  0.00    +0.000 C 
ATOM      2  C   UNL     1      -1.860  12.241  20.748  0.00  0.00    +0.000 A 
ATOM      3  C   UNL     1      -1.778  11.804  19.417  0.00  0.00    +0.000 A 
ATOM      4  C   UNL     1      -0.998  10.687  19.063  0.00  0.00    +0.000 A 
ATOM      5  C   UNL     1      -0.937  10.247  17.627  0.00  0.00    +0.000 C 
ATOM      6  C   UNL     1      -0.292  10.003  20.063  0.00  0.00    +0.000 A 
ATOM      7  O   UNL     1       0.461   8.906  19.698  0.00  0.00    +0.000 OA
ATOM      8  C   UNL     1       1.146   8.226  20.688  0.00  0.00    +0.000 A 
ATOM      9  C   UNL     1       1.150   8.551  21.988  0.00  0.00    +0.000 A 
ATOM     10  C   UNL     1       0.371   9.714  22.428  0.00  0.00    +0.000 A 
ATOM     11  O   UNL     1       0.348  10.043  23.607  0.00  0.00    +0.000 OA
ATOM     12  C   UNL     1      -0.373  10.440  21.387  0.00  0.00    +0.000 A 
ATOM     13  C   UNL     1      -1.150  11.549  21.733  0.00  0.00    +0.000 A 
ENDROOT
BRANCH   8  14
ATOM     14  C   UNL     1       1.896   7.048  20.238  0.00  0.00    +0.000 A 
ATOM     15  C   UNL     1       2.740   7.144  19.124  0.00  0.00    +0.000 A 
ATOM     16  C   UNL     1       3.389   6.006  18.638  0.00  0.00    +0.000 A 
ATOM     17 BR   UNL     1       4.500   6.171  17.111  0.00  0.00    +0.000 Br
ATOM     18  C   UNL     1       3.206   4.766  19.258  0.00  0.00    +0.000 A 
ATOM     19  C   UNL     1       2.371   4.672  20.374  0.00  0.00    +0.000 A 
ATOM     20 BR   UNL     1       2.072   3.015  21.249  0.00  0.00    +0.000 Br
ATOM     21  C   UNL     1       1.718   5.808  20.864  0.00  0.00    +0.000 A 
BRANCH  18  22
ATOM     22  O   UNL     1       3.825   3.641  18.779  0.00  0.00    +0.000 OA
ATOM     23  H   UNL     1       4.661   3.525  19.266  0.00  0.00    +0.000 HD
ENDBRANCH  18  22
ENDBRANCH   8  14
TORSDOF 2
ENDMDL
MODEL 5
REMARK VINA RESULT:      -7.1      0.999      1.042
REMARK  Name = 
REMARK  4 active torsions:
REMARK  status: ('A' for Active; 'I' for Inactive)
REMARK    1  A    between atoms: C_1  and  C_2
REMARK    2  A    between atoms: C_4  and  C_5
REMARK    3  A    between atoms: C_8  and  C_9
REMARK    4  A    between atoms: C_13  and  O_14
REMARK                            x       y       z     vdW  Elec       q    Type
REMARK                         _______ _______ _______ _____ _____    ______ ____
ROOT
ATOM      1  C   UNL     1      -0.724  13.148  20.906  0.00  0.00    +0.000 C 
ATOM      2  C   UNL     1      -0.166  11.791  20.588  0.00  0.00    +0.000 A 
ATOM      3  C   UNL     1      -0.474  10.674  21.379  0.00  0.00    +0.000 A 
ATOM      4  C   UNL     1       0.053   9.403  21.083  0.00  0.00    +0.000 A 
ATOM      5  C   UNL     1      -0.297   8.230  21.955  0.00  0.00    +0.000 C 
ATOM      6  C   UNL     1       0.901   9.257  19.975  0.00  0.00    +0.000 A 
ATOM      7  O   UNL     1       1.414   8.006  19.705  0.00  0.00    +0.000 OA
ATOM      8  C   UNL     1       2.260   7.867  18.619  0.00  0.00    +0.000 A 
ATOM      9  C   UNL     1       2.620   8.855  17.790  0.00  0.00    +0.000 A 
ATOM     10  C   UNL     1       2.096  10.205  18.028  0.00  0.00    +0.000 A 
ATOM     11  O   UNL     1       2.403  11.135  17.294  0.00  0.00    +0.000 OA
ATOM     12  C   UNL     1       1.205  10.369  19.187  0.00  0.00    +0.000 A 
ATOM     13  C   UNL     1       0.679  11.629  19.487  0.00  0.00    +0.000 A 
ENDROOT
BRANCH   8  14
ATOM     14  C   UNL     1       2.799   6.518  18.411  0.00  0.00    +0.000 A 
ATOM     15  C   UNL     1       3.975   6.345  17.670  0.00  0.00    +0.000 A 
ATOM     16  C   UNL     1       4.445   5.059  17.393  0.00  0.00    +0.000 A 
ATOM     17 BR   UNL     1       6.025   4.867  16.363  0.00  0.00    +0.000 Br
ATOM     18  C   UNL     1       3.752   3.936  17.855  0.00  0.00    +0.000 A 
ATOM     19  C   UNL     1       2.584   4.109  18.601  0.00  0.00    +0.000 A 
ATOM     20 BR   UNL     1       1.591   2.624  19.242  0.00  0.00    +0.000 Br
ATOM     21  C   UNL     1       2.107   5.394  18.880  0.00  0.00    +0.000 A 
BRANCH  18  22
ATOM     22  O   UNL     1       4.196   2.671  17.576  0.00  0.00    +0.000 OA
ATOM     23  H   UNL     1       3.639   2.039  18.066  0.00  0.00    +0.000 HD
ENDBRANCH  18  22
ENDBRANCH   8  14
TORSDOF 2
ENDMDL
MODEL 6
REMARK VINA RESULT:      -7.1      3.122      6.971
REMARK  Name = 
REMARK  4 active torsions:
REMARK  status: ('A' for Active; 'I' for Inactive)
REMARK    1  A    between atoms: C_1  and  C_2
REMARK    2  A    between atoms: C_4  and  C_5
REMARK    3  A    between atoms: C_8  and  C_9
REMARK    4  A    between atoms: C_13  and  O_14
REMARK                            x       y       z     vdW  Elec       q    Type
REMARK                         _______ _______ _______ _____ _____    ______ ____
ROOT
ATOM      1  C   UNL     1       4.094   1.404  17.599  0.00  0.00    +0.000 C 
ATOM      2  C   UNL     1       3.522   2.686  18.130  0.00  0.00    +0.000 A 
ATOM      3  C   UNL     1       2.609   2.689  19.195  0.00  0.00    +0.000 A 
ATOM      4  C   UNL     1       2.070   3.892  19.689  0.00  0.00    +0.000 A 
ATOM      5  C   UNL     1       1.091   3.855  20.830  0.00  0.00    +0.000 C 
ATOM      6  C   UNL     1       2.457   5.106  19.103  0.00  0.00    +0.000 A 
ATOM      7  O   UNL     1       1.911   6.273  19.596  0.00  0.00    +0.000 OA
ATOM      8  C   UNL     1       2.285   7.467  19.007  0.00  0.00    +0.000 A 
ATOM      9  C   UNL     1       3.150   7.591  17.992  0.00  0.00    +0.000 A 
ATOM     10  C   UNL     1       3.765   6.380  17.435  0.00  0.00    +0.000 A 
ATOM     11  O   UNL     1       4.559   6.451  16.507  0.00  0.00    +0.000 OA
ATOM     12  C   UNL     1       3.367   5.101  18.044  0.00  0.00    +0.000 A 
ATOM     13  C   UNL     1       3.899   3.904  17.557  0.00  0.00    +0.000 A 
ENDROOT
BRANCH   8  14
ATOM     14  C   UNL     1       1.640   8.666  19.554  0.00  0.00    +0.000 A 
ATOM     15  C   UNL     1       1.707   9.876  18.851  0.00  0.00    +0.000 A 
ATOM     16  C   UNL     1       1.172  11.040  19.408  0.00  0.00    +0.000 A 
ATOM     17 BR   UNL     1       1.308  12.662  18.436  0.00  0.00    +0.000 Br
ATOM     18  C   UNL     1       0.563  11.009  20.666  0.00  0.00    +0.000 A 
ATOM     19  C   UNL     1       0.489   9.801  21.364  0.00  0.00    +0.000 A 
ATOM     20 BR   UNL     1      -0.312   9.699  23.081  0.00  0.00    +0.000 Br
ATOM     21  C   UNL     1       1.025   8.633  20.812  0.00  0.00    +0.000 A 
BRANCH  18  22
ATOM     22  O   UNL     1       0.049  12.148  21.228  0.00  0.00    +0.000 OA
ATOM     23  H   UNL     1       0.789  12.751  21.422  0.00  0.00    +0.000 HD
ENDBRANCH  18  22
ENDBRANCH   8  14
TORSDOF 2
ENDMDL
MODEL 7
REMARK VINA RESULT:      -7.0      3.086      7.231
REMARK  Name = 
REMARK  4 active torsions:
REMARK  status: ('A' for Active; 'I' for Inactive)
REMARK    1  A    between atoms: C_1  and  C_2
REMARK    2  A    between atoms: C_4  and  C_5
REMARK    3  A    between atoms: C_8  and  C_9
REMARK    4  A    between atoms: C_13  and  O_14
REMARK                            x       y       z     vdW  Elec       q    Type
REMARK                         _______ _______ _______ _____ _____    ______ ____
ROOT
ATOM      1  C   UNL     1       4.100   1.281  17.742  0.00  0.00    +0.000 C 
ATOM      2  C   UNL     1       3.543   2.565  18.283  0.00  0.00    +0.000 A 
ATOM      3  C   UNL     1       2.663   2.573  19.374  0.00  0.00    +0.000 A 
ATOM      4  C   UNL     1       2.137   3.778  19.879  0.00  0.00    +0.000 A 
ATOM      5  C   UNL     1       1.193   3.747  21.048  0.00  0.00    +0.000 C 
ATOM      6  C   UNL     1       2.505   4.989  19.274  0.00  0.00    +0.000 A 
ATOM      7  O   UNL     1       1.974   6.159  19.777  0.00  0.00    +0.000 OA
ATOM      8  C   UNL     1       2.328   7.350  19.171  0.00  0.00    +0.000 A 
ATOM      9  C   UNL     1       3.163   7.469  18.130  0.00  0.00    +0.000 A 
ATOM     10  C   UNL     1       3.762   6.256  17.561  0.00  0.00    +0.000 A 
ATOM     11  O   UNL     1       4.527   6.322  16.609  0.00  0.00    +0.000 OA
ATOM     12  C   UNL     1       3.383   4.980  18.188  0.00  0.00    +0.000 A 
ATOM     13  C   UNL     1       3.901   3.780  17.692  0.00  0.00    +0.000 A 
ENDROOT
BRANCH   8  14
ATOM     14  C   UNL     1       1.699   8.552  19.730  0.00  0.00    +0.000 A 
ATOM     15  C   UNL     1       1.135   8.510  21.012  0.00  0.00    +0.000 A 
ATOM     16  C   UNL     1       0.458   9.624  21.514  0.00  0.00    +0.000 A 
ATOM     17 BR   UNL     1      -0.317   9.518  23.241  0.00  0.00    +0.000 Br
ATOM     18  C   UNL     1       0.340  10.788  20.749  0.00  0.00    +0.000 A 
ATOM     19  C   UNL     1       0.911  10.833  19.474  0.00  0.00    +0.000 A 
ATOM     20 BR   UNL     1       0.772  12.378  18.382  0.00  0.00    +0.000 Br
ATOM     21  C   UNL     1       1.588   9.720  18.965  0.00  0.00    +0.000 A 
BRANCH  18  22
ATOM     22  O   UNL     1      -0.335  11.880  21.226  0.00  0.00    +0.000 OA
ATOM     23  H   UNL     1      -1.024  12.118  20.579  0.00  0.00    +0.000 HD
ENDBRANCH  18  22
ENDBRANCH   8  14
TORSDOF 2
ENDMDL
MODEL 8
REMARK VINA RESULT:      -6.9      1.143      2.559
REMARK  Name = 
REMARK  4 active torsions:
REMARK  status: ('A' for Active; 'I' for Inactive)
REMARK    1  A    between atoms: C_1  and  C_2
REMARK    2  A    between atoms: C_4  and  C_5
REMARK    3  A    between atoms: C_8  and  C_9
REMARK    4  A    between atoms: C_13  and  O_14
REMARK                            x       y       z     vdW  Elec       q    Type
REMARK                         _______ _______ _______ _____ _____    ______ ____
ROOT
ATOM      1  C   UNL     1      -0.855  14.011  20.635  0.00  0.00    +0.000 C 
ATOM      2  C   UNL     1      -0.190  12.694  20.359  0.00  0.00    +0.000 A 
ATOM      3  C   UNL     1       0.655  12.524  19.252  0.00  0.00    +0.000 A 
ATOM      4  C   UNL     1       1.275  11.287  18.991  0.00  0.00    +0.000 A 
ATOM      5  C   UNL     1       2.171  11.142  17.793  0.00  0.00    +0.000 C 
ATOM      6  C   UNL     1       1.040  10.210  19.858  0.00  0.00    +0.000 A 
ATOM      7  O   UNL     1       1.650   9.004  19.581  0.00  0.00    +0.000 OA
ATOM      8  C   UNL     1       1.407   7.940  20.430  0.00  0.00    +0.000 A 
ATOM      9  C   UNL     1       0.627   7.982  21.518  0.00  0.00    +0.000 A 
ATOM     10  C   UNL     1      -0.040   9.244  21.862  0.00  0.00    +0.000 A 
ATOM     11  O   UNL     1      -0.762   9.323  22.847  0.00  0.00    +0.000 OA
ATOM     12  C   UNL     1       0.200  10.381  20.960  0.00  0.00    +0.000 A 
ATOM     13  C   UNL     1      -0.413  11.611  21.213  0.00  0.00    +0.000 A 
ENDROOT
BRANCH   8  14
ATOM     14  C   UNL     1       2.056   6.678  20.058  0.00  0.00    +0.000 A 
ATOM     15  C   UNL     1       2.900   6.631  18.941  0.00  0.00    +0.000 A 
ATOM     16  C   UNL     1       3.451   5.414  18.531  0.00  0.00    +0.000 A 
ATOM     17 BR   UNL     1       4.565   5.389  16.998  0.00  0.00    +0.000 Br
ATOM     18  C   UNL     1       3.171   4.236  19.230  0.00  0.00    +0.000 A 
ATOM     19  C   UNL     1       2.336   4.284  20.350  0.00  0.00    +0.000 A 
ATOM     20 BR   UNL     1       1.906   2.718  21.331  0.00  0.00    +0.000 Br
ATOM     21  C   UNL     1       1.780   5.500  20.764  0.00  0.00    +0.000 A 
BRANCH  18  22
ATOM     22  O   UNL     1       3.693   3.036  18.827  0.00  0.00    +0.000 OA
ATOM     23  H   UNL     1       4.505   3.215  18.318  0.00  0.00    +0.000 HD
ENDBRANCH  18  22
ENDBRANCH   8  14
TORSDOF 2
ENDMDL
MODEL 9
REMARK VINA RESULT:      -6.9      1.115      2.420
REMARK  Name = 
REMARK  4 active torsions:
REMARK  status: ('A' for Active; 'I' for Inactive)
REMARK    1  A    between atoms: C_1  and  C_2
REMARK    2  A    between atoms: C_4  and  C_5
REMARK    3  A    between atoms: C_8  and  C_9
REMARK    4  A    between atoms: C_13  and  O_14
REMARK                            x       y       z     vdW  Elec       q    Type
REMARK                         _______ _______ _______ _____ _____    ______ ____
ROOT
ATOM      1  C   UNL     1      -1.273  14.054  22.220  0.00  0.00    +0.000 C 
ATOM      2  C   UNL     1      -0.697  12.721  21.839  0.00  0.00    +0.000 A 
ATOM      3  C   UNL     1      -0.791  11.616  22.698  0.00  0.00    +0.000 A 
ATOM      4  C   UNL     1      -0.246  10.368  22.343  0.00  0.00    +0.000 A 
ATOM      5  C   UNL     1      -0.363   9.207  23.291  0.00  0.00    +0.000 C 
ATOM      6  C   UNL     1       0.400  10.232  21.105  0.00  0.00    +0.000 A 
ATOM      7  O   UNL     1       0.934   9.004  20.777  0.00  0.00    +0.000 OA
ATOM      8  C   UNL     1       1.581   8.876  19.562  0.00  0.00    +0.000 A 
ATOM      9  C   UNL     1       1.727   9.854  18.658  0.00  0.00    +0.000 A 
ATOM     10  C   UNL     1       1.171  11.180  18.955  0.00  0.00    +0.000 A 
ATOM     11  O   UNL     1       1.286  12.100  18.156  0.00  0.00    +0.000 OA
ATOM     12  C   UNL     1       0.490  11.332  20.250  0.00  0.00    +0.000 A 
ATOM     13  C   UNL     1      -0.051  12.570  20.609  0.00  0.00    +0.000 A 
ENDROOT
BRANCH   8  14
ATOM     14  C   UNL     1       2.157   7.554  19.292  0.00  0.00    +0.000 A 
ATOM     15  C   UNL     1       1.878   6.483  20.151  0.00  0.00    +0.000 A 
ATOM     16  C   UNL     1       2.494   5.246  19.950  0.00  0.00    +0.000 A 
ATOM     17 BR   UNL     1       2.111   3.830  21.151  0.00  0.00    +0.000 Br
ATOM     18  C   UNL     1       3.388   5.062  18.891  0.00  0.00    +0.000 A 
ATOM     19  C   UNL     1       3.660   6.127  18.028  0.00  0.00    +0.000 A 
ATOM     20 BR   UNL     1       4.875   5.944  16.583  0.00  0.00    +0.000 Br
ATOM     21  C   UNL     1       3.048   7.370  18.227  0.00  0.00    +0.000 A 
BRANCH  18  22
ATOM     22  O   UNL     1       4.009   3.857  18.694  0.00  0.00    +0.000 OA
ATOM     23  H   UNL     1       3.952   3.638  17.746  0.00  0.00    +0.000 HD
ENDBRANCH  18  22
ENDBRANCH   8  14
TORSDOF 2
ENDMDL
