MODEL 1
REMARK VINA RESULT:      -7.7      0.000      0.000
REMARK  Name = 
REMARK  11 active torsions:
REMARK  status: ('A' for Active; 'I' for Inactive)
REMARK    1  A    between atoms: C_2  and  O_3
REMARK    2  A    between atoms: C_2  and  C_4
REMARK    3  A    between atoms: C_8  and  O_10
REMARK    4  A    between atoms: O_10  and  C_11
REMARK    5  A    between atoms: C_16  and  O_17
REMARK    6  A    between atoms: O_17  and  C_18
REMARK    7  A    between atoms: C_20  and  C_21
REMARK    8  A    between atoms: C_21  and  O_22
REMARK    9  A    between atoms: C_23  and  O_24
REMARK   10  A    between atoms: C_25  and  O_26
REMARK   11  A    between atoms: C_27  and  O_28
REMARK                            x       y       z     vdW  Elec       q    Type
REMARK                         _______ _______ _______ _____ _____    ______ ____
ROOT
ATOM      1  C   UNL     1       2.663   5.371  18.791  0.00  0.00    +0.000 C 
ATOM      2  C   UNL     1       1.494   4.494  18.301  0.00  0.00    +0.000 C 
ATOM      3  C   UNL     1       0.762   3.759  19.415  0.00  0.00    +0.000 C 
ATOM      4  C   UNL     1       1.737   2.956  20.262  0.00  0.00    +0.000 C 
ATOM      5  C   UNL     1       2.784   3.878  20.880  0.00  0.00    +0.000 C 
ATOM      6  C   UNL     1       3.582   4.676  19.835  0.00  0.00    +0.000 C 
ENDROOT
BRANCH   1   7
ATOM      7  O   UNL     1       2.171   6.638  19.293  0.00  0.00    +0.000 OA
BRANCH   7  12
ATOM      8  C   UNL     1       0.960  11.439  19.627  0.00  0.00    +0.000 C 
ATOM      9  C   UNL     1       2.056  11.200  18.580  0.00  0.00    +0.000 C 
ATOM     10  C   UNL     1       1.784   9.940  17.767  0.00  0.00    +0.000 C 
ATOM     11  N   UNL     1       1.622   8.796  18.649  0.00  0.00    +0.000 N 
ATOM     12  C   UNL     1       2.425   7.684  18.448  0.00  0.00    +0.000 C 
ATOM     13  O   UNL     1       3.304   7.665  17.592  0.00  0.00    +0.000 OA
ATOM     14  C   UNL     1       0.565   8.901  19.644  0.00  0.00    +0.000 C 
ATOM     15  C   UNL     1       0.740  10.174  20.481  0.00  0.00    +0.000 C 
BRANCH   8  17
ATOM     16  O   UNL     1      -1.451  11.560  19.317  0.00  0.00    +0.000 OA
ATOM     17  C   UNL     1      -0.331  11.913  18.978  0.00  0.00    +0.000 C 
BRANCH  17  18
ATOM     18  O   UNL     1      -0.138  12.807  17.982  0.00  0.00    +0.000 OA
ATOM     19  H   UNL     1       0.585  13.441  18.135  0.00  0.00    +0.000 HD
ENDBRANCH  17  18
ENDBRANCH   8  17
ENDBRANCH   7  12
ENDBRANCH   1   7
BRANCH   6  20
ATOM     20  O   UNL     1       4.469   3.847  19.072  0.00  0.00    +0.000 OA
BRANCH  20  21
ATOM     21  C   UNL     1       5.699   4.373  18.572  0.00  0.00    +0.000 C 
ATOM     22  O   UNL     1       5.987   5.612  19.221  0.00  0.00    +0.000 OA
ATOM     23  C   UNL     1       7.292   6.150  18.955  0.00  0.00    +0.000 C 
ATOM     24  C   UNL     1       7.418   6.413  17.453  0.00  0.00    +0.000 C 
ATOM     25  C   UNL     1       7.185   5.128  16.653  0.00  0.00    +0.000 C 
ATOM     26  C   UNL     1       5.839   4.464  17.024  0.00  0.00    +0.000 C 
BRANCH  24  27
ATOM     27  O   UNL     1       6.424   7.373  17.041  0.00  0.00    +0.000 OA
ATOM     28  H   UNL     1       6.833   7.947  16.363  0.00  0.00    +0.000 HD
ENDBRANCH  24  27
BRANCH  25  29
ATOM     29  O   UNL     1       7.223   5.428  15.251  0.00  0.00    +0.000 OA
ATOM     30  H   UNL     1       7.244   4.566  14.787  0.00  0.00    +0.000 HD
ENDBRANCH  25  29
BRANCH  26  31
ATOM     31  O   UNL     1       5.728   3.164  16.423  0.00  0.00    +0.000 OA
ATOM     32  H   UNL     1       4.851   3.081  16.008  0.00  0.00    +0.000 HD
ENDBRANCH  26  31
BRANCH  23  33
ATOM     33  C   UNL     1       8.437   5.290  19.520  0.00  0.00    +0.000 C 
BRANCH  33  34
ATOM     34  O   UNL     1       8.393   5.216  20.941  0.00  0.00    +0.000 OA
ATOM     35  H   UNL     1       7.804   4.488  21.201  0.00  0.00    +0.000 HD
ENDBRANCH  33  34
ENDBRANCH  23  33
ENDBRANCH  20  21
ENDBRANCH   6  20
TORSDOF 11
ENDMDL
MODEL 2
REMARK VINA RESULT:      -7.6      1.140      1.508
REMARK  Name = 
REMARK  11 active torsions:
REMARK  status: ('A' for Active; 'I' for Inactive)
REMARK    1  A    between atoms: C_2  and  O_3
REMARK    2  A    between atoms: C_2  and  C_4
REMARK    3  A    between atoms: C_8  and  O_10
REMARK    4  A    between atoms: O_10  and  C_11
REMARK    5  A    between atoms: C_16  and  O_17
REMARK    6  A    between atoms: O_17  and  C_18
REMARK    7  A    between atoms: C_20  and  C_21
REMARK    8  A    between atoms: C_21  and  O_22
REMARK    9  A    between atoms: C_23  and  O_24
REMARK   10  A    between atoms: C_25  and  O_26
REMARK   11  A    between atoms: C_27  and  O_28
REMARK                            x       y       z     vdW  Elec       q    Type
REMARK                         _______ _______ _______ _____ _____    ______ ____
ROOT
ATOM      1  C   UNL     1       2.647   5.242  19.072  0.00  0.00    +0.000 C 
ATOM      2  C   UNL     1       1.391   4.524  18.540  0.00  0.00    +0.000 C 
ATOM      3  C   UNL     1       0.807   3.501  19.506  0.00  0.00    +0.000 C 
ATOM      4  C   UNL     1       1.869   2.505  19.943  0.00  0.00    +0.000 C 
ATOM      5  C   UNL     1       3.024   3.230  20.627  0.00  0.00    +0.000 C 
ATOM      6  C   UNL     1       3.686   4.294  19.735  0.00  0.00    +0.000 C 
ENDROOT
BRANCH   1   7
ATOM      7  O   UNL     1       2.275   6.316  19.972  0.00  0.00    +0.000 OA
BRANCH   7  12
ATOM      8  C   UNL     1       0.786  10.718  21.715  0.00  0.00    +0.000 C 
ATOM      9  C   UNL     1       1.357  10.831  20.295  0.00  0.00    +0.000 C 
ATOM     10  C   UNL     1       0.911   9.665  19.420  0.00  0.00    +0.000 C 
ATOM     11  N   UNL     1       1.266   8.402  20.044  0.00  0.00    +0.000 N 
ATOM     12  C   UNL     1       2.028   7.496  19.324  0.00  0.00    +0.000 C 
ATOM     13  O   UNL     1       2.461   7.758  18.205  0.00  0.00    +0.000 OA
ATOM     14  C   UNL     1       0.723   8.172  21.376  0.00  0.00    +0.000 C 
ATOM     15  C   UNL     1       1.090   9.329  22.313  0.00  0.00    +0.000 C 
BRANCH   8  17
ATOM     16  O   UNL     1      -1.327  11.511  20.806  0.00  0.00    +0.000 OA
ATOM     17  C   UNL     1      -0.703  11.028  21.738  0.00  0.00    +0.000 C 
BRANCH  17  18
ATOM     18  O   UNL     1      -1.307  10.691  22.900  0.00  0.00    +0.000 OA
ATOM     19  H   UNL     1      -0.727  10.258  23.552  0.00  0.00    +0.000 HD
ENDBRANCH  17  18
ENDBRANCH   8  17
ENDBRANCH   7  12
ENDBRANCH   1   7
BRANCH   6  20
ATOM     20  O   UNL     1       4.424   3.717  18.650  0.00  0.00    +0.000 OA
BRANCH  20  21
ATOM     21  C   UNL     1       5.653   4.304  18.219  0.00  0.00    +0.000 C 
ATOM     22  O   UNL     1       5.830   5.568  18.862  0.00  0.00    +0.000 OA
ATOM     23  C   UNL     1       7.117   6.175  18.670  0.00  0.00    +0.000 C 
ATOM     24  C   UNL     1       7.325   6.421  17.174  0.00  0.00    +0.000 C 
ATOM     25  C   UNL     1       7.216   5.113  16.385  0.00  0.00    +0.000 C 
ATOM     26  C   UNL     1       5.888   4.380  16.681  0.00  0.00    +0.000 C 
BRANCH  24  27
ATOM     27  O   UNL     1       6.308   7.317  16.681  0.00  0.00    +0.000 OA
ATOM     28  H   UNL     1       5.689   7.494  17.418  0.00  0.00    +0.000 HD
ENDBRANCH  24  27
BRANCH  25  29
ATOM     29  O   UNL     1       7.328   5.394  14.983  0.00  0.00    +0.000 OA
ATOM     30  H   UNL     1       8.195   5.832  14.860  0.00  0.00    +0.000 HD
ENDBRANCH  25  29
BRANCH  26  31
ATOM     31  O   UNL     1       5.888   3.067  16.100  0.00  0.00    +0.000 OA
ATOM     32  H   UNL     1       6.807   2.805  15.909  0.00  0.00    +0.000 HD
ENDBRANCH  26  31
BRANCH  23  33
ATOM     33  C   UNL     1       8.269   5.389  19.323  0.00  0.00    +0.000 C 
BRANCH  33  34
ATOM     34  O   UNL     1       8.187   5.412  20.744  0.00  0.00    +0.000 OA
ATOM     35  H   UNL     1       8.997   5.817  21.099  0.00  0.00    +0.000 HD
ENDBRANCH  33  34
ENDBRANCH  23  33
ENDBRANCH  20  21
ENDBRANCH   6  20
TORSDOF 11
ENDMDL
MODEL 3
REMARK VINA RESULT:      -7.1      1.919      3.090
REMARK  Name = 
REMARK  11 active torsions:
REMARK  status: ('A' for Active; 'I' for Inactive)
REMARK    1  A    between atoms: C_2  and  O_3
REMARK    2  A    between atoms: C_2  and  C_4
REMARK    3  A    between atoms: C_8  and  O_10
REMARK    4  A    between atoms: O_10  and  C_11
REMARK    5  A    between atoms: C_16  and  O_17
REMARK    6  A    between atoms: O_17  and  C_18
REMARK    7  A    between atoms: C_20  and  C_21
REMARK    8  A    between atoms: C_21  and  O_22
REMARK    9  A    between atoms: C_23  and  O_24
REMARK   10  A    between atoms: C_25  and  O_26
REMARK   11  A    between atoms: C_27  and  O_28
REMARK                            x       y       z     vdW  Elec       q    Type
REMARK                         _______ _______ _______ _____ _____    ______ ____
ROOT
ATOM      1  C   UNL     1       2.100   5.411  19.184  0.00  0.00    +0.000 C 
ATOM      2  C   UNL     1       1.026   4.369  19.548  0.00  0.00    +0.000 C 
ATOM      3  C   UNL     1       1.452   3.394  20.638  0.00  0.00    +0.000 C 
ATOM      4  C   UNL     1       2.770   2.727  20.277  0.00  0.00    +0.000 C 
ATOM      5  C   UNL     1       3.862   3.777  20.095  0.00  0.00    +0.000 C 
ATOM      6  C   UNL     1       3.527   4.818  19.015  0.00  0.00    +0.000 C 
ENDROOT
BRANCH   1   7
ATOM      7  O   UNL     1       2.099   6.497  20.145  0.00  0.00    +0.000 OA
BRANCH   7  12
ATOM      8  C   UNL     1       0.562  10.785  22.115  0.00  0.00    +0.000 C 
ATOM      9  C   UNL     1       1.201  10.989  20.734  0.00  0.00    +0.000 C 
ATOM     10  C   UNL     1       0.787   9.890  19.762  0.00  0.00    +0.000 C 
ATOM     11  N   UNL     1       1.103   8.584  20.313  0.00  0.00    +0.000 N 
ATOM     12  C   UNL     1       1.892   7.721  19.568  0.00  0.00    +0.000 C 
ATOM     13  O   UNL     1       2.379   8.054  18.492  0.00  0.00    +0.000 OA
ATOM     14  C   UNL     1       0.496   8.269  21.599  0.00  0.00    +0.000 C 
ATOM     15  C   UNL     1       0.827   9.356  22.630  0.00  0.00    +0.000 C 
BRANCH   8  17
ATOM     16  O   UNL     1      -1.500  11.661  21.164  0.00  0.00    +0.000 OA
ATOM     17  C   UNL     1      -0.924  11.109  22.090  0.00  0.00    +0.000 C 
BRANCH  17  18
ATOM     18  O   UNL     1      -1.584  10.701  23.197  0.00  0.00    +0.000 OA
ATOM     19  H   UNL     1      -2.549  10.616  23.090  0.00  0.00    +0.000 HD
ENDBRANCH  17  18
ENDBRANCH   8  17
ENDBRANCH   7  12
ENDBRANCH   1   7
BRANCH   6  20
ATOM     20  O   UNL     1       3.557   4.266  17.693  0.00  0.00    +0.000 OA
BRANCH  20  21
ATOM     21  C   UNL     1       4.599   4.623  16.783  0.00  0.00    +0.000 C 
ATOM     22  O   UNL     1       5.326   3.453  16.406  0.00  0.00    +0.000 OA
ATOM     23  C   UNL     1       6.275   3.640  15.345  0.00  0.00    +0.000 C 
ATOM     24  C   UNL     1       7.317   4.667  15.793  0.00  0.00    +0.000 C 
ATOM     25  C   UNL     1       6.649   5.994  16.168  0.00  0.00    +0.000 C 
ATOM     26  C   UNL     1       5.533   5.791  17.217  0.00  0.00    +0.000 C 
BRANCH  24  27
ATOM     27  O   UNL     1       8.011   4.181  16.960  0.00  0.00    +0.000 OA
ATOM     28  H   UNL     1       8.811   4.731  17.077  0.00  0.00    +0.000 HD
ENDBRANCH  24  27
BRANCH  25  29
ATOM     29  O   UNL     1       7.642   6.901  16.667  0.00  0.00    +0.000 OA
ATOM     30  H   UNL     1       8.506   6.456  16.541  0.00  0.00    +0.000 HD
ENDBRANCH  25  29
BRANCH  26  31
ATOM     31  O   UNL     1       4.782   7.002  17.406  0.00  0.00    +0.000 OA
ATOM     32  H   UNL     1       5.389   7.762  17.351  0.00  0.00    +0.000 HD
ENDBRANCH  26  31
BRANCH  23  33
ATOM     33  C   UNL     1       5.623   3.986  13.993  0.00  0.00    +0.000 C 
BRANCH  33  34
ATOM     34  O   UNL     1       6.162   3.206  12.931  0.00  0.00    +0.000 OA
ATOM     35  H   UNL     1       6.575   3.801  12.282  0.00  0.00    +0.000 HD
ENDBRANCH  33  34
ENDBRANCH  23  33
ENDBRANCH  20  21
ENDBRANCH   6  20
TORSDOF 11
ENDMDL
MODEL 4
REMARK VINA RESULT:      -7.0      2.049      6.808
REMARK  Name = 
REMARK  11 active torsions:
REMARK  status: ('A' for Active; 'I' for Inactive)
REMARK    1  A    between atoms: C_2  and  O_3
REMARK    2  A    between atoms: C_2  and  C_4
REMARK    3  A    between atoms: C_8  and  O_10
REMARK    4  A    between atoms: O_10  and  C_11
REMARK    5  A    between atoms: C_16  and  O_17
REMARK    6  A    between atoms: O_17  and  C_18
REMARK    7  A    between atoms: C_20  and  C_21
REMARK    8  A    between atoms: C_21  and  O_22
REMARK    9  A    between atoms: C_23  and  O_24
REMARK   10  A    between atoms: C_25  and  O_26
REMARK   11  A    between atoms: C_27  and  O_28
REMARK                            x       y       z     vdW  Elec       q    Type
REMARK                         _______ _______ _______ _____ _____    ______ ____
ROOT
ATOM      1  C   UNL     1       3.359   3.935  20.120  0.00  0.00    +0.000 C 
ATOM      2  C   UNL     1       2.548   2.690  20.527  0.00  0.00    +0.000 C 
ATOM      3  C   UNL     1       1.754   2.067  19.386  0.00  0.00    +0.000 C 
ATOM      4  C   UNL     1       0.871   3.107  18.714  0.00  0.00    +0.000 C 
ATOM      5  C   UNL     1       1.722   4.247  18.163  0.00  0.00    +0.000 C 
ATOM      6  C   UNL     1       2.572   4.945  19.239  0.00  0.00    +0.000 C 
ENDROOT
BRANCH   1   7
ATOM      7  O   UNL     1       4.600   3.545  19.480  0.00  0.00    +0.000 OA
BRANCH   7  12
ATOM      8  C   UNL     1       5.517   5.294  14.927  0.00  0.00    +0.000 C 
ATOM      9  C   UNL     1       5.868   6.320  16.012  0.00  0.00    +0.000 C 
ATOM     10  C   UNL     1       6.541   5.656  17.209  0.00  0.00    +0.000 C 
ATOM     11  N   UNL     1       5.704   4.588  17.729  0.00  0.00    +0.000 N 
ATOM     12  C   UNL     1       5.349   4.614  19.068  0.00  0.00    +0.000 C 
ATOM     13  O   UNL     1       5.668   5.542  19.805  0.00  0.00    +0.000 OA
ATOM     14  C   UNL     1       5.361   3.530  16.788  0.00  0.00    +0.000 C 
ATOM     15  C   UNL     1       4.717   4.121  15.528  0.00  0.00    +0.000 C 
BRANCH   8  17
ATOM     16  O   UNL     1       7.804   5.443  14.110  0.00  0.00    +0.000 OA
ATOM     17  C   UNL     1       6.761   4.813  14.197  0.00  0.00    +0.000 C 
BRANCH  17  18
ATOM     18  O   UNL     1       6.628   3.580  13.657  0.00  0.00    +0.000 OA
ATOM     19  H   UNL     1       7.419   3.016  13.723  0.00  0.00    +0.000 HD
ENDBRANCH  17  18
ENDBRANCH   8  17
ENDBRANCH   7  12
ENDBRANCH   1   7
BRANCH   6  20
ATOM     20  O   UNL     1       1.776   5.711  20.153  0.00  0.00    +0.000 OA
BRANCH  20  21
ATOM     21  C   UNL     1       1.803   7.138  20.113  0.00  0.00    +0.000 C 
ATOM     22  O   UNL     1       0.609   7.655  20.704  0.00  0.00    +0.000 OA
ATOM     23  C   UNL     1       0.595   9.076  20.906  0.00  0.00    +0.000 C 
ATOM     24  C   UNL     1       0.735   9.767  19.549  0.00  0.00    +0.000 C 
ATOM     25  C   UNL     1       2.023   9.330  18.844  0.00  0.00    +0.000 C 
ATOM     26  C   UNL     1       2.115   7.791  18.734  0.00  0.00    +0.000 C 
BRANCH  24  27
ATOM     27  O   UNL     1      -0.373   9.405  18.701  0.00  0.00    +0.000 OA
ATOM     28  H   UNL     1      -1.196   9.654  19.169  0.00  0.00    +0.000 HD
ENDBRANCH  24  27
BRANCH  25  29
ATOM     29  O   UNL     1       2.077   9.926  17.540  0.00  0.00    +0.000 OA
ATOM     30  H   UNL     1       1.714   9.261  16.920  0.00  0.00    +0.000 HD
ENDBRANCH  25  29
BRANCH  26  31
ATOM     31  O   UNL     1       3.411   7.389  18.260  0.00  0.00    +0.000 OA
ATOM     32  H   UNL     1       3.344   6.499  17.872  0.00  0.00    +0.000 HD
ENDBRANCH  26  31
BRANCH  23  33
ATOM     33  C   UNL     1       1.627   9.559  21.943  0.00  0.00    +0.000 C 
BRANCH  33  34
ATOM     34  O   UNL     1       1.047   9.717  23.233  0.00  0.00    +0.000 OA
ATOM     35  H   UNL     1       1.034  10.663  23.458  0.00  0.00    +0.000 HD
ENDBRANCH  33  34
ENDBRANCH  23  33
ENDBRANCH  20  21
ENDBRANCH   6  20
TORSDOF 11
ENDMDL
MODEL 5
REMARK VINA RESULT:      -6.6      2.915      8.509
REMARK  Name = 
REMARK  11 active torsions:
REMARK  status: ('A' for Active; 'I' for Inactive)
REMARK    1  A    between atoms: C_2  and  O_3
REMARK    2  A    between atoms: C_2  and  C_4
REMARK    3  A    between atoms: C_8  and  O_10
REMARK    4  A    between atoms: O_10  and  C_11
REMARK    5  A    between atoms: C_16  and  O_17
REMARK    6  A    between atoms: O_17  and  C_18
REMARK    7  A    between atoms: C_20  and  C_21
REMARK    8  A    between atoms: C_21  and  O_22
REMARK    9  A    between atoms: C_23  and  O_24
REMARK   10  A    between atoms: C_25  and  O_26
REMARK   11  A    between atoms: C_27  and  O_28
REMARK                            x       y       z     vdW  Elec       q    Type
REMARK                         _______ _______ _______ _____ _____    ______ ____
ROOT
ATOM      1  C   UNL     1       1.273   9.513  21.301  0.00  0.00    +0.000 C 
ATOM      2  C   UNL     1       0.963   9.196  22.776  0.00  0.00    +0.000 C 
ATOM      3  C   UNL     1      -0.473   9.494  23.185  0.00  0.00    +0.000 C 
ATOM      4  C   UNL     1      -0.845  10.927  22.838  0.00  0.00    +0.000 C 
ATOM      5  C   UNL     1      -0.698  11.163  21.338  0.00  0.00    +0.000 C 
ATOM      6  C   UNL     1       0.723  10.885  20.818  0.00  0.00    +0.000 C 
ENDROOT
BRANCH   1   7
ATOM      7  O   UNL     1       0.815   8.438  20.443  0.00  0.00    +0.000 OA
BRANCH   7  12
ATOM      8  C   UNL     1       2.302   3.885  19.146  0.00  0.00    +0.000 C 
ATOM      9  C   UNL     1       2.758   4.943  18.132  0.00  0.00    +0.000 C 
ATOM     10  C   UNL     1       3.230   6.214  18.829  0.00  0.00    +0.000 C 
ATOM     11  N   UNL     1       2.190   6.723  19.708  0.00  0.00    +0.000 N 
ATOM     12  C   UNL     1       1.762   8.031  19.543  0.00  0.00    +0.000 C 
ATOM     13  O   UNL     1       2.190   8.744  18.640  0.00  0.00    +0.000 OA
ATOM     14  C   UNL     1       1.728   5.811  20.745  0.00  0.00    +0.000 C 
ATOM     15  C   UNL     1       1.275   4.482  20.129  0.00  0.00    +0.000 C 
BRANCH   8  17
ATOM     16  O   UNL     1       4.649   3.347  19.502  0.00  0.00    +0.000 OA
ATOM     17  C   UNL     1       3.487   3.269  19.873  0.00  0.00    +0.000 C 
BRANCH  17  18
ATOM     18  O   UNL     1       3.147   2.630  21.015  0.00  0.00    +0.000 OA
ATOM     19  H   UNL     1       3.423   1.697  21.060  0.00  0.00    +0.000 HD
ENDBRANCH  17  18
ENDBRANCH   8  17
ENDBRANCH   7  12
ENDBRANCH   1   7
BRANCH   6  20
ATOM     20  O   UNL     1       1.672  11.859  21.270  0.00  0.00    +0.000 OA
BRANCH  20  21
ATOM     21  C   UNL     1       1.802  13.110  20.593  0.00  0.00    +0.000 C 
ATOM     22  O   UNL     1       1.530  12.930  19.202  0.00  0.00    +0.000 OA
ATOM     23  C   UNL     1       1.433  14.143  18.439  0.00  0.00    +0.000 C 
ATOM     24  C   UNL     1       2.768  14.885  18.522  0.00  0.00    +0.000 C 
ATOM     25  C   UNL     1       3.135  15.186  19.979  0.00  0.00    +0.000 C 
ATOM     26  C   UNL     1       3.117  13.906  20.845  0.00  0.00    +0.000 C 
BRANCH  24  27
ATOM     27  O   UNL     1       3.817  14.066  17.966  0.00  0.00    +0.000 OA
ATOM     28  H   UNL     1       3.495  13.716  17.111  0.00  0.00    +0.000 HD
ENDBRANCH  24  27
BRANCH  25  29
ATOM     29  O   UNL     1       4.430  15.800  20.025  0.00  0.00    +0.000 OA
ATOM     30  H   UNL     1       4.615  16.118  19.117  0.00  0.00    +0.000 HD
ENDBRANCH  25  29
BRANCH  26  31
ATOM     31  O   UNL     1       3.259  14.228  22.237  0.00  0.00    +0.000 OA
ATOM     32  H   UNL     1       2.992  15.155  22.377  0.00  0.00    +0.000 HD
ENDBRANCH  26  31
BRANCH  23  33
ATOM     33  C   UNL     1       0.226  15.017  18.828  0.00  0.00    +0.000 C 
BRANCH  33  34
ATOM     34  O   UNL     1      -0.990  14.277  18.814  0.00  0.00    +0.000 OA
ATOM     35  H   UNL     1      -1.507  14.536  18.032  0.00  0.00    +0.000 HD
ENDBRANCH  33  34
ENDBRANCH  23  33
ENDBRANCH  20  21
ENDBRANCH   6  20
TORSDOF 11
ENDMDL
MODEL 6
REMARK VINA RESULT:      -6.3      1.720      2.776
REMARK  Name = 
REMARK  11 active torsions:
REMARK  status: ('A' for Active; 'I' for Inactive)
REMARK    1  A    between atoms: C_2  and  O_3
REMARK    2  A    between atoms: C_2  and  C_4
REMARK    3  A    between atoms: C_8  and  O_10
REMARK    4  A    between atoms: O_10  and  C_11
REMARK    5  A    between atoms: C_16  and  O_17
REMARK    6  A    between atoms: O_17  and  C_18
REMARK    7  A    between atoms: C_20  and  C_21
REMARK    8  A    between atoms: C_21  and  O_22
REMARK    9  A    between atoms: C_23  and  O_24
REMARK   10  A    between atoms: C_25  and  O_26
REMARK   11  A    between atoms: C_27  and  O_28
REMARK                            x       y       z     vdW  Elec       q    Type
REMARK                         _______ _______ _______ _____ _____    ______ ____
ROOT
ATOM      1  C   UNL     1       1.840   5.567  19.671  0.00  0.00    +0.000 C 
ATOM      2  C   UNL     1       0.847   4.408  19.884  0.00  0.00    +0.000 C 
ATOM      3  C   UNL     1       1.235   3.458  21.009  0.00  0.00    +0.000 C 
ATOM      4  C   UNL     1       2.651   2.943  20.815  0.00  0.00    +0.000 C 
ATOM      5  C   UNL     1       3.639   4.106  20.785  0.00  0.00    +0.000 C 
ATOM      6  C   UNL     1       3.333   5.132  19.680  0.00  0.00    +0.000 C 
ENDROOT
BRANCH   1   7
ATOM      7  O   UNL     1       1.601   6.624  20.634  0.00  0.00    +0.000 OA
BRANCH   7  12
ATOM      8  C   UNL     1       0.027  10.968  22.444  0.00  0.00    +0.000 C 
ATOM      9  C   UNL     1       0.894  11.154  21.192  0.00  0.00    +0.000 C 
ATOM     10  C   UNL     1       0.580  10.101  20.136  0.00  0.00    +0.000 C 
ATOM     11  N   UNL     1       0.721   8.767  20.696  0.00  0.00    +0.000 N 
ATOM     12  C   UNL     1       1.566   7.868  20.065  0.00  0.00    +0.000 C 
ATOM     13  O   UNL     1       2.242   8.187  19.092  0.00  0.00    +0.000 OA
ATOM     14  C   UNL     1      -0.107   8.471  21.857  0.00  0.00    +0.000 C 
ATOM     15  C   UNL     1       0.117   9.516  22.956  0.00  0.00    +0.000 C 
BRANCH   8  17
ATOM     16  O   UNL     1      -1.850  11.745  21.104  0.00  0.00    +0.000 OA
ATOM     17  C   UNL     1      -1.412  11.388  22.188  0.00  0.00    +0.000 C 
BRANCH  17  18
ATOM     18  O   UNL     1      -2.202  11.306  23.282  0.00  0.00    +0.000 OA
ATOM     19  H   UNL     1      -3.155  11.226  23.094  0.00  0.00    +0.000 HD
ENDBRANCH  17  18
ENDBRANCH   8  17
ENDBRANCH   7  12
ENDBRANCH   1   7
BRANCH   6  20
ATOM     20  O   UNL     1       3.589   4.616  18.367  0.00  0.00    +0.000 OA
BRANCH  20  21
ATOM     21  C   UNL     1       4.732   5.053  17.630  0.00  0.00    +0.000 C 
ATOM     22  O   UNL     1       5.848   4.218  17.942  0.00  0.00    +0.000 OA
ATOM     23  C   UNL     1       7.010   4.423  17.123  0.00  0.00    +0.000 C 
ATOM     24  C   UNL     1       7.489   5.865  17.302  0.00  0.00    +0.000 C 
ATOM     25  C   UNL     1       6.381   6.858  16.935  0.00  0.00    +0.000 C 
ATOM     26  C   UNL     1       5.079   6.569  17.715  0.00  0.00    +0.000 C 
BRANCH  24  27
ATOM     27  O   UNL     1       7.843   6.094  18.681  0.00  0.00    +0.000 OA
ATOM     28  H   UNL     1       8.508   6.812  18.699  0.00  0.00    +0.000 HD
ENDBRANCH  24  27
BRANCH  25  29
ATOM     29  O   UNL     1       6.833   8.193  17.198  0.00  0.00    +0.000 OA
ATOM     30  H   UNL     1       6.365   8.771  16.561  0.00  0.00    +0.000 HD
ENDBRANCH  25  29
BRANCH  26  31
ATOM     31  O   UNL     1       3.996   7.369  17.215  0.00  0.00    +0.000 OA
ATOM     32  H   UNL     1       3.809   8.082  17.852  0.00  0.00    +0.000 HD
ENDBRANCH  26  31
BRANCH  23  33
ATOM     33  C   UNL     1       6.799   4.032  15.649  0.00  0.00    +0.000 C 
BRANCH  33  34
ATOM     34  O   UNL     1       7.590   4.825  14.771  0.00  0.00    +0.000 OA
ATOM     35  H   UNL     1       8.045   5.510  15.291  0.00  0.00    +0.000 HD
ENDBRANCH  33  34
ENDBRANCH  23  33
ENDBRANCH  20  21
ENDBRANCH   6  20
TORSDOF 11
ENDMDL
MODEL 7
REMARK VINA RESULT:      -6.1      1.861      3.146
REMARK  Name = 
REMARK  11 active torsions:
REMARK  status: ('A' for Active; 'I' for Inactive)
REMARK    1  A    between atoms: C_2  and  O_3
REMARK    2  A    between atoms: C_2  and  C_4
REMARK    3  A    between atoms: C_8  and  O_10
REMARK    4  A    between atoms: O_10  and  C_11
REMARK    5  A    between atoms: C_16  and  O_17
REMARK    6  A    between atoms: O_17  and  C_18
REMARK    7  A    between atoms: C_20  and  C_21
REMARK    8  A    between atoms: C_21  and  O_22
REMARK    9  A    between atoms: C_23  and  O_24
REMARK   10  A    between atoms: C_25  and  O_26
REMARK   11  A    between atoms: C_27  and  O_28
REMARK                            x       y       z     vdW  Elec       q    Type
REMARK                         _______ _______ _______ _____ _____    ______ ____
ROOT
ATOM      1  C   UNL     1       2.243   5.456  19.338  0.00  0.00    +0.000 C 
ATOM      2  C   UNL     1       1.018   4.532  19.473  0.00  0.00    +0.000 C 
ATOM      3  C   UNL     1       1.304   3.228  20.207  0.00  0.00    +0.000 C 
ATOM      4  C   UNL     1       2.478   2.500  19.572  0.00  0.00    +0.000 C 
ATOM      5  C   UNL     1       3.727   3.375  19.611  0.00  0.00    +0.000 C 
ATOM      6  C   UNL     1       3.543   4.726  18.898  0.00  0.00    +0.000 C 
ENDROOT
BRANCH   1   7
ATOM      7  O   UNL     1       2.455   6.202  20.563  0.00  0.00    +0.000 OA
BRANCH   7  12
ATOM      8  C   UNL     1       1.039  10.182  17.959  0.00  0.00    +0.000 C 
ATOM      9  C   UNL     1      -0.015   9.778  18.999  0.00  0.00    +0.000 C 
ATOM     10  C   UNL     1       0.632   9.364  20.316  0.00  0.00    +0.000 C 
ATOM     11  N   UNL     1       1.601   8.304  20.090  0.00  0.00    +0.000 N 
ATOM     12  C   UNL     1       1.473   7.123  20.805  0.00  0.00    +0.000 C 
ATOM     13  O   UNL     1       0.533   6.928  21.569  0.00  0.00    +0.000 OA
ATOM     14  C   UNL     1       2.679   8.611  19.160  0.00  0.00    +0.000 C 
ATOM     15  C   UNL     1       2.110   9.083  17.816  0.00  0.00    +0.000 C 
BRANCH   8  17
ATOM     16  O   UNL     1       1.464  12.146  19.332  0.00  0.00    +0.000 OA
ATOM     17  C   UNL     1       1.656  11.531  18.294  0.00  0.00    +0.000 C 
BRANCH  17  18
ATOM     18  O   UNL     1       2.484  12.000  17.333  0.00  0.00    +0.000 OA
ATOM     19  H   UNL     1       3.353  12.302  17.653  0.00  0.00    +0.000 HD
ENDBRANCH  17  18
ENDBRANCH   8  17
ENDBRANCH   7  12
ENDBRANCH   1   7
BRANCH   6  20
ATOM     20  O   UNL     1       3.441   4.585  17.475  0.00  0.00    +0.000 OA
BRANCH  20  21
ATOM     21  C   UNL     1       4.573   4.833  16.641  0.00  0.00    +0.000 C 
ATOM     22  O   UNL     1       5.238   3.600  16.360  0.00  0.00    +0.000 OA
ATOM     23  C   UNL     1       6.277   3.680  15.372  0.00  0.00    +0.000 C 
ATOM     24  C   UNL     1       7.355   4.645  15.869  0.00  0.00    +0.000 C 
ATOM     25  C   UNL     1       6.761   6.030  16.148  0.00  0.00    +0.000 C 
ATOM     26  C   UNL     1       5.555   5.946  17.112  0.00  0.00    +0.000 C 
BRANCH  24  27
ATOM     27  O   UNL     1       7.919   4.153  17.102  0.00  0.00    +0.000 OA
ATOM     28  H   UNL     1       7.810   3.181  17.108  0.00  0.00    +0.000 HD
ENDBRANCH  24  27
BRANCH  25  29
ATOM     29  O   UNL     1       7.777   6.881  16.696  0.00  0.00    +0.000 OA
ATOM     30  H   UNL     1       7.361   7.759  16.819  0.00  0.00    +0.000 HD
ENDBRANCH  25  29
BRANCH  26  31
ATOM     31  O   UNL     1       4.885   7.213  17.202  0.00  0.00    +0.000 OA
ATOM     32  H   UNL     1       4.661   7.387  18.134  0.00  0.00    +0.000 HD
ENDBRANCH  26  31
BRANCH  23  33
ATOM     33  C   UNL     1       5.759   4.021  13.962  0.00  0.00    +0.000 C 
BRANCH  33  34
ATOM     34  O   UNL     1       6.201   3.077  12.993  0.00  0.00    +0.000 OA
ATOM     35  H   UNL     1       7.130   3.265  12.772  0.00  0.00    +0.000 HD
ENDBRANCH  33  34
ENDBRANCH  23  33
ENDBRANCH  20  21
ENDBRANCH   6  20
TORSDOF 11
ENDMDL
MODEL 8
REMARK VINA RESULT:      -6.1      2.687      8.506
REMARK  Name = 
REMARK  11 active torsions:
REMARK  status: ('A' for Active; 'I' for Inactive)
REMARK    1  A    between atoms: C_2  and  O_3
REMARK    2  A    between atoms: C_2  and  C_4
REMARK    3  A    between atoms: C_8  and  O_10
REMARK    4  A    between atoms: O_10  and  C_11
REMARK    5  A    between atoms: C_16  and  O_17
REMARK    6  A    between atoms: O_17  and  C_18
REMARK    7  A    between atoms: C_20  and  C_21
REMARK    8  A    between atoms: C_21  and  O_22
REMARK    9  A    between atoms: C_23  and  O_24
REMARK   10  A    between atoms: C_25  and  O_26
REMARK   11  A    between atoms: C_27  and  O_28
REMARK                            x       y       z     vdW  Elec       q    Type
REMARK                         _______ _______ _______ _____ _____    ______ ____
ROOT
ATOM      1  C   UNL     1       1.519   9.358  20.470  0.00  0.00    +0.000 C 
ATOM      2  C   UNL     1       1.271   8.733  21.857  0.00  0.00    +0.000 C 
ATOM      3  C   UNL     1      -0.184   8.772  22.303  0.00  0.00    +0.000 C 
ATOM      4  C   UNL     1      -0.731  10.189  22.230  0.00  0.00    +0.000 C 
ATOM      5  C   UNL     1      -0.635  10.720  20.803  0.00  0.00    +0.000 C 
ATOM      6  C   UNL     1       0.801  10.719  20.251  0.00  0.00    +0.000 C 
ENDROOT
BRANCH   1   7
ATOM      7  O   UNL     1       1.180   8.416  19.421  0.00  0.00    +0.000 OA
BRANCH   7  12
ATOM      8  C   UNL     1       3.628   4.279  18.188  0.00  0.00    +0.000 C 
ATOM      9  C   UNL     1       3.855   5.401  17.166  0.00  0.00    +0.000 C 
ATOM     10  C   UNL     1       4.034   6.751  17.852  0.00  0.00    +0.000 C 
ATOM     11  N   UNL     1       2.900   7.031  18.716  0.00  0.00    +0.000 N 
ATOM     12  C   UNL     1       2.202   8.215  18.533  0.00  0.00    +0.000 C 
ATOM     13  O   UNL     1       2.476   8.995  17.626  0.00  0.00    +0.000 OA
ATOM     14  C   UNL     1       2.635   6.051  19.760  0.00  0.00    +0.000 C 
ATOM     15  C   UNL     1       2.486   4.649  19.156  0.00  0.00    +0.000 C 
BRANCH   8  17
ATOM     16  O   UNL     1       6.004   4.427  18.690  0.00  0.00    +0.000 OA
ATOM     17  C   UNL     1       4.910   3.940  18.932  0.00  0.00    +0.000 C 
BRANCH  17  18
ATOM     18  O   UNL     1       4.734   3.049  19.934  0.00  0.00    +0.000 OA
ATOM     19  H   UNL     1       4.017   3.269  20.556  0.00  0.00    +0.000 HD
ENDBRANCH  17  18
ENDBRANCH   8  17
ENDBRANCH   7  12
ENDBRANCH   1   7
BRANCH   6  20
ATOM     20  O   UNL     1       1.633  11.698  20.887  0.00  0.00    +0.000 OA
BRANCH  20  21
ATOM     21  C   UNL     1       1.672  13.039  20.400  0.00  0.00    +0.000 C 
ATOM     22  O   UNL     1       1.195  13.072  19.054  0.00  0.00    +0.000 OA
ATOM     23  C   UNL     1       0.997  14.386  18.509  0.00  0.00    +0.000 C 
ATOM     24  C   UNL     1       2.336  15.125  18.508  0.00  0.00    +0.000 C 
ATOM     25  C   UNL     1       2.918  15.204  19.923  0.00  0.00    +0.000 C 
ATOM     26  C   UNL     1       3.017  13.805  20.574  0.00  0.00    +0.000 C 
BRANCH  24  27
ATOM     27  O   UNL     1       3.283  14.416  17.683  0.00  0.00    +0.000 OA
ATOM     28  H   UNL     1       3.615  15.044  17.010  0.00  0.00    +0.000 HD
ENDBRANCH  24  27
BRANCH  25  29
ATOM     29  O   UNL     1       4.211  15.822  19.872  0.00  0.00    +0.000 OA
ATOM     30  H   UNL     1       4.079  16.697  19.452  0.00  0.00    +0.000 HD
ENDBRANCH  25  29
BRANCH  26  31
ATOM     31  O   UNL     1       3.367  13.912  21.963  0.00  0.00    +0.000 OA
ATOM     32  H   UNL     1       4.291  14.214  22.035  0.00  0.00    +0.000 HD
ENDBRANCH  26  31
BRANCH  23  33
ATOM     33  C   UNL     1      -0.131  15.174  19.203  0.00  0.00    +0.000 C 
BRANCH  33  34
ATOM     34  O   UNL     1      -0.687  16.167  18.347  0.00  0.00    +0.000 OA
ATOM     35  H   UNL     1      -0.352  17.039  18.619  0.00  0.00    +0.000 HD
ENDBRANCH  33  34
ENDBRANCH  23  33
ENDBRANCH  20  21
ENDBRANCH   6  20
TORSDOF 11
ENDMDL
MODEL 9
REMARK VINA RESULT:      -6.1      2.886      8.997
REMARK  Name = 
REMARK  11 active torsions:
REMARK  status: ('A' for Active; 'I' for Inactive)
REMARK    1  A    between atoms: C_2  and  O_3
REMARK    2  A    between atoms: C_2  and  C_4
REMARK    3  A    between atoms: C_8  and  O_10
REMARK    4  A    between atoms: O_10  and  C_11
REMARK    5  A    between atoms: C_16  and  O_17
REMARK    6  A    between atoms: O_17  and  C_18
REMARK    7  A    between atoms: C_20  and  C_21
REMARK    8  A    between atoms: C_21  and  O_22
REMARK    9  A    between atoms: C_23  and  O_24
REMARK   10  A    between atoms: C_25  and  O_26
REMARK   11  A    between atoms: C_27  and  O_28
REMARK                            x       y       z     vdW  Elec       q    Type
REMARK                         _______ _______ _______ _____ _____    ______ ____
ROOT
ATOM      1  C   UNL     1       1.377   9.525  21.204  0.00  0.00    +0.000 C 
ATOM      2  C   UNL     1       1.248   9.209  22.706  0.00  0.00    +0.000 C 
ATOM      3  C   UNL     1      -0.162   9.381  23.256  0.00  0.00    +0.000 C 
ATOM      4  C   UNL     1      -0.700  10.766  22.935  0.00  0.00    +0.000 C 
ATOM      5  C   UNL     1      -0.726  10.987  21.425  0.00  0.00    +0.000 C 
ATOM      6  C   UNL     1       0.655  10.831  20.767  0.00  0.00    +0.000 C 
ENDROOT
BRANCH   1   7
ATOM      7  O   UNL     1       0.938   8.397  20.407  0.00  0.00    +0.000 OA
BRANCH   7  12
ATOM      8  C   UNL     1       2.272   3.851  18.928  0.00  0.00    +0.000 C 
ATOM      9  C   UNL     1       2.762   4.933  17.956  0.00  0.00    +0.000 C 
ATOM     10  C   UNL     1       3.276   6.160  18.701  0.00  0.00    +0.000 C 
ATOM     11  N   UNL     1       2.254   6.668  19.601  0.00  0.00    +0.000 N 
ATOM     12  C   UNL     1       1.870   7.995  19.490  0.00  0.00    +0.000 C 
ATOM     13  O   UNL     1       2.321   8.728  18.615  0.00  0.00    +0.000 OA
ATOM     14  C   UNL     1       1.763   5.731  20.603  0.00  0.00    +0.000 C 
ATOM     15  C   UNL     1       1.266   4.443  19.935  0.00  0.00    +0.000 C 
BRANCH   8  17
ATOM     16  O   UNL     1       3.406   2.742  20.772  0.00  0.00    +0.000 OA
ATOM     17  C   UNL     1       3.436   3.168  19.628  0.00  0.00    +0.000 C 
BRANCH  17  18
ATOM     18  O   UNL     1       4.535   3.041  18.850  0.00  0.00    +0.000 OA
ATOM     19  H   UNL     1       4.355   2.972  17.895  0.00  0.00    +0.000 HD
ENDBRANCH  17  18
ENDBRANCH   8  17
ENDBRANCH   7  12
ENDBRANCH   1   7
BRANCH   6  20
ATOM     20  O   UNL     1       1.550  11.897  21.111  0.00  0.00    +0.000 OA
BRANCH  20  21
ATOM     21  C   UNL     1       1.173  13.257  20.892  0.00  0.00    +0.000 C 
ATOM     22  O   UNL     1       0.433  13.356  19.674  0.00  0.00    +0.000 OA
ATOM     23  C   UNL     1      -0.175  14.634  19.433  0.00  0.00    +0.000 C 
ATOM     24  C   UNL     1       0.925  15.695  19.355  0.00  0.00    +0.000 C 
ATOM     25  C   UNL     1       1.752  15.720  20.644  0.00  0.00    +0.000 C 
ATOM     26  C   UNL     1       2.308  14.319  20.988  0.00  0.00    +0.000 C 
BRANCH  24  27
ATOM     27  O   UNL     1       1.819  15.391  18.265  0.00  0.00    +0.000 OA
ATOM     28  H   UNL     1       1.316  15.494  17.433  0.00  0.00    +0.000 HD
ENDBRANCH  24  27
BRANCH  25  29
ATOM     29  O   UNL     1       2.826  16.660  20.501  0.00  0.00    +0.000 OA
ATOM     30  H   UNL     1       2.537  17.476  20.960  0.00  0.00    +0.000 HD
ENDBRANCH  25  29
BRANCH  26  31
ATOM     31  O   UNL     1       2.904  14.313  22.295  0.00  0.00    +0.000 OA
ATOM     32  H   UNL     1       2.204  14.433  22.962  0.00  0.00    +0.000 HD
ENDBRANCH  26  31
BRANCH  23  33
ATOM     33  C   UNL     1      -1.286  14.984  20.440  0.00  0.00    +0.000 C 
BRANCH  33  34
ATOM     34  O   UNL     1      -2.547  14.456  20.041  0.00  0.00    +0.000 OA
ATOM     35  H   UNL     1      -2.404  13.789  19.348  0.00  0.00    +0.000 HD
ENDBRANCH  33  34
ENDBRANCH  23  33
ENDBRANCH  20  21
ENDBRANCH   6  20
TORSDOF 11
ENDMDL
