MODEL 1
REMARK VINA RESULT:      -9.0      0.000      0.000
REMARK  Name = 
REMARK  7 active torsions:
REMARK  status: ('A' for Active; 'I' for Inactive)
REMARK    1  A    between atoms: C_2  and  C_3
REMARK    2  A    between atoms: C_3  and  N_4
REMARK    3  A    between atoms: N_4  and  C_5
REMARK    4  A    between atoms: N_4  and  S_11
REMARK    5  A    between atoms: S_11  and  C_14
REMARK    6  A    between atoms: N_23  and  C_24
REMARK    7  A    between atoms: C_24  and  C_25
REMARK                            x       y       z     vdW  Elec       q    Type
REMARK                         _______ _______ _______ _____ _____    ______ ____
ROOT
ATOM      1  O   UNL     1       2.542   8.226  17.271  0.00  0.00    +0.000 OA
ATOM      2  C   UNL     1       2.234   8.070  18.458  0.00  0.00    +0.000 C 
ATOM      3  N   UNL     1       1.574   9.070  19.167  0.00  0.00    +0.000 N 
ATOM      4  C   UNL     1       1.133   8.989  20.568  0.00  0.00    +0.000 C 
ATOM      5  C   UNL     1       1.085  10.381  21.256  0.00  0.00    +0.000 C 
ATOM      6  N   UNL     1       0.376  11.442  20.504  0.00  0.00    +0.000 NA
ATOM      7  C   UNL     1       0.956  11.491  19.143  0.00  0.00    +0.000 C 
ATOM      8  C   UNL     1       0.958  10.152  18.389  0.00  0.00    +0.000 C 
ENDROOT
BRANCH   2   9
ATOM      9  C   UNL     1       2.562   6.736  19.137  0.00  0.00    +0.000 C 
BRANCH   9  10
ATOM     10  N   UNL     1       3.290   5.863  18.189  0.00  0.00    +0.000 N 
BRANCH  10  11
ATOM     11  C   UNL     1       4.721   5.990  18.110  0.00  0.00    +0.000 A 
ATOM     12  C   UNL     1       5.482   5.504  19.177  0.00  0.00    +0.000 A 
ATOM     13  C   UNL     1       6.877   5.559  19.135  0.00  0.00    +0.000 A 
ATOM     14  C   UNL     1       7.516   6.108  18.031  0.00  0.00    +0.000 A 
ATOM     15  C   UNL     1       6.768   6.609  16.969  0.00  0.00    +0.000 A 
ATOM     16  C   UNL     1       5.363   6.555  17.008  0.00  0.00    +0.000 A 
ENDBRANCH  10  11
BRANCH  10  17
ATOM     17  S   UNL     1       2.585   4.398  17.735  0.00  0.00    +0.000 S 
ATOM     18  O   UNL     1       1.260   4.688  17.225  0.00  0.00    +0.000 OA
ATOM     19  O   UNL     1       3.528   3.664  16.916  0.00  0.00    +0.000 OA
BRANCH  17  20
ATOM     20  C   UNL     1       2.378   3.479  19.249  0.00  0.00    +0.000 A 
ATOM     21  C   UNL     1       3.492   2.907  19.878  0.00  0.00    +0.000 A 
ATOM     22  C   UNL     1       3.349   2.331  21.146  0.00  0.00    +0.000 A 
ATOM     23  C   UNL     1       2.108   2.333  21.783  0.00  0.00    +0.000 A 
ATOM     24  C   UNL     1       1.001   2.912  21.163  0.00  0.00    +0.000 A 
ATOM     25  C   UNL     1       1.135   3.493  19.898  0.00  0.00    +0.000 A 
ENDBRANCH  17  20
ENDBRANCH  10  17
ENDBRANCH   9  10
ENDBRANCH   2   9
BRANCH   6  26
ATOM     26  C   UNL     1      -1.086  11.230  20.554  0.00  0.00    +0.000 C 
BRANCH  26  27
ATOM     27  C   UNL     1      -1.814  12.228  21.435  0.00  0.00    +0.000 A 
ATOM     28  C   UNL     1      -2.120  13.530  20.968  0.00  0.00    +0.000 A 
ATOM     29  C   UNL     1      -3.039  14.338  21.646  0.00  0.00    +0.000 A 
ATOM     30  C   UNL     1      -3.659  13.789  22.746  0.00  0.00    +0.000 A 
ATOM     31  C   UNL     1      -3.294  12.561  23.253  0.00  0.00    +0.000 A 
ATOM     32  C   UNL     1      -2.336  11.780  22.659  0.00  0.00    +0.000 A 
ATOM     33  O   UNL     1      -4.111  12.162  24.270  0.00  0.00    +0.000 OA
ATOM     34  C   UNL     1      -5.204  13.069  24.031  0.00  0.00    +0.000 C 
ATOM     35  O   UNL     1      -4.766  14.279  23.376  0.00  0.00    +0.000 OA
ENDBRANCH  26  27
ENDBRANCH   6  26
TORSDOF 7
ENDMDL
MODEL 2
REMARK VINA RESULT:      -8.5      1.045      1.522
REMARK  Name = 
REMARK  7 active torsions:
REMARK  status: ('A' for Active; 'I' for Inactive)
REMARK    1  A    between atoms: C_2  and  C_3
REMARK    2  A    between atoms: C_3  and  N_4
REMARK    3  A    between atoms: N_4  and  C_5
REMARK    4  A    between atoms: N_4  and  S_11
REMARK    5  A    between atoms: S_11  and  C_14
REMARK    6  A    between atoms: N_23  and  C_24
REMARK    7  A    between atoms: C_24  and  C_25
REMARK                            x       y       z     vdW  Elec       q    Type
REMARK                         _______ _______ _______ _____ _____    ______ ____
ROOT
ATOM      1  O   UNL     1       2.393   8.154  17.320  0.00  0.00    +0.000 OA
ATOM      2  C   UNL     1       2.171   8.019  18.529  0.00  0.00    +0.000 C 
ATOM      3  N   UNL     1       1.529   9.018  19.258  0.00  0.00    +0.000 N 
ATOM      4  C   UNL     1       1.188   8.961  20.687  0.00  0.00    +0.000 C 
ATOM      5  C   UNL     1       1.143  10.368  21.343  0.00  0.00    +0.000 C 
ATOM      6  N   UNL     1       0.352  11.387  20.616  0.00  0.00    +0.000 NA
ATOM      7  C   UNL     1       0.835  11.418  19.217  0.00  0.00    +0.000 C 
ATOM      8  C   UNL     1       0.828  10.060  18.498  0.00  0.00    +0.000 C 
ENDROOT
BRANCH   2   9
ATOM      9  C   UNL     1       2.587   6.714  19.215  0.00  0.00    +0.000 C 
BRANCH   9  10
ATOM     10  N   UNL     1       3.307   5.854  18.250  0.00  0.00    +0.000 N 
BRANCH  10  11
ATOM     11  C   UNL     1       4.738   5.977  18.167  0.00  0.00    +0.000 A 
ATOM     12  C   UNL     1       5.275   6.661  17.073  0.00  0.00    +0.000 A 
ATOM     13  C   UNL     1       6.655   6.850  16.964  0.00  0.00    +0.000 A 
ATOM     14  C   UNL     1       7.503   6.349  17.943  0.00  0.00    +0.000 A 
ATOM     15  C   UNL     1       6.980   5.653  19.030  0.00  0.00    +0.000 A 
ATOM     16  C   UNL     1       5.592   5.461  19.142  0.00  0.00    +0.000 A 
ENDBRANCH  10  11
BRANCH  10  17
ATOM     17  S   UNL     1       2.595   4.399  17.777  0.00  0.00    +0.000 S 
ATOM     18  O   UNL     1       1.280   4.705  17.249  0.00  0.00    +0.000 OA
ATOM     19  O   UNL     1       3.542   3.662  16.966  0.00  0.00    +0.000 OA
BRANCH  17  20
ATOM     20  C   UNL     1       2.357   3.473  19.282  0.00  0.00    +0.000 A 
ATOM     21  C   UNL     1       3.447   2.836  19.891  0.00  0.00    +0.000 A 
ATOM     22  C   UNL     1       3.289   2.251  21.153  0.00  0.00    +0.000 A 
ATOM     23  C   UNL     1       2.056   2.309  21.804  0.00  0.00    +0.000 A 
ATOM     24  C   UNL     1       0.974   2.953  21.205  0.00  0.00    +0.000 A 
ATOM     25  C   UNL     1       1.124   3.542  19.945  0.00  0.00    +0.000 A 
ENDBRANCH  17  20
ENDBRANCH  10  17
ENDBRANCH   9  10
ENDBRANCH   2   9
BRANCH   6  26
ATOM     26  C   UNL     1      -1.096  11.133  20.772  0.00  0.00    +0.000 C 
BRANCH  26  27
ATOM     27  C   UNL     1      -1.807  12.173  21.618  0.00  0.00    +0.000 A 
ATOM     28  C   UNL     1      -1.243  12.640  22.831  0.00  0.00    +0.000 A 
ATOM     29  C   UNL     1      -1.732  13.795  23.451  0.00  0.00    +0.000 A 
ATOM     30  C   UNL     1      -2.742  14.471  22.804  0.00  0.00    +0.000 A 
ATOM     31  C   UNL     1      -3.352  13.966  21.675  0.00  0.00    +0.000 A 
ATOM     32  C   UNL     1      -2.951  12.792  21.091  0.00  0.00    +0.000 A 
ATOM     33  O   UNL     1      -4.243  14.846  21.136  0.00  0.00    +0.000 OA
ATOM     34  C   UNL     1      -3.796  16.038  21.810  0.00  0.00    +0.000 C 
ATOM     35  O   UNL     1      -3.169  15.738  23.075  0.00  0.00    +0.000 OA
ENDBRANCH  26  27
ENDBRANCH   6  26
TORSDOF 7
ENDMDL
MODEL 3
REMARK VINA RESULT:      -8.3      1.447      1.994
REMARK  Name = 
REMARK  7 active torsions:
REMARK  status: ('A' for Active; 'I' for Inactive)
REMARK    1  A    between atoms: C_2  and  C_3
REMARK    2  A    between atoms: C_3  and  N_4
REMARK    3  A    between atoms: N_4  and  C_5
REMARK    4  A    between atoms: N_4  and  S_11
REMARK    5  A    between atoms: S_11  and  C_14
REMARK    6  A    between atoms: N_23  and  C_24
REMARK    7  A    between atoms: C_24  and  C_25
REMARK                            x       y       z     vdW  Elec       q    Type
REMARK                         _______ _______ _______ _____ _____    ______ ____
ROOT
ATOM      1  O   UNL     1       3.794   7.853  16.975  0.00  0.00    +0.000 OA
ATOM      2  C   UNL     1       3.200   7.574  18.023  0.00  0.00    +0.000 C 
ATOM      3  N   UNL     1       2.281   8.457  18.585  0.00  0.00    +0.000 N 
ATOM      4  C   UNL     1       1.496   8.225  19.807  0.00  0.00    +0.000 C 
ATOM      5  C   UNL     1       1.131   9.546  20.538  0.00  0.00    +0.000 C 
ATOM      6  N   UNL     1       0.546  10.607  19.686  0.00  0.00    +0.000 NA
ATOM      7  C   UNL     1       1.457  10.816  18.538  0.00  0.00    +0.000 C 
ATOM      8  C   UNL     1       1.790   9.548  17.735  0.00  0.00    +0.000 C 
ENDROOT
BRANCH   2   9
ATOM      9  C   UNL     1       3.466   6.218  18.684  0.00  0.00    +0.000 C 
BRANCH   9  10
ATOM     10  N   UNL     1       3.572   5.171  17.644  0.00  0.00    +0.000 N 
BRANCH  10  11
ATOM     11  C   UNL     1       4.851   4.960  17.020  0.00  0.00    +0.000 A 
ATOM     12  C   UNL     1       4.925   5.055  15.628  0.00  0.00    +0.000 A 
ATOM     13  C   UNL     1       6.149   4.906  14.972  0.00  0.00    +0.000 A 
ATOM     14  C   UNL     1       7.302   4.650  15.704  0.00  0.00    +0.000 A 
ATOM     15  C   UNL     1       7.237   4.538  17.090  0.00  0.00    +0.000 A 
ATOM     16  C   UNL     1       6.006   4.689  17.753  0.00  0.00    +0.000 A 
ENDBRANCH  10  11
BRANCH  10  17
ATOM     17  S   UNL     1       2.467   3.896  17.666  0.00  0.00    +0.000 S 
ATOM     18  O   UNL     1       1.181   4.422  17.255  0.00  0.00    +0.000 OA
ATOM     19  O   UNL     1       3.044   2.770  16.960  0.00  0.00    +0.000 OA
BRANCH  17  20
ATOM     20  C   UNL     1       2.320   3.422  19.379  0.00  0.00    +0.000 A 
ATOM     21  C   UNL     1       1.073   3.484  20.017  0.00  0.00    +0.000 A 
ATOM     22  C   UNL     1       0.930   2.957  21.307  0.00  0.00    +0.000 A 
ATOM     23  C   UNL     1       2.019   2.368  21.949  0.00  0.00    +0.000 A 
ATOM     24  C   UNL     1       3.257   2.295  21.311  0.00  0.00    +0.000 A 
ATOM     25  C   UNL     1       3.408   2.816  20.021  0.00  0.00    +0.000 A 
ENDBRANCH  17  20
ENDBRANCH  10  17
ENDBRANCH   9  10
ENDBRANCH   2   9
BRANCH   6  26
ATOM     26  C   UNL     1      -0.849  10.278  19.326  0.00  0.00    +0.000 C 
BRANCH  26  27
ATOM     27  C   UNL     1      -1.840  11.374  19.671  0.00  0.00    +0.000 A 
ATOM     28  C   UNL     1      -2.995  11.591  18.879  0.00  0.00    +0.000 A 
ATOM     29  C   UNL     1      -4.049  12.381  19.351  0.00  0.00    +0.000 A 
ATOM     30  C   UNL     1      -3.928  12.887  20.626  0.00  0.00    +0.000 A 
ATOM     31  C   UNL     1      -2.767  12.753  21.357  0.00  0.00    +0.000 A 
ATOM     32  C   UNL     1      -1.684  12.055  20.888  0.00  0.00    +0.000 A 
ATOM     33  O   UNL     1      -2.904  13.226  22.629  0.00  0.00    +0.000 OA
ATOM     34  C   UNL     1      -4.342  13.268  22.685  0.00  0.00    +0.000 C 
ATOM     35  O   UNL     1      -4.928  13.436  21.375  0.00  0.00    +0.000 OA
ENDBRANCH  26  27
ENDBRANCH   6  26
TORSDOF 7
ENDMDL
MODEL 4
REMARK VINA RESULT:      -8.2      0.936      1.643
REMARK  Name = 
REMARK  7 active torsions:
REMARK  status: ('A' for Active; 'I' for Inactive)
REMARK    1  A    between atoms: C_2  and  C_3
REMARK    2  A    between atoms: C_3  and  N_4
REMARK    3  A    between atoms: N_4  and  C_5
REMARK    4  A    between atoms: N_4  and  S_11
REMARK    5  A    between atoms: S_11  and  C_14
REMARK    6  A    between atoms: N_23  and  C_24
REMARK    7  A    between atoms: C_24  and  C_25
REMARK                            x       y       z     vdW  Elec       q    Type
REMARK                         _______ _______ _______ _____ _____    ______ ____
ROOT
ATOM      1  O   UNL     1       2.573   8.267  17.182  0.00  0.00    +0.000 OA
ATOM      2  C   UNL     1       2.260   8.156  18.373  0.00  0.00    +0.000 C 
ATOM      3  N   UNL     1       1.538   9.155  19.023  0.00  0.00    +0.000 N 
ATOM      4  C   UNL     1       1.087   9.124  20.422  0.00  0.00    +0.000 C 
ATOM      5  C   UNL     1       0.956  10.545  21.035  0.00  0.00    +0.000 C 
ATOM      6  N   UNL     1       0.199  11.524  20.222  0.00  0.00    +0.000 NA
ATOM      7  C   UNL     1       0.790  11.534  18.864  0.00  0.00    +0.000 C 
ATOM      8  C   UNL     1       0.874  10.159  18.183  0.00  0.00    +0.000 C 
ENDROOT
BRANCH   2   9
ATOM      9  C   UNL     1       2.653   6.880  19.124  0.00  0.00    +0.000 C 
BRANCH   9  10
ATOM     10  N   UNL     1       3.318   5.942  18.193  0.00  0.00    +0.000 N 
BRANCH  10  11
ATOM     11  C   UNL     1       4.742   6.053  18.018  0.00  0.00    +0.000 A 
ATOM     12  C   UNL     1       5.566   5.623  19.060  0.00  0.00    +0.000 A 
ATOM     13  C   UNL     1       6.956   5.664  18.928  0.00  0.00    +0.000 A 
ATOM     14  C   UNL     1       7.526   6.146  17.756  0.00  0.00    +0.000 A 
ATOM     15  C   UNL     1       6.714   6.592  16.717  0.00  0.00    +0.000 A 
ATOM     16  C   UNL     1       5.315   6.550  16.847  0.00  0.00    +0.000 A 
ENDBRANCH  10  11
BRANCH  10  17
ATOM     17  S   UNL     1       2.582   4.455  17.882  0.00  0.00    +0.000 S 
ATOM     18  O   UNL     1       1.251   4.721  17.376  0.00  0.00    +0.000 OA
ATOM     19  O   UNL     1       3.496   3.638  17.110  0.00  0.00    +0.000 OA
BRANCH  17  20
ATOM     20  C   UNL     1       2.395   3.673  19.474  0.00  0.00    +0.000 A 
ATOM     21  C   UNL     1       1.132   3.612  20.079  0.00  0.00    +0.000 A 
ATOM     22  C   UNL     1       0.960   2.856  21.245  0.00  0.00    +0.000 A 
ATOM     23  C   UNL     1       2.038   2.162  21.797  0.00  0.00    +0.000 A 
ATOM     24  C   UNL     1       3.292   2.212  21.189  0.00  0.00    +0.000 A 
ATOM     25  C   UNL     1       3.471   2.962  20.022  0.00  0.00    +0.000 A 
ENDBRANCH  17  20
ENDBRANCH  10  17
ENDBRANCH   9  10
ENDBRANCH   2   9
BRANCH   6  26
ATOM     26  C   UNL     1      -1.250  11.236  20.271  0.00  0.00    +0.000 C 
BRANCH  26  27
ATOM     27  C   UNL     1      -2.032  12.200  21.143  0.00  0.00    +0.000 A 
ATOM     28  C   UNL     1      -1.913  12.172  22.554  0.00  0.00    +0.000 A 
ATOM     29  C   UNL     1      -2.385  13.232  23.335  0.00  0.00    +0.000 A 
ATOM     30  C   UNL     1      -2.918  14.311  22.666  0.00  0.00    +0.000 A 
ATOM     31  C   UNL     1      -3.118  14.298  21.302  0.00  0.00    +0.000 A 
ATOM     32  C   UNL     1      -2.742  13.237  20.518  0.00  0.00    +0.000 A 
ATOM     33  O   UNL     1      -3.548  15.505  20.834  0.00  0.00    +0.000 OA
ATOM     34  C   UNL     1      -3.191  16.311  21.973  0.00  0.00    +0.000 C 
ATOM     35  O   UNL     1      -3.176  15.542  23.195  0.00  0.00    +0.000 OA
ENDBRANCH  26  27
ENDBRANCH   6  26
TORSDOF 7
ENDMDL
MODEL 5
REMARK VINA RESULT:      -8.0      3.492      5.726
REMARK  Name = 
REMARK  7 active torsions:
REMARK  status: ('A' for Active; 'I' for Inactive)
REMARK    1  A    between atoms: C_2  and  C_3
REMARK    2  A    between atoms: C_3  and  N_4
REMARK    3  A    between atoms: N_4  and  C_5
REMARK    4  A    between atoms: N_4  and  S_11
REMARK    5  A    between atoms: S_11  and  C_14
REMARK    6  A    between atoms: N_23  and  C_24
REMARK    7  A    between atoms: C_24  and  C_25
REMARK                            x       y       z     vdW  Elec       q    Type
REMARK                         _______ _______ _______ _____ _____    ______ ____
ROOT
ATOM      1  O   UNL     1       1.788   6.302  20.612  0.00  0.00    +0.000 OA
ATOM      2  C   UNL     1       2.229   7.017  19.705  0.00  0.00    +0.000 C 
ATOM      3  N   UNL     1       1.800   8.333  19.553  0.00  0.00    +0.000 N 
ATOM      4  C   UNL     1       2.271   9.283  18.534  0.00  0.00    +0.000 C 
ATOM      5  C   UNL     1       1.195  10.343  18.169  0.00  0.00    +0.000 C 
ATOM      6  N   UNL     1       0.552  11.022  19.317  0.00  0.00    +0.000 NA
ATOM      7  C   UNL     1       0.043   9.975  20.232  0.00  0.00    +0.000 C 
ATOM      8  C   UNL     1       1.088   8.943  20.683  0.00  0.00    +0.000 C 
ENDROOT
BRANCH   2   9
ATOM      9  C   UNL     1       3.288   6.440  18.760  0.00  0.00    +0.000 C 
BRANCH   9  10
ATOM     10  N   UNL     1       3.719   5.112  19.249  0.00  0.00    +0.000 N 
BRANCH  10  11
ATOM     11  C   UNL     1       2.728   4.075  19.364  0.00  0.00    +0.000 A 
ATOM     12  C   UNL     1       2.544   3.479  20.614  0.00  0.00    +0.000 A 
ATOM     13  C   UNL     1       1.564   2.500  20.794  0.00  0.00    +0.000 A 
ATOM     14  C   UNL     1       0.773   2.106  19.723  0.00  0.00    +0.000 A 
ATOM     15  C   UNL     1       0.958   2.682  18.469  0.00  0.00    +0.000 A 
ATOM     16  C   UNL     1       1.943   3.669  18.285  0.00  0.00    +0.000 A 
ENDBRANCH  10  11
BRANCH  10  17
ATOM     17  S   UNL     1       5.335   4.663  19.051  0.00  0.00    +0.000 S 
ATOM     18  O   UNL     1       6.151   5.654  19.723  0.00  0.00    +0.000 OA
ATOM     19  O   UNL     1       5.472   3.263  19.397  0.00  0.00    +0.000 OA
BRANCH  17  20
ATOM     20  C   UNL     1       5.660   4.809  17.304  0.00  0.00    +0.000 A 
ATOM     21  C   UNL     1       6.803   5.488  16.859  0.00  0.00    +0.000 A 
ATOM     22  C   UNL     1       7.139   5.458  15.501  0.00  0.00    +0.000 A 
ATOM     23  C   UNL     1       6.347   4.749  14.597  0.00  0.00    +0.000 A 
ATOM     24  C   UNL     1       5.217   4.063  15.040  0.00  0.00    +0.000 A 
ATOM     25  C   UNL     1       4.875   4.086  16.396  0.00  0.00    +0.000 A 
ENDBRANCH  17  20
ENDBRANCH  10  17
ENDBRANCH   9  10
ENDBRANCH   2   9
BRANCH   6  26
ATOM     26  C   UNL     1       1.479  11.995  19.935  0.00  0.00    +0.000 C 
BRANCH  26  27
ATOM     27  C   UNL     1       1.597  13.296  19.162  0.00  0.00    +0.000 A 
ATOM     28  C   UNL     1       0.626  14.319  19.299  0.00  0.00    +0.000 A 
ATOM     29  C   UNL     1       0.880  15.614  18.835  0.00  0.00    +0.000 A 
ATOM     30  C   UNL     1       2.123  15.851  18.293  0.00  0.00    +0.000 A 
ATOM     31  C   UNL     1       3.030  14.836  18.077  0.00  0.00    +0.000 A 
ATOM     32  C   UNL     1       2.777  13.539  18.444  0.00  0.00    +0.000 A 
ATOM     33  O   UNL     1       4.233  15.307  17.640  0.00  0.00    +0.000 OA
ATOM     34  C   UNL     1       4.065  16.689  18.010  0.00  0.00    +0.000 C 
ATOM     35  O   UNL     1       2.674  17.073  18.041  0.00  0.00    +0.000 OA
ENDBRANCH  26  27
ENDBRANCH   6  26
TORSDOF 7
ENDMDL
MODEL 6
REMARK VINA RESULT:      -8.0      1.061      1.470
REMARK  Name = 
REMARK  7 active torsions:
REMARK  status: ('A' for Active; 'I' for Inactive)
REMARK    1  A    between atoms: C_2  and  C_3
REMARK    2  A    between atoms: C_3  and  N_4
REMARK    3  A    between atoms: N_4  and  C_5
REMARK    4  A    between atoms: N_4  and  S_11
REMARK    5  A    between atoms: S_11  and  C_14
REMARK    6  A    between atoms: N_23  and  C_24
REMARK    7  A    between atoms: C_24  and  C_25
REMARK                            x       y       z     vdW  Elec       q    Type
REMARK                         _______ _______ _______ _____ _____    ______ ____
ROOT
ATOM      1  O   UNL     1       2.600   8.157  17.504  0.00  0.00    +0.000 OA
ATOM      2  C   UNL     1       2.213   8.119  18.679  0.00  0.00    +0.000 C 
ATOM      3  N   UNL     1       1.470   9.162  19.226  0.00  0.00    +0.000 N 
ATOM      4  C   UNL     1       0.934   9.216  20.595  0.00  0.00    +0.000 C 
ATOM      5  C   UNL     1       0.789  10.672  21.117  0.00  0.00    +0.000 C 
ATOM      6  N   UNL     1       0.098  11.612  20.205  0.00  0.00    +0.000 NA
ATOM      7  C   UNL     1       0.769  11.537  18.888  0.00  0.00    +0.000 C 
ATOM      8  C   UNL     1       0.873  10.124  18.292  0.00  0.00    +0.000 C 
ENDROOT
BRANCH   2   9
ATOM      9  C   UNL     1       2.540   6.883  19.523  0.00  0.00    +0.000 C 
BRANCH   9  10
ATOM     10  N   UNL     1       2.795   5.728  18.634  0.00  0.00    +0.000 N 
BRANCH  10  11
ATOM     11  C   UNL     1       4.139   5.509  18.171  0.00  0.00    +0.000 A 
ATOM     12  C   UNL     1       5.172   5.558  19.111  0.00  0.00    +0.000 A 
ATOM     13  C   UNL     1       6.491   5.308  18.727  0.00  0.00    +0.000 A 
ATOM     14  C   UNL     1       6.784   5.018  17.401  0.00  0.00    +0.000 A 
ATOM     15  C   UNL     1       5.765   4.983  16.452  0.00  0.00    +0.000 A 
ATOM     16  C   UNL     1       4.436   5.233  16.837  0.00  0.00    +0.000 A 
ENDBRANCH  10  11
BRANCH  10  17
ATOM     17  S   UNL     1       1.741   4.411  18.701  0.00  0.00    +0.000 S 
ATOM     18  O   UNL     1       0.868   4.604  19.841  0.00  0.00    +0.000 OA
ATOM     19  O   UNL     1       1.172   4.206  17.384  0.00  0.00    +0.000 OA
BRANCH  17  20
ATOM     20  C   UNL     1       2.767   2.996  19.055  0.00  0.00    +0.000 A 
ATOM     21  C   UNL     1       3.082   2.087  18.036  0.00  0.00    +0.000 A 
ATOM     22  C   UNL     1       4.017   1.074  18.278  0.00  0.00    +0.000 A 
ATOM     23  C   UNL     1       4.639   0.975  19.523  0.00  0.00    +0.000 A 
ATOM     24  C   UNL     1       4.336   1.887  20.534  0.00  0.00    +0.000 A 
ATOM     25  C   UNL     1       3.405   2.904  20.300  0.00  0.00    +0.000 A 
ENDBRANCH  17  20
ENDBRANCH  10  17
ENDBRANCH   9  10
ENDBRANCH   2   9
BRANCH   6  26
ATOM     26  C   UNL     1      -1.356  11.344  20.182  0.00  0.00    +0.000 C 
BRANCH  26  27
ATOM     27  C   UNL     1      -2.163  12.295  21.046  0.00  0.00    +0.000 A 
ATOM     28  C   UNL     1      -2.901  13.359  20.472  0.00  0.00    +0.000 A 
ATOM     29  C   UNL     1      -3.871  14.041  21.214  0.00  0.00    +0.000 A 
ATOM     30  C   UNL     1      -4.102  13.597  22.496  0.00  0.00    +0.000 A 
ATOM     31  C   UNL     1      -3.321  12.626  23.085  0.00  0.00    +0.000 A 
ATOM     32  C   UNL     1      -2.307  11.996  22.410  0.00  0.00    +0.000 A 
ATOM     33  O   UNL     1      -3.794  12.259  24.310  0.00  0.00    +0.000 OA
ATOM     34  C   UNL     1      -5.122  12.805  24.196  0.00  0.00    +0.000 C 
ATOM     35  O   UNL     1      -5.168  13.923  23.283  0.00  0.00    +0.000 OA
ENDBRANCH  26  27
ENDBRANCH   6  26
TORSDOF 7
ENDMDL
MODEL 7
REMARK VINA RESULT:      -8.0      2.108      4.300
REMARK  Name = 
REMARK  7 active torsions:
REMARK  status: ('A' for Active; 'I' for Inactive)
REMARK    1  A    between atoms: C_2  and  C_3
REMARK    2  A    between atoms: C_3  and  N_4
REMARK    3  A    between atoms: N_4  and  C_5
REMARK    4  A    between atoms: N_4  and  S_11
REMARK    5  A    between atoms: S_11  and  C_14
REMARK    6  A    between atoms: N_23  and  C_24
REMARK    7  A    between atoms: C_24  and  C_25
REMARK                            x       y       z     vdW  Elec       q    Type
REMARK                         _______ _______ _______ _____ _____    ______ ____
ROOT
ATOM      1  O   UNL     1       2.157   6.642  20.864  0.00  0.00    +0.000 OA
ATOM      2  C   UNL     1       2.303   7.177  19.758  0.00  0.00    +0.000 C 
ATOM      3  N   UNL     1       1.658   8.372  19.447  0.00  0.00    +0.000 N 
ATOM      4  C   UNL     1       1.775   9.113  18.182  0.00  0.00    +0.000 C 
ATOM      5  C   UNL     1       0.501   9.942  17.860  0.00  0.00    +0.000 C 
ATOM      6  N   UNL     1      -0.006  10.789  18.963  0.00  0.00    +0.000 NA
ATOM      7  C   UNL     1      -0.166   9.927  20.156  0.00  0.00    +0.000 C 
ATOM      8  C   UNL     1       1.091   9.141  20.562  0.00  0.00    +0.000 C 
ENDROOT
BRANCH   2   9
ATOM      9  C   UNL     1       3.236   6.519  18.737  0.00  0.00    +0.000 C 
BRANCH   9  10
ATOM     10  N   UNL     1       3.640   5.182  19.224  0.00  0.00    +0.000 N 
BRANCH  10  11
ATOM     11  C   UNL     1       2.633   4.159  19.315  0.00  0.00    +0.000 A 
ATOM     12  C   UNL     1       2.420   3.557  20.558  0.00  0.00    +0.000 A 
ATOM     13  C   UNL     1       1.423   2.591  20.715  0.00  0.00    +0.000 A 
ATOM     14  C   UNL     1       0.644   2.216  19.629  0.00  0.00    +0.000 A 
ATOM     15  C   UNL     1       0.858   2.797  18.382  0.00  0.00    +0.000 A 
ATOM     16  C   UNL     1       1.859   3.771  18.221  0.00  0.00    +0.000 A 
ENDBRANCH  10  11
BRANCH  10  17
ATOM     17  S   UNL     1       5.252   4.712  19.050  0.00  0.00    +0.000 S 
ATOM     18  O   UNL     1       6.072   5.697  19.726  0.00  0.00    +0.000 OA
ATOM     19  O   UNL     1       5.368   3.312  19.406  0.00  0.00    +0.000 OA
BRANCH  17  20
ATOM     20  C   UNL     1       5.601   4.841  17.306  0.00  0.00    +0.000 A 
ATOM     21  C   UNL     1       6.696   5.598  16.866  0.00  0.00    +0.000 A 
ATOM     22  C   UNL     1       7.063   5.563  15.515  0.00  0.00    +0.000 A 
ATOM     23  C   UNL     1       6.347   4.773  14.614  0.00  0.00    +0.000 A 
ATOM     24  C   UNL     1       5.265   4.011  15.053  0.00  0.00    +0.000 A 
ATOM     25  C   UNL     1       4.894   4.038  16.401  0.00  0.00    +0.000 A 
ENDBRANCH  17  20
ENDBRANCH  10  17
ENDBRANCH   9  10
ENDBRANCH   2   9
BRANCH   6  26
ATOM     26  C   UNL     1       0.863  11.969  19.157  0.00  0.00    +0.000 C 
BRANCH  26  27
ATOM     27  C   UNL     1       0.233  13.053  20.013  0.00  0.00    +0.000 A 
ATOM     28  C   UNL     1      -0.672  13.990  19.458  0.00  0.00    +0.000 A 
ATOM     29  C   UNL     1      -1.475  14.786  20.282  0.00  0.00    +0.000 A 
ATOM     30  C   UNL     1      -1.377  14.577  21.640  0.00  0.00    +0.000 A 
ATOM     31  C   UNL     1      -0.431  13.733  22.182  0.00  0.00    +0.000 A 
ATOM     32  C   UNL     1       0.428  13.002  21.402  0.00  0.00    +0.000 A 
ATOM     33  O   UNL     1      -0.585  13.587  23.528  0.00  0.00    +0.000 OA
ATOM     34  C   UNL     1      -1.929  14.092  23.643  0.00  0.00    +0.000 C 
ATOM     35  O   UNL     1      -2.244  15.029  22.591  0.00  0.00    +0.000 OA
ENDBRANCH  26  27
ENDBRANCH   6  26
TORSDOF 7
ENDMDL
MODEL 8
REMARK VINA RESULT:      -8.0      1.731      4.014
REMARK  Name = 
REMARK  7 active torsions:
REMARK  status: ('A' for Active; 'I' for Inactive)
REMARK    1  A    between atoms: C_2  and  C_3
REMARK    2  A    between atoms: C_3  and  N_4
REMARK    3  A    between atoms: N_4  and  C_5
REMARK    4  A    between atoms: N_4  and  S_11
REMARK    5  A    between atoms: S_11  and  C_14
REMARK    6  A    between atoms: N_23  and  C_24
REMARK    7  A    between atoms: C_24  and  C_25
REMARK                            x       y       z     vdW  Elec       q    Type
REMARK                         _______ _______ _______ _____ _____    ______ ____
ROOT
ATOM      1  O   UNL     1       2.785   6.276  20.162  0.00  0.00    +0.000 OA
ATOM      2  C   UNL     1       2.430   7.179  19.394  0.00  0.00    +0.000 C 
ATOM      3  N   UNL     1       1.556   8.178  19.814  0.00  0.00    +0.000 N 
ATOM      4  C   UNL     1       1.087   9.312  19.004  0.00  0.00    +0.000 C 
ATOM      5  C   UNL     1      -0.317   9.814  19.441  0.00  0.00    +0.000 C 
ATOM      6  N   UNL     1      -0.487  10.051  20.893  0.00  0.00    +0.000 NA
ATOM      7  C   UNL     1      -0.067   8.821  21.602  0.00  0.00    +0.000 C 
ATOM      8  C   UNL     1       1.346   8.325  21.260  0.00  0.00    +0.000 C 
ENDROOT
BRANCH   2   9
ATOM      9  C   UNL     1       2.996   7.201  17.971  0.00  0.00    +0.000 C 
BRANCH   9  10
ATOM     10  N   UNL     1       3.727   5.941  17.707  0.00  0.00    +0.000 N 
BRANCH  10  11
ATOM     11  C   UNL     1       3.063   4.698  17.996  0.00  0.00    +0.000 A 
ATOM     12  C   UNL     1       3.800   3.692  18.626  0.00  0.00    +0.000 A 
ATOM     13  C   UNL     1       3.195   2.482  18.972  0.00  0.00    +0.000 A 
ATOM     14  C   UNL     1       1.854   2.268  18.680  0.00  0.00    +0.000 A 
ATOM     15  C   UNL     1       1.114   3.258  18.038  0.00  0.00    +0.000 A 
ATOM     16  C   UNL     1       1.720   4.478  17.689  0.00  0.00    +0.000 A 
ENDBRANCH  10  11
BRANCH  10  17
ATOM     17  S   UNL     1       4.958   5.948  16.553  0.00  0.00    +0.000 S 
ATOM     18  O   UNL     1       5.121   4.589  16.077  0.00  0.00    +0.000 OA
ATOM     19  O   UNL     1       4.700   7.015  15.608  0.00  0.00    +0.000 OA
BRANCH  17  20
ATOM     20  C   UNL     1       6.443   6.379  17.441  0.00  0.00    +0.000 A 
ATOM     21  C   UNL     1       7.029   7.639  17.254  0.00  0.00    +0.000 A 
ATOM     22  C   UNL     1       8.095   8.033  18.072  0.00  0.00    +0.000 A 
ATOM     23  C   UNL     1       8.564   7.181  19.072  0.00  0.00    +0.000 A 
ATOM     24  C   UNL     1       7.975   5.933  19.267  0.00  0.00    +0.000 A 
ATOM     25  C   UNL     1       6.908   5.532  18.456  0.00  0.00    +0.000 A 
ENDBRANCH  17  20
ENDBRANCH  10  17
ENDBRANCH   9  10
ENDBRANCH   2   9
BRANCH   6  26
ATOM     26  C   UNL     1       0.218  11.283  21.307  0.00  0.00    +0.000 C 
BRANCH  26  27
ATOM     27  C   UNL     1      -0.598  12.168  22.231  0.00  0.00    +0.000 A 
ATOM     28  C   UNL     1      -0.435  13.575  22.229  0.00  0.00    +0.000 A 
ATOM     29  C   UNL     1      -1.376  14.407  22.844  0.00  0.00    +0.000 A 
ATOM     30  C   UNL     1      -2.479  13.798  23.399  0.00  0.00    +0.000 A 
ATOM     31  C   UNL     1      -2.592  12.427  23.482  0.00  0.00    +0.000 A 
ATOM     32  C   UNL     1      -1.643  11.583  22.963  0.00  0.00    +0.000 A 
ATOM     33  O   UNL     1      -3.808  12.039  23.961  0.00  0.00    +0.000 OA
ATOM     34  C   UNL     1      -4.517  13.277  23.763  0.00  0.00    +0.000 C 
ATOM     35  O   UNL     1      -3.630  14.416  23.793  0.00  0.00    +0.000 OA
ENDBRANCH  26  27
ENDBRANCH   6  26
TORSDOF 7
ENDMDL
MODEL 9
REMARK VINA RESULT:      -7.8      2.205      4.378
REMARK  Name = 
REMARK  7 active torsions:
REMARK  status: ('A' for Active; 'I' for Inactive)
REMARK    1  A    between atoms: C_2  and  C_3
REMARK    2  A    between atoms: C_3  and  N_4
REMARK    3  A    between atoms: N_4  and  C_5
REMARK    4  A    between atoms: N_4  and  S_11
REMARK    5  A    between atoms: S_11  and  C_14
REMARK    6  A    between atoms: N_23  and  C_24
REMARK    7  A    between atoms: C_24  and  C_25
REMARK                            x       y       z     vdW  Elec       q    Type
REMARK                         _______ _______ _______ _____ _____    ______ ____
ROOT
ATOM      1  O   UNL     1       2.073   6.605  21.009  0.00  0.00    +0.000 OA
ATOM      2  C   UNL     1       2.227   7.194  19.932  0.00  0.00    +0.000 C 
ATOM      3  N   UNL     1       1.547   8.377  19.656  0.00  0.00    +0.000 N 
ATOM      4  C   UNL     1       1.670   9.177  18.427  0.00  0.00    +0.000 C 
ATOM      5  C   UNL     1       0.375   9.975  18.107  0.00  0.00    +0.000 C 
ATOM      6  N   UNL     1      -0.190  10.754  19.232  0.00  0.00    +0.000 NA
ATOM      7  C   UNL     1      -0.349   9.835  20.382  0.00  0.00    +0.000 C 
ATOM      8  C   UNL     1       0.925   9.076  20.787  0.00  0.00    +0.000 C 
ENDROOT
BRANCH   2   9
ATOM      9  C   UNL     1       3.209   6.615  18.909  0.00  0.00    +0.000 C 
BRANCH   9  10
ATOM     10  N   UNL     1       3.614   5.254  19.325  0.00  0.00    +0.000 N 
BRANCH  10  11
ATOM     11  C   UNL     1       2.601   4.235  19.396  0.00  0.00    +0.000 A 
ATOM     12  C   UNL     1       1.958   3.866  18.212  0.00  0.00    +0.000 A 
ATOM     13  C   UNL     1       0.999   2.851  18.213  0.00  0.00    +0.000 A 
ATOM     14  C   UNL     1       0.672   2.208  19.400  0.00  0.00    +0.000 A 
ATOM     15  C   UNL     1       1.295   2.578  20.589  0.00  0.00    +0.000 A 
ATOM     16  C   UNL     1       2.262   3.598  20.590  0.00  0.00    +0.000 A 
ENDBRANCH  10  11
BRANCH  10  17
ATOM     17  S   UNL     1       5.217   4.780  19.089  0.00  0.00    +0.000 S 
ATOM     18  O   UNL     1       6.066   5.777  19.711  0.00  0.00    +0.000 OA
ATOM     19  O   UNL     1       5.349   3.387  19.465  0.00  0.00    +0.000 OA
BRANCH  17  20
ATOM     20  C   UNL     1       5.490   4.879  17.329  0.00  0.00    +0.000 A 
ATOM     21  C   UNL     1       5.601   3.704  16.572  0.00  0.00    +0.000 A 
ATOM     22  C   UNL     1       5.649   3.785  15.175  0.00  0.00    +0.000 A 
ATOM     23  C   UNL     1       5.578   5.025  14.541  0.00  0.00    +0.000 A 
ATOM     24  C   UNL     1       5.455   6.193  15.292  0.00  0.00    +0.000 A 
ATOM     25  C   UNL     1       5.404   6.122  16.688  0.00  0.00    +0.000 A 
ENDBRANCH  17  20
ENDBRANCH  10  17
ENDBRANCH   9  10
ENDBRANCH   2   9
BRANCH   6  26
ATOM     26  C   UNL     1       0.631  11.954  19.501  0.00  0.00    +0.000 C 
BRANCH  26  27
ATOM     27  C   UNL     1      -0.131  13.066  20.199  0.00  0.00    +0.000 A 
ATOM     28  C   UNL     1      -1.502  13.297  19.928  0.00  0.00    +0.000 A 
ATOM     29  C   UNL     1      -2.273  14.104  20.770  0.00  0.00    +0.000 A 
ATOM     30  C   UNL     1      -1.651  14.614  21.888  0.00  0.00    +0.000 A 
ATOM     31  C   UNL     1      -0.297  14.466  22.101  0.00  0.00    +0.000 A 
ATOM     32  C   UNL     1       0.503  13.751  21.248  0.00  0.00    +0.000 A 
ATOM     33  O   UNL     1       0.086  14.947  23.318  0.00  0.00    +0.000 OA
ATOM     34  C   UNL     1      -1.212  15.010  23.938  0.00  0.00    +0.000 C 
ATOM     35  O   UNL     1      -2.266  15.180  22.966  0.00  0.00    +0.000 OA
ENDBRANCH  26  27
ENDBRANCH   6  26
TORSDOF 7
ENDMDL
