MODEL 1
REMARK VINA RESULT:      -8.2      0.000      0.000
REMARK  Name = 
REMARK  7 active torsions:
REMARK  status: ('A' for Active; 'I' for Inactive)
REMARK    1  A    between atoms: N_1  and  S_2
REMARK    2  A    between atoms: S_2  and  C_5
REMARK    3  A    between atoms: C_7  and  C_8
REMARK    4  A    between atoms: C_8  and  O_10
REMARK    5  A    between atoms: C_13  and  N_14
REMARK    6  A    between atoms: N_14  and  C_15
REMARK    7  A    between atoms: C_19  and  C_20
REMARK                            x       y       z     vdW  Elec       q    Type
REMARK                         _______ _______ _______ _____ _____    ______ ____
ROOT
ATOM      1  C   UNL     1       3.745   4.424  17.427  0.00  0.00    +0.000 A 
ATOM      2  C   UNL     1       4.579   4.058  16.352  0.00  0.00    +0.000 A 
ATOM      3  C   UNL     1       5.720   4.810  16.084  0.00  0.00    +0.000 A 
ATOM      4  C   UNL     1       5.966   5.894  16.895  0.00  0.00    +0.000 A 
ATOM      5  N   UNL     1       5.175   6.241  17.940  0.00  0.00    +0.000 NA
ATOM      6  C   UNL     1       4.053   5.528  18.216  0.00  0.00    +0.000 A 
ENDROOT
BRANCH   1   7
ATOM      7  S   UNL     1       2.290   3.475  17.679  0.00  0.00    +0.000 S 
ATOM      8  O   UNL     1       2.496   2.163  17.113  0.00  0.00    +0.000 OA
ATOM      9  O   UNL     1       1.112   4.275  17.429  0.00  0.00    +0.000 OA
BRANCH   7  10
ATOM     10  N   UNL     1       2.286   3.251  19.351  0.00  0.00    +0.000 NA
ATOM     11  H   UNL     1       1.323   3.336  19.696  0.00  0.00    +0.000 HD
ATOM     12  H   UNL     1       2.907   3.946  19.772  0.00  0.00    +0.000 HD
ENDBRANCH   7  10
ENDBRANCH   1   7
BRANCH   3  13
ATOM     13  C   UNL     1       6.633   4.554  14.955  0.00  0.00    +0.000 C 
ATOM     14  O   UNL     1       7.589   5.274  14.712  0.00  0.00    +0.000 OA
BRANCH  13  15
ATOM     15  O   UNL     1       6.351   3.445  14.244  0.00  0.00    +0.000 OA
ATOM     16  H   UNL     1       6.562   2.591  14.667  0.00  0.00    +0.000 HD
ENDBRANCH  13  15
ENDBRANCH   3  13
BRANCH   6  17
ATOM     17  N   UNL     1       3.206   6.017  19.233  0.00  0.00    +0.000 N 
ATOM     18  H   UNL     1       3.413   5.662  20.166  0.00  0.00    +0.000 HD
BRANCH  17  19
ATOM     19  C   UNL     1       2.526   7.257  19.210  0.00  0.00    +0.000 A 
ATOM     20  C   UNL     1       2.421   8.008  18.033  0.00  0.00    +0.000 A 
ATOM     21  C   UNL     1       1.615   9.155  17.991  0.00  0.00    +0.000 A 
ATOM     22  C   UNL     1       0.893   9.553  19.118  0.00  0.00    +0.000 A 
ATOM     23  C   UNL     1       0.994   8.824  20.307  0.00  0.00    +0.000 A 
ATOM     24  C   UNL     1       1.836   7.705  20.343  0.00  0.00    +0.000 A 
BRANCH  23  25
ATOM     25  C   UNL     1       0.182   9.164  21.529  0.00  0.00    +0.000 C 
ATOM     26  F   UNL     1      -0.740   8.215  21.851  0.00  0.00    +0.000 F 
ATOM     27  F   UNL     1       0.954   9.322  22.641  0.00  0.00    +0.000 F 
ATOM     28  F   UNL     1      -0.514  10.328  21.391  0.00  0.00    +0.000 F 
ENDBRANCH  23  25
ENDBRANCH  17  19
ENDBRANCH   6  17
TORSDOF 7
ENDMDL
MODEL 2
REMARK VINA RESULT:      -8.1      0.727      1.181
REMARK  Name = 
REMARK  7 active torsions:
REMARK  status: ('A' for Active; 'I' for Inactive)
REMARK    1  A    between atoms: N_1  and  S_2
REMARK    2  A    between atoms: S_2  and  C_5
REMARK    3  A    between atoms: C_7  and  C_8
REMARK    4  A    between atoms: C_8  and  O_10
REMARK    5  A    between atoms: C_13  and  N_14
REMARK    6  A    between atoms: N_14  and  C_15
REMARK    7  A    between atoms: C_19  and  C_20
REMARK                            x       y       z     vdW  Elec       q    Type
REMARK                         _______ _______ _______ _____ _____    ______ ____
ROOT
ATOM      1  C   UNL     1       3.832   4.346  17.526  0.00  0.00    +0.000 A 
ATOM      2  C   UNL     1       4.664   3.981  16.450  0.00  0.00    +0.000 A 
ATOM      3  C   UNL     1       5.706   4.826  16.073  0.00  0.00    +0.000 A 
ATOM      4  C   UNL     1       5.857   5.995  16.783  0.00  0.00    +0.000 A 
ATOM      5  N   UNL     1       5.069   6.343  17.829  0.00  0.00    +0.000 NA
ATOM      6  C   UNL     1       4.042   5.539  18.209  0.00  0.00    +0.000 A 
ENDROOT
BRANCH   1   7
ATOM      7  S   UNL     1       2.500   3.271  17.916  0.00  0.00    +0.000 S 
ATOM      8  O   UNL     1       2.407   3.162  19.353  0.00  0.00    +0.000 OA
ATOM      9  O   UNL     1       2.490   2.131  17.028  0.00  0.00    +0.000 OA
BRANCH   7  10
ATOM     10  N   UNL     1       1.154   4.171  17.443  0.00  0.00    +0.000 NA
ATOM     11  H   UNL     1       1.261   4.437  16.457  0.00  0.00    +0.000 HD
ATOM     12  H   UNL     1       1.079   4.987  18.055  0.00  0.00    +0.000 HD
ENDBRANCH   7  10
ENDBRANCH   1   7
BRANCH   3  13
ATOM     13  C   UNL     1       6.603   4.574  14.931  0.00  0.00    +0.000 C 
ATOM     14  O   UNL     1       7.565   5.286  14.687  0.00  0.00    +0.000 OA
BRANCH  13  15
ATOM     15  O   UNL     1       6.300   3.479  14.208  0.00  0.00    +0.000 OA
ATOM     16  H   UNL     1       5.408   3.451  13.813  0.00  0.00    +0.000 HD
ENDBRANCH  13  15
ENDBRANCH   3  13
BRANCH   6  17
ATOM     17  N   UNL     1       3.181   6.020  19.219  0.00  0.00    +0.000 N 
ATOM     18  H   UNL     1       3.371   5.652  20.150  0.00  0.00    +0.000 HD
BRANCH  17  19
ATOM     19  C   UNL     1       2.508   7.264  19.200  0.00  0.00    +0.000 A 
ATOM     20  C   UNL     1       2.385   8.008  18.021  0.00  0.00    +0.000 A 
ATOM     21  C   UNL     1       1.585   9.159  17.987  0.00  0.00    +0.000 A 
ATOM     22  C   UNL     1       0.886   9.568  19.124  0.00  0.00    +0.000 A 
ATOM     23  C   UNL     1       1.004   8.845  20.316  0.00  0.00    +0.000 A 
ATOM     24  C   UNL     1       1.841   7.723  20.343  0.00  0.00    +0.000 A 
BRANCH  23  25
ATOM     25  C   UNL     1       0.217   9.197  21.550  0.00  0.00    +0.000 C 
ATOM     26  F   UNL     1      -0.419  10.399  21.466  0.00  0.00    +0.000 F 
ATOM     27  F   UNL     1      -0.756   8.284  21.828  0.00  0.00    +0.000 F 
ATOM     28  F   UNL     1       0.994   9.264  22.668  0.00  0.00    +0.000 F 
ENDBRANCH  23  25
ENDBRANCH  17  19
ENDBRANCH   6  17
TORSDOF 7
ENDMDL
MODEL 3
REMARK VINA RESULT:      -8.1      1.050      1.518
REMARK  Name = 
REMARK  7 active torsions:
REMARK  status: ('A' for Active; 'I' for Inactive)
REMARK    1  A    between atoms: N_1  and  S_2
REMARK    2  A    between atoms: S_2  and  C_5
REMARK    3  A    between atoms: C_7  and  C_8
REMARK    4  A    between atoms: C_8  and  O_10
REMARK    5  A    between atoms: C_13  and  N_14
REMARK    6  A    between atoms: N_14  and  C_15
REMARK    7  A    between atoms: C_19  and  C_20
REMARK                            x       y       z     vdW  Elec       q    Type
REMARK                         _______ _______ _______ _____ _____    ______ ____
ROOT
ATOM      1  C   UNL     1       3.422   4.281  18.176  0.00  0.00    +0.000 A 
ATOM      2  C   UNL     1       4.311   3.840  17.176  0.00  0.00    +0.000 A 
ATOM      3  C   UNL     1       5.562   4.442  17.059  0.00  0.00    +0.000 A 
ATOM      4  C   UNL     1       5.857   5.458  17.938  0.00  0.00    +0.000 A 
ATOM      5  N   UNL     1       5.012   5.875  18.912  0.00  0.00    +0.000 NA
ATOM      6  C   UNL     1       3.784   5.309  19.040  0.00  0.00    +0.000 A 
ENDROOT
BRANCH   1   7
ATOM      7  S   UNL     1       1.838   3.526  18.238  0.00  0.00    +0.000 S 
ATOM      8  O   UNL     1       1.005   4.130  17.225  0.00  0.00    +0.000 OA
ATOM      9  O   UNL     1       1.418   3.338  19.608  0.00  0.00    +0.000 OA
BRANCH   7  10
ATOM     10  N   UNL     1       2.157   1.963  17.689  0.00  0.00    +0.000 NA
ATOM     11  H   UNL     1       1.453   1.324  18.076  0.00  0.00    +0.000 HD
ATOM     12  H   UNL     1       3.105   1.708  17.974  0.00  0.00    +0.000 HD
ENDBRANCH   7  10
ENDBRANCH   1   7
BRANCH   3  13
ATOM     13  C   UNL     1       6.549   4.101  16.018  0.00  0.00    +0.000 C 
ATOM     14  O   UNL     1       6.226   3.612  14.946  0.00  0.00    +0.000 OA
BRANCH  13  15
ATOM     15  O   UNL     1       7.823   4.408  16.329  0.00  0.00    +0.000 OA
ATOM     16  H   UNL     1       8.124   5.306  16.093  0.00  0.00    +0.000 HD
ENDBRANCH  13  15
ENDBRANCH   3  13
BRANCH   6  17
ATOM     17  N   UNL     1       2.904   5.875  19.987  0.00  0.00    +0.000 N 
ATOM     18  H   UNL     1       3.039   5.546  20.943  0.00  0.00    +0.000 HD
BRANCH  17  19
ATOM     19  C   UNL     1       2.288   7.144  19.880  0.00  0.00    +0.000 A 
ATOM     20  C   UNL     1       2.289   7.854  18.674  0.00  0.00    +0.000 A 
ATOM     21  C   UNL     1       1.544   9.035  18.544  0.00  0.00    +0.000 A 
ATOM     22  C   UNL     1       0.778   9.508  19.612  0.00  0.00    +0.000 A 
ATOM     23  C   UNL     1       0.774   8.821  20.829  0.00  0.00    +0.000 A 
ATOM     24  C   UNL     1       1.556   7.666  20.954  0.00  0.00    +0.000 A 
BRANCH  23  25
ATOM     25  C   UNL     1      -0.090   9.244  21.988  0.00  0.00    +0.000 C 
ATOM     26  F   UNL     1       0.620   9.600  23.094  0.00  0.00    +0.000 F 
ATOM     27  F   UNL     1      -0.873  10.319  21.690  0.00  0.00    +0.000 F 
ATOM     28  F   UNL     1      -0.944   8.263  22.393  0.00  0.00    +0.000 F 
ENDBRANCH  23  25
ENDBRANCH  17  19
ENDBRANCH   6  17
TORSDOF 7
ENDMDL
MODEL 4
REMARK VINA RESULT:      -8.0      4.090      4.825
REMARK  Name = 
REMARK  7 active torsions:
REMARK  status: ('A' for Active; 'I' for Inactive)
REMARK    1  A    between atoms: N_1  and  S_2
REMARK    2  A    between atoms: S_2  and  C_5
REMARK    3  A    between atoms: C_7  and  C_8
REMARK    4  A    between atoms: C_8  and  O_10
REMARK    5  A    between atoms: C_13  and  N_14
REMARK    6  A    between atoms: N_14  and  C_15
REMARK    7  A    between atoms: C_19  and  C_20
REMARK                            x       y       z     vdW  Elec       q    Type
REMARK                         _______ _______ _______ _____ _____    ______ ____
ROOT
ATOM      1  C   UNL     1       6.684   4.835  16.695  0.00  0.00    +0.000 A 
ATOM      2  C   UNL     1       7.377   5.361  15.587  0.00  0.00    +0.000 A 
ATOM      3  C   UNL     1       7.126   4.847  14.316  0.00  0.00    +0.000 A 
ATOM      4  C   UNL     1       6.206   3.829  14.218  0.00  0.00    +0.000 A 
ATOM      5  N   UNL     1       5.526   3.331  15.279  0.00  0.00    +0.000 NA
ATOM      6  C   UNL     1       5.759   3.810  16.528  0.00  0.00    +0.000 A 
ENDROOT
BRANCH   1   7
ATOM      7  S   UNL     1       7.085   5.481  18.277  0.00  0.00    +0.000 S 
ATOM      8  O   UNL     1       8.179   4.712  18.821  0.00  0.00    +0.000 OA
ATOM      9  O   UNL     1       5.882   5.792  19.018  0.00  0.00    +0.000 OA
BRANCH   7  10
ATOM     10  N   UNL     1       7.736   6.991  17.901  0.00  0.00    +0.000 NA
ATOM     11  H   UNL     1       8.048   7.444  18.768  0.00  0.00    +0.000 HD
ATOM     12  H   UNL     1       7.022   7.540  17.417  0.00  0.00    +0.000 HD
ENDBRANCH   7  10
ENDBRANCH   1   7
BRANCH   3  13
ATOM     13  C   UNL     1       7.830   5.281  13.095  0.00  0.00    +0.000 C 
ATOM     14  O   UNL     1       8.747   6.087  13.122  0.00  0.00    +0.000 OA
BRANCH  13  15
ATOM     15  O   UNL     1       7.406   4.690  11.962  0.00  0.00    +0.000 OA
ATOM     16  H   UNL     1       6.519   4.943  11.644  0.00  0.00    +0.000 HD
ENDBRANCH  13  15
ENDBRANCH   3  13
BRANCH   6  17
ATOM     17  N   UNL     1       5.115   3.161  17.604  0.00  0.00    +0.000 N 
ATOM     18  H   UNL     1       5.746   2.708  18.265  0.00  0.00    +0.000 HD
BRANCH  17  19
ATOM     19  C   UNL     1       3.851   3.507  18.134  0.00  0.00    +0.000 A 
ATOM     20  C   UNL     1       2.803   3.924  17.305  0.00  0.00    +0.000 A 
ATOM     21  C   UNL     1       1.516   4.114  17.828  0.00  0.00    +0.000 A 
ATOM     22  C   UNL     1       1.259   3.874  19.180  0.00  0.00    +0.000 A 
ATOM     23  C   UNL     1       2.295   3.469  20.027  0.00  0.00    +0.000 A 
ATOM     24  C   UNL     1       3.583   3.325  19.496  0.00  0.00    +0.000 A 
BRANCH  23  25
ATOM     25  C   UNL     1       2.061   3.125  21.475  0.00  0.00    +0.000 C 
ATOM     26  F   UNL     1       2.868   2.130  21.935  0.00  0.00    +0.000 F 
ATOM     27  F   UNL     1       2.272   4.186  22.304  0.00  0.00    +0.000 F 
ATOM     28  F   UNL     1       0.785   2.712  21.717  0.00  0.00    +0.000 F 
ENDBRANCH  23  25
ENDBRANCH  17  19
ENDBRANCH   6  17
TORSDOF 7
ENDMDL
MODEL 5
REMARK VINA RESULT:      -7.9      0.811      1.164
REMARK  Name = 
REMARK  7 active torsions:
REMARK  status: ('A' for Active; 'I' for Inactive)
REMARK    1  A    between atoms: N_1  and  S_2
REMARK    2  A    between atoms: S_2  and  C_5
REMARK    3  A    between atoms: C_7  and  C_8
REMARK    4  A    between atoms: C_8  and  O_10
REMARK    5  A    between atoms: C_13  and  N_14
REMARK    6  A    between atoms: N_14  and  C_15
REMARK    7  A    between atoms: C_19  and  C_20
REMARK                            x       y       z     vdW  Elec       q    Type
REMARK                         _______ _______ _______ _____ _____    ______ ____
ROOT
ATOM      1  C   UNL     1       3.881   4.386  17.596  0.00  0.00    +0.000 A 
ATOM      2  C   UNL     1       4.698   4.037  16.503  0.00  0.00    +0.000 A 
ATOM      3  C   UNL     1       5.571   4.984  15.972  0.00  0.00    +0.000 A 
ATOM      4  C   UNL     1       5.577   6.231  16.552  0.00  0.00    +0.000 A 
ATOM      5  N   UNL     1       4.804   6.567  17.614  0.00  0.00    +0.000 NA
ATOM      6  C   UNL     1       3.939   5.663  18.143  0.00  0.00    +0.000 A 
ENDROOT
BRANCH   1   7
ATOM      7  S   UNL     1       2.758   3.171  18.184  0.00  0.00    +0.000 S 
ATOM      8  O   UNL     1       2.731   3.232  19.626  0.00  0.00    +0.000 OA
ATOM      9  O   UNL     1       2.907   1.939  17.441  0.00  0.00    +0.000 OA
BRANCH   7  10
ATOM     10  N   UNL     1       1.267   3.776  17.678  0.00  0.00    +0.000 NA
ATOM     11  H   UNL     1       1.248   3.802  16.652  0.00  0.00    +0.000 HD
ATOM     12  H   UNL     1       1.139   4.705  18.087  0.00  0.00    +0.000 HD
ENDBRANCH   7  10
ENDBRANCH   1   7
BRANCH   3  13
ATOM     13  C   UNL     1       6.431   4.749  14.798  0.00  0.00    +0.000 C 
ATOM     14  O   UNL     1       6.059   4.094  13.837  0.00  0.00    +0.000 OA
BRANCH  13  15
ATOM     15  O   UNL     1       7.637   5.346  14.856  0.00  0.00    +0.000 OA
ATOM     16  H   UNL     1       8.265   4.997  15.517  0.00  0.00    +0.000 HD
ENDBRANCH  13  15
ENDBRANCH   3  13
BRANCH   6  17
ATOM     17  N   UNL     1       3.071   6.114  19.161  0.00  0.00    +0.000 N 
ATOM     18  H   UNL     1       3.252   5.715  20.082  0.00  0.00    +0.000 HD
BRANCH  17  19
ATOM     19  C   UNL     1       2.403   7.360  19.178  0.00  0.00    +0.000 A 
ATOM     20  C   UNL     1       2.212   8.100  18.005  0.00  0.00    +0.000 A 
ATOM     21  C   UNL     1       1.415   9.254  18.015  0.00  0.00    +0.000 A 
ATOM     22  C   UNL     1       0.788   9.670  19.191  0.00  0.00    +0.000 A 
ATOM     23  C   UNL     1       0.976   8.952  20.376  0.00  0.00    +0.000 A 
ATOM     24  C   UNL     1       1.808   7.826  20.357  0.00  0.00    +0.000 A 
BRANCH  23  25
ATOM     25  C   UNL     1       0.266   9.312  21.655  0.00  0.00    +0.000 C 
ATOM     26  F   UNL     1      -0.722   8.438  21.993  0.00  0.00    +0.000 F 
ATOM     27  F   UNL     1       1.108   9.352  22.726  0.00  0.00    +0.000 F 
ATOM     28  F   UNL     1      -0.324  10.540  21.601  0.00  0.00    +0.000 F 
ENDBRANCH  23  25
ENDBRANCH  17  19
ENDBRANCH   6  17
TORSDOF 7
ENDMDL
MODEL 6
REMARK VINA RESULT:      -7.9      5.264      8.009
REMARK  Name = 
REMARK  7 active torsions:
REMARK  status: ('A' for Active; 'I' for Inactive)
REMARK    1  A    between atoms: N_1  and  S_2
REMARK    2  A    between atoms: S_2  and  C_5
REMARK    3  A    between atoms: C_7  and  C_8
REMARK    4  A    between atoms: C_8  and  O_10
REMARK    5  A    between atoms: C_13  and  N_14
REMARK    6  A    between atoms: N_14  and  C_15
REMARK    7  A    between atoms: C_19  and  C_20
REMARK                            x       y       z     vdW  Elec       q    Type
REMARK                         _______ _______ _______ _____ _____    ______ ____
ROOT
ATOM      1  C   UNL     1       5.726   5.070  18.222  0.00  0.00    +0.000 A 
ATOM      2  C   UNL     1       4.831   5.742  19.077  0.00  0.00    +0.000 A 
ATOM      3  C   UNL     1       3.462   5.520  18.945  0.00  0.00    +0.000 A 
ATOM      4  C   UNL     1       3.057   4.647  17.962  0.00  0.00    +0.000 A 
ATOM      5  N   UNL     1       3.915   3.986  17.147  0.00  0.00    +0.000 NA
ATOM      6  C   UNL     1       5.254   4.193  17.252  0.00  0.00    +0.000 A 
ENDROOT
BRANCH   1   7
ATOM      7  S   UNL     1       7.435   5.435  18.395  0.00  0.00    +0.000 S 
ATOM      8  O   UNL     1       7.669   6.772  17.905  0.00  0.00    +0.000 OA
ATOM      9  O   UNL     1       8.239   4.294  18.016  0.00  0.00    +0.000 OA
BRANCH   7  10
ATOM     10  N   UNL     1       7.620   5.528  20.069  0.00  0.00    +0.000 NA
ATOM     11  H   UNL     1       7.185   4.704  20.500  0.00  0.00    +0.000 HD
ATOM     12  H   UNL     1       7.195   6.400  20.394  0.00  0.00    +0.000 HD
ENDBRANCH   7  10
ENDBRANCH   1   7
BRANCH   3  13
ATOM     13  C   UNL     1       2.432   6.207  19.745  0.00  0.00    +0.000 C 
ATOM     14  O   UNL     1       2.302   7.421  19.739  0.00  0.00    +0.000 OA
BRANCH  13  15
ATOM     15  O   UNL     1       1.626   5.388  20.448  0.00  0.00    +0.000 OA
ATOM     16  H   UNL     1       0.714   5.698  20.599  0.00  0.00    +0.000 HD
ENDBRANCH  13  15
ENDBRANCH   3  13
BRANCH   6  17
ATOM     17  N   UNL     1       6.083   3.575  16.291  0.00  0.00    +0.000 N 
ATOM     18  H   UNL     1       6.245   2.581  16.445  0.00  0.00    +0.000 HD
BRANCH  17  19
ATOM     19  C   UNL     1       6.244   4.000  14.951  0.00  0.00    +0.000 A 
ATOM     20  C   UNL     1       7.343   4.771  14.559  0.00  0.00    +0.000 A 
ATOM     21  C   UNL     1       7.568   5.051  13.203  0.00  0.00    +0.000 A 
ATOM     22  C   UNL     1       6.706   4.549  12.225  0.00  0.00    +0.000 A 
ATOM     23  C   UNL     1       5.594   3.787  12.598  0.00  0.00    +0.000 A 
ATOM     24  C   UNL     1       5.363   3.552  13.959  0.00  0.00    +0.000 A 
BRANCH  23  25
ATOM     25  C   UNL     1       4.674   3.160  11.584  0.00  0.00    +0.000 C 
ATOM     26  F   UNL     1       5.142   1.985  11.077  0.00  0.00    +0.000 F 
ATOM     27  F   UNL     1       3.444   2.877  12.099  0.00  0.00    +0.000 F 
ATOM     28  F   UNL     1       4.449   3.966  10.508  0.00  0.00    +0.000 F 
ENDBRANCH  23  25
ENDBRANCH  17  19
ENDBRANCH   6  17
TORSDOF 7
ENDMDL
MODEL 7
REMARK VINA RESULT:      -7.9      5.256      8.024
REMARK  Name = 
REMARK  7 active torsions:
REMARK  status: ('A' for Active; 'I' for Inactive)
REMARK    1  A    between atoms: N_1  and  S_2
REMARK    2  A    between atoms: S_2  and  C_5
REMARK    3  A    between atoms: C_7  and  C_8
REMARK    4  A    between atoms: C_8  and  O_10
REMARK    5  A    between atoms: C_13  and  N_14
REMARK    6  A    between atoms: N_14  and  C_15
REMARK    7  A    between atoms: C_19  and  C_20
REMARK                            x       y       z     vdW  Elec       q    Type
REMARK                         _______ _______ _______ _____ _____    ______ ____
ROOT
ATOM      1  C   UNL     1       5.716   4.940  18.303  0.00  0.00    +0.000 A 
ATOM      2  C   UNL     1       4.807   5.556  19.186  0.00  0.00    +0.000 A 
ATOM      3  C   UNL     1       3.450   5.256  19.089  0.00  0.00    +0.000 A 
ATOM      4  C   UNL     1       3.069   4.366  18.112  0.00  0.00    +0.000 A 
ATOM      5  N   UNL     1       3.941   3.760  17.270  0.00  0.00    +0.000 NA
ATOM      6  C   UNL     1       5.268   4.042  17.340  0.00  0.00    +0.000 A 
ENDROOT
BRANCH   1   7
ATOM      7  S   UNL     1       7.405   5.402  18.433  0.00  0.00    +0.000 S 
ATOM      8  O   UNL     1       7.549   6.751  17.940  0.00  0.00    +0.000 OA
ATOM      9  O   UNL     1       8.263   4.309  18.030  0.00  0.00    +0.000 OA
BRANCH   7  10
ATOM     10  N   UNL     1       7.629   5.504  20.101  0.00  0.00    +0.000 NA
ATOM     11  H   UNL     1       6.774   5.186  20.572  0.00  0.00    +0.000 HD
ATOM     12  H   UNL     1       7.860   6.471  20.338  0.00  0.00    +0.000 HD
ENDBRANCH   7  10
ENDBRANCH   1   7
BRANCH   3  13
ATOM     13  C   UNL     1       2.405   5.879  19.921  0.00  0.00    +0.000 C 
ATOM     14  O   UNL     1       1.517   5.229  20.450  0.00  0.00    +0.000 OA
BRANCH  13  15
ATOM     15  O   UNL     1       2.532   7.211  20.080  0.00  0.00    +0.000 OA
ATOM     16  H   UNL     1       3.435   7.546  20.240  0.00  0.00    +0.000 HD
ENDBRANCH  13  15
ENDBRANCH   3  13
BRANCH   6  17
ATOM     17  N   UNL     1       6.105   3.478  16.353  0.00  0.00    +0.000 N 
ATOM     18  H   UNL     1       6.291   2.483  16.472  0.00  0.00    +0.000 HD
BRANCH  17  19
ATOM     19  C   UNL     1       6.247   3.953  15.028  0.00  0.00    +0.000 A 
ATOM     20  C   UNL     1       7.326   4.764  14.658  0.00  0.00    +0.000 A 
ATOM     21  C   UNL     1       7.535   5.097  13.311  0.00  0.00    +0.000 A 
ATOM     22  C   UNL     1       6.680   4.608  12.321  0.00  0.00    +0.000 A 
ATOM     23  C   UNL     1       5.589   3.806  12.672  0.00  0.00    +0.000 A 
ATOM     24  C   UNL     1       5.372   3.519  14.025  0.00  0.00    +0.000 A 
BRANCH  23  25
ATOM     25  C   UNL     1       4.679   3.193  11.641  0.00  0.00    +0.000 C 
ATOM     26  F   UNL     1       3.424   2.938  12.106  0.00  0.00    +0.000 F 
ATOM     27  F   UNL     1       4.513   3.991  10.549  0.00  0.00    +0.000 F 
ATOM     28  F   UNL     1       5.148   2.005  11.165  0.00  0.00    +0.000 F 
ENDBRANCH  23  25
ENDBRANCH  17  19
ENDBRANCH   6  17
TORSDOF 7
ENDMDL
MODEL 8
REMARK VINA RESULT:      -7.9      5.081      7.516
REMARK  Name = 
REMARK  7 active torsions:
REMARK  status: ('A' for Active; 'I' for Inactive)
REMARK    1  A    between atoms: N_1  and  S_2
REMARK    2  A    between atoms: S_2  and  C_5
REMARK    3  A    between atoms: C_7  and  C_8
REMARK    4  A    between atoms: C_8  and  O_10
REMARK    5  A    between atoms: C_13  and  N_14
REMARK    6  A    between atoms: N_14  and  C_15
REMARK    7  A    between atoms: C_19  and  C_20
REMARK                            x       y       z     vdW  Elec       q    Type
REMARK                         _______ _______ _______ _____ _____    ______ ____
ROOT
ATOM      1  C   UNL     1       3.057   4.457  19.186  0.00  0.00    +0.000 A 
ATOM      2  C   UNL     1       2.441   5.443  19.981  0.00  0.00    +0.000 A 
ATOM      3  C   UNL     1       2.357   6.750  19.506  0.00  0.00    +0.000 A 
ATOM      4  C   UNL     1       2.900   7.007  18.268  0.00  0.00    +0.000 A 
ATOM      5  N   UNL     1       3.480   6.059  17.494  0.00  0.00    +0.000 NA
ATOM      6  C   UNL     1       3.581   4.779  17.939  0.00  0.00    +0.000 A 
ENDROOT
BRANCH   1   7
ATOM      7  S   UNL     1       3.188   2.841  19.862  0.00  0.00    +0.000 S 
ATOM      8  O   UNL     1       2.623   1.905  18.919  0.00  0.00    +0.000 OA
ATOM      9  O   UNL     1       2.859   2.851  21.270  0.00  0.00    +0.000 OA
BRANCH   7  10
ATOM     10  N   UNL     1       4.852   2.566  19.831  0.00  0.00    +0.000 NA
ATOM     11  H   UNL     1       5.214   2.608  20.791  0.00  0.00    +0.000 HD
ATOM     12  H   UNL     1       5.284   3.268  19.226  0.00  0.00    +0.000 HD
ENDBRANCH   7  10
ENDBRANCH   1   7
BRANCH   3  13
ATOM     13  C   UNL     1       1.784   7.872  20.271  0.00  0.00    +0.000 C 
ATOM     14  O   UNL     1       1.310   8.858  19.729  0.00  0.00    +0.000 OA
BRANCH  13  15
ATOM     15  O   UNL     1       1.792   7.704  21.608  0.00  0.00    +0.000 OA
ATOM     16  H   UNL     1       2.585   8.016  22.082  0.00  0.00    +0.000 HD
ENDBRANCH  13  15
ENDBRANCH   3  13
BRANCH   6  17
ATOM     17  N   UNL     1       4.311   3.870  17.142  0.00  0.00    +0.000 N 
ATOM     18  H   UNL     1       3.845   2.978  16.982  0.00  0.00    +0.000 HD
BRANCH  17  19
ATOM     19  C   UNL     1       5.269   4.222  16.164  0.00  0.00    +0.000 A 
ATOM     20  C   UNL     1       6.492   4.804  16.518  0.00  0.00    +0.000 A 
ATOM     21  C   UNL     1       7.490   5.003  15.554  0.00  0.00    +0.000 A 
ATOM     22  C   UNL     1       7.284   4.607  14.230  0.00  0.00    +0.000 A 
ATOM     23  C   UNL     1       6.065   4.035  13.853  0.00  0.00    +0.000 A 
ATOM     24  C   UNL     1       5.064   3.882  14.821  0.00  0.00    +0.000 A 
BRANCH  23  25
ATOM     25  C   UNL     1       5.815   3.523  12.459  0.00  0.00    +0.000 C 
ATOM     26  F   UNL     1       6.005   2.180  12.330  0.00  0.00    +0.000 F 
ATOM     27  F   UNL     1       4.541   3.758  12.037  0.00  0.00    +0.000 F 
ATOM     28  F   UNL     1       6.627   4.105  11.532  0.00  0.00    +0.000 F 
ENDBRANCH  23  25
ENDBRANCH  17  19
ENDBRANCH   6  17
TORSDOF 7
ENDMDL
MODEL 9
REMARK VINA RESULT:      -7.9      0.877      1.351
REMARK  Name = 
REMARK  7 active torsions:
REMARK  status: ('A' for Active; 'I' for Inactive)
REMARK    1  A    between atoms: N_1  and  S_2
REMARK    2  A    between atoms: S_2  and  C_5
REMARK    3  A    between atoms: C_7  and  C_8
REMARK    4  A    between atoms: C_8  and  O_10
REMARK    5  A    between atoms: C_13  and  N_14
REMARK    6  A    between atoms: N_14  and  C_15
REMARK    7  A    between atoms: C_19  and  C_20
REMARK                            x       y       z     vdW  Elec       q    Type
REMARK                         _______ _______ _______ _____ _____    ______ ____
ROOT
ATOM      1  C   UNL     1       4.052   4.343  17.594  0.00  0.00    +0.000 A 
ATOM      2  C   UNL     1       4.878   3.996  16.507  0.00  0.00    +0.000 A 
ATOM      3  C   UNL     1       5.698   4.964  15.934  0.00  0.00    +0.000 A 
ATOM      4  C   UNL     1       5.645   6.231  16.467  0.00  0.00    +0.000 A 
ATOM      5  N   UNL     1       4.864   6.567  17.523  0.00  0.00    +0.000 NA
ATOM      6  C   UNL     1       4.050   5.641  18.093  0.00  0.00    +0.000 A 
ENDROOT
BRANCH   1   7
ATOM      7  S   UNL     1       2.997   3.096  18.237  0.00  0.00    +0.000 S 
ATOM      8  O   UNL     1       1.855   2.968  17.362  0.00  0.00    +0.000 OA
ATOM      9  O   UNL     1       2.891   3.211  19.674  0.00  0.00    +0.000 OA
BRANCH   7  10
ATOM     10  N   UNL     1       3.904   1.694  18.003  0.00  0.00    +0.000 NA
ATOM     11  H   UNL     1       3.431   1.101  17.311  0.00  0.00    +0.000 HD
ATOM     12  H   UNL     1       4.008   1.222  18.905  0.00  0.00    +0.000 HD
ENDBRANCH   7  10
ENDBRANCH   1   7
BRANCH   3  13
ATOM     13  C   UNL     1       6.560   4.729  14.761  0.00  0.00    +0.000 C 
ATOM     14  O   UNL     1       6.260   3.941  13.878  0.00  0.00    +0.000 OA
BRANCH  13  15
ATOM     15  O   UNL     1       7.678   5.479  14.725  0.00  0.00    +0.000 OA
ATOM     16  H   UNL     1       7.596   6.400  15.040  0.00  0.00    +0.000 HD
ENDBRANCH  13  15
ENDBRANCH   3  13
BRANCH   6  17
ATOM     17  N   UNL     1       3.168   6.086  19.102  0.00  0.00    +0.000 N 
ATOM     18  H   UNL     1       3.339   5.683  20.023  0.00  0.00    +0.000 HD
BRANCH  17  19
ATOM     19  C   UNL     1       2.497   7.330  19.116  0.00  0.00    +0.000 A 
ATOM     20  C   UNL     1       2.393   8.114  17.961  0.00  0.00    +0.000 A 
ATOM     21  C   UNL     1       1.594   9.267  17.954  0.00  0.00    +0.000 A 
ATOM     22  C   UNL     1       0.880   9.639  19.095  0.00  0.00    +0.000 A 
ATOM     23  C   UNL     1       0.981   8.876  20.263  0.00  0.00    +0.000 A 
ATOM     24  C   UNL     1       1.815   7.752  20.264  0.00  0.00    +0.000 A 
BRANCH  23  25
ATOM     25  C   UNL     1       0.177   9.188  21.498  0.00  0.00    +0.000 C 
ATOM     26  F   UNL     1      -0.577  10.317  21.386  0.00  0.00    +0.000 F 
ATOM     27  F   UNL     1      -0.696   8.191  21.818  0.00  0.00    +0.000 F 
ATOM     28  F   UNL     1       0.956   9.368  22.601  0.00  0.00    +0.000 F 
ENDBRANCH  23  25
ENDBRANCH  17  19
ENDBRANCH   6  17
TORSDOF 7
ENDMDL
