MODEL 1
REMARK VINA RESULT:      -6.3      0.000      0.000
REMARK  Name = 
REMARK  9 active torsions:
REMARK  status: ('A' for Active; 'I' for Inactive)
REMARK    1  A    between atoms: C_1  and  O_2
REMARK    2  A    between atoms: O_2  and  C_3
REMARK    3  A    between atoms: C_5  and  N_6
REMARK    4  A    between atoms: N_9  and  C_10
REMARK    5  A    between atoms: C_13  and  C_14
REMARK    6  A    between atoms: C_16  and  N_17
REMARK    7  A    between atoms: N_24  and  C_25
REMARK    8  A    between atoms: C_28  and  C_29
REMARK    9  A    between atoms: N_34  and  C_35
REMARK                            x       y       z     vdW  Elec       q    Type
REMARK                         _______ _______ _______ _____ _____    ______ ____
ROOT
ATOM      1  N   UNL     1       4.188  15.031  22.198  0.00  0.00    +0.000 N 
ATOM      2  C   UNL     1       2.960  14.456  21.837  0.00  0.00    +0.000 A 
ATOM      3  N   UNL     1       2.908  13.424  21.014  0.00  0.00    +0.000 NA
ATOM      4  C   UNL     1       1.695  13.051  20.575  0.00  0.00    +0.000 A 
ATOM      5  C   UNL     1       0.477  13.646  20.895  0.00  0.00    +0.000 A 
ATOM      6  C   UNL     1       0.602  14.660  21.843  0.00  0.00    +0.000 A 
ATOM      7  N   UNL     1       1.847  15.028  22.295  0.00  0.00    +0.000 NA
ATOM      8  N   UNL     1      -0.459  15.443  22.342  0.00  0.00    +0.000 N 
ATOM      9  C   UNL     1      -0.031  16.598  23.162  0.00  0.00    +0.000 C 
ATOM     10  C   UNL     1      -1.805  15.194  22.243  0.00  0.00    +0.000 A 
ATOM     11  S   UNL     1      -2.968  16.210  23.075  0.00  0.00    +0.000 S 
ATOM     12  C   UNL     1      -4.262  15.352  22.403  0.00  0.00    +0.000 A 
ATOM     13  C   UNL     1      -5.664  15.803  22.626  0.00  0.00    +0.000 C 
ATOM     14  N   UNL     1      -3.919  14.315  21.690  0.00  0.00    +0.000 NA
ATOM     15  C   UNL     1      -2.515  14.217  21.562  0.00  0.00    +0.000 A 
ATOM     16  C   UNL     1      -2.021  13.183  20.671  0.00  0.00    +0.000 C 
ATOM     17  O   UNL     1      -2.819  12.352  20.218  0.00  0.00    +0.000 OA
ATOM     18  N   UNL     1      -0.696  13.154  20.227  0.00  0.00    +0.000 N 
ATOM     19  C   UNL     1      -0.522  12.577  18.886  0.00  0.00    +0.000 C 
ATOM     20  H   UNL     1       4.030  15.913  22.673  0.00  0.00    +0.000 HD
ENDROOT
BRANCH   1  27
ATOM     21  C   UNL     1       5.511  15.695  20.239  0.00  0.00    +0.000 A 
ATOM     22  C   UNL     1       6.686  15.561  19.473  0.00  0.00    +0.000 A 
ATOM     23  C   UNL     1       7.760  14.737  19.866  0.00  0.00    +0.000 A 
ATOM     24  C   UNL     1       7.668  14.118  21.122  0.00  0.00    +0.000 A 
ATOM     25  C   UNL     1       8.672  13.149  21.687  0.00  0.00    +0.000 C 
ATOM     26  C   UNL     1       6.514  14.300  21.904  0.00  0.00    +0.000 A 
ATOM     27  C   UNL     1       5.398  15.014  21.463  0.00  0.00    +0.000 A 
BRANCH  23  28
ATOM     28  N   UNL     1       8.820  14.477  19.005  0.00  0.00    +0.000 N 
ATOM     29  C   UNL     1       8.671  13.471  17.939  0.00  0.00    +0.000 C 
ATOM     30  C   UNL     1      10.067  12.924  17.563  0.00  0.00    +0.000 C 
ATOM     31  N   UNL     1      11.008  13.992  17.151  0.00  0.00    +0.000 NA
ATOM     32  C   UNL     1      12.331  13.424  16.898  0.00  0.00    +0.000 C 
ATOM     33  C   UNL     1      11.076  15.031  18.210  0.00  0.00    +0.000 C 
ATOM     34  C   UNL     1       9.679  15.599  18.578  0.00  0.00    +0.000 C 
ENDBRANCH  23  28
BRANCH  21  36
ATOM     35  C   UNL     1       3.851  16.123  18.582  0.00  0.00    +0.000 C 
ATOM     36  O   UNL     1       4.421  16.443  19.850  0.00  0.00    +0.000 OA
ENDBRANCH  21  36
ENDBRANCH   1  27
TORSDOF 3
ENDMDL
MODEL 2
REMARK VINA RESULT:      -6.1      2.029      3.200
REMARK  Name = 
REMARK  9 active torsions:
REMARK  status: ('A' for Active; 'I' for Inactive)
REMARK    1  A    between atoms: C_1  and  O_2
REMARK    2  A    between atoms: O_2  and  C_3
REMARK    3  A    between atoms: C_5  and  N_6
REMARK    4  A    between atoms: N_9  and  C_10
REMARK    5  A    between atoms: C_13  and  C_14
REMARK    6  A    between atoms: C_16  and  N_17
REMARK    7  A    between atoms: N_24  and  C_25
REMARK    8  A    between atoms: C_28  and  C_29
REMARK    9  A    between atoms: N_34  and  C_35
REMARK                            x       y       z     vdW  Elec       q    Type
REMARK                         _______ _______ _______ _____ _____    ______ ____
ROOT
ATOM      1  N   UNL     1       2.027  14.198  21.541  0.00  0.00    +0.000 N 
ATOM      2  C   UNL     1       0.930  13.536  20.969  0.00  0.00    +0.000 A 
ATOM      3  N   UNL     1       1.101  12.614  20.038  0.00  0.00    +0.000 NA
ATOM      4  C   UNL     1       0.001  12.163  19.413  0.00  0.00    +0.000 A 
ATOM      5  C   UNL     1      -1.310  12.573  19.641  0.00  0.00    +0.000 A 
ATOM      6  C   UNL     1      -1.420  13.470  20.702  0.00  0.00    +0.000 A 
ATOM      7  N   UNL     1      -0.291  13.918  21.343  0.00  0.00    +0.000 NA
ATOM      8  N   UNL     1      -2.621  14.060  21.146  0.00  0.00    +0.000 N 
ATOM      9  C   UNL     1      -2.437  15.147  22.134  0.00  0.00    +0.000 C 
ATOM     10  C   UNL     1      -3.906  13.676  20.853  0.00  0.00    +0.000 A 
ATOM     11  S   UNL     1      -5.273  14.443  21.638  0.00  0.00    +0.000 S 
ATOM     12  C   UNL     1      -6.365  13.534  20.720  0.00  0.00    +0.000 A 
ATOM     13  C   UNL     1      -7.829  13.792  20.814  0.00  0.00    +0.000 C 
ATOM     14  N   UNL     1      -5.817  12.638  19.948  0.00  0.00    +0.000 NA
ATOM     15  C   UNL     1      -4.406  12.716  19.986  0.00  0.00    +0.000 A 
ATOM     16  C   UNL     1      -3.688  11.861  19.057  0.00  0.00    +0.000 C 
ATOM     17  O   UNL     1      -4.319  11.008  18.420  0.00  0.00    +0.000 OA
ATOM     18  N   UNL     1      -2.329  12.038  18.781  0.00  0.00    +0.000 N 
ATOM     19  C   UNL     1      -1.936  11.654  17.418  0.00  0.00    +0.000 C 
ATOM     20  H   UNL     1       1.707  14.991  22.086  0.00  0.00    +0.000 HD
ENDROOT
BRANCH   1  27
ATOM     21  C   UNL     1       4.459  14.460  21.765  0.00  0.00    +0.000 A 
ATOM     22  C   UNL     1       5.697  14.791  21.178  0.00  0.00    +0.000 A 
ATOM     23  C   UNL     1       5.831  15.108  19.812  0.00  0.00    +0.000 A 
ATOM     24  C   UNL     1       4.687  14.984  19.009  0.00  0.00    +0.000 A 
ATOM     25  C   UNL     1       4.608  15.344  17.549  0.00  0.00    +0.000 C 
ATOM     26  C   UNL     1       3.466  14.602  19.592  0.00  0.00    +0.000 A 
ATOM     27  C   UNL     1       3.303  14.408  20.966  0.00  0.00    +0.000 A 
BRANCH  23  28
ATOM     28  N   UNL     1       7.023  15.611  19.304  0.00  0.00    +0.000 N 
ATOM     29  C   UNL     1       7.397  17.013  19.559  0.00  0.00    +0.000 C 
ATOM     30  C   UNL     1       8.349  17.492  18.441  0.00  0.00    +0.000 C 
ATOM     31  N   UNL     1       9.556  16.641  18.312  0.00  0.00    +0.000 NA
ATOM     32  C   UNL     1      10.367  17.090  17.182  0.00  0.00    +0.000 C 
ATOM     33  C   UNL     1       9.148  15.224  18.136  0.00  0.00    +0.000 C 
ATOM     34  C   UNL     1       8.207  14.730  19.267  0.00  0.00    +0.000 C 
ENDBRANCH  23  28
BRANCH  21  36
ATOM     35  C   UNL     1       5.342  14.623  23.973  0.00  0.00    +0.000 C 
ATOM     36  O   UNL     1       4.287  14.207  23.108  0.00  0.00    +0.000 OA
ENDBRANCH  21  36
ENDBRANCH   1  27
TORSDOF 3
ENDMDL
MODEL 3
REMARK VINA RESULT:      -6.1      3.491     10.575
REMARK  Name = 
REMARK  9 active torsions:
REMARK  status: ('A' for Active; 'I' for Inactive)
REMARK    1  A    between atoms: C_1  and  O_2
REMARK    2  A    between atoms: O_2  and  C_3
REMARK    3  A    between atoms: C_5  and  N_6
REMARK    4  A    between atoms: N_9  and  C_10
REMARK    5  A    between atoms: C_13  and  C_14
REMARK    6  A    between atoms: C_16  and  N_17
REMARK    7  A    between atoms: N_24  and  C_25
REMARK    8  A    between atoms: C_28  and  C_29
REMARK    9  A    between atoms: N_34  and  C_35
REMARK                            x       y       z     vdW  Elec       q    Type
REMARK                         _______ _______ _______ _____ _____    ______ ____
ROOT
ATOM      1  N   UNL     1       1.856  12.915  20.147  0.00  0.00    +0.000 N 
ATOM      2  C   UNL     1       2.769  13.817  20.714  0.00  0.00    +0.000 A 
ATOM      3  N   UNL     1       2.574  14.316  21.921  0.00  0.00    +0.000 NA
ATOM      4  C   UNL     1       3.390  15.307  22.315  0.00  0.00    +0.000 A 
ATOM      5  C   UNL     1       4.426  15.872  21.574  0.00  0.00    +0.000 A 
ATOM      6  C   UNL     1       4.635  15.228  20.356  0.00  0.00    +0.000 A 
ATOM      7  N   UNL     1       3.801  14.208  19.966  0.00  0.00    +0.000 NA
ATOM      8  N   UNL     1       5.604  15.594  19.399  0.00  0.00    +0.000 N 
ATOM      9  C   UNL     1       5.468  14.899  18.099  0.00  0.00    +0.000 C 
ATOM     10  C   UNL     1       6.689  16.416  19.573  0.00  0.00    +0.000 A 
ATOM     11  S   UNL     1       7.875  16.619  18.297  0.00  0.00    +0.000 S 
ATOM     12  C   UNL     1       8.729  17.755  19.212  0.00  0.00    +0.000 A 
ATOM     13  C   UNL     1       9.891  18.479  18.625  0.00  0.00    +0.000 C 
ATOM     14  N   UNL     1       8.276  17.935  20.422  0.00  0.00    +0.000 NA
ATOM     15  C   UNL     1       7.092  17.197  20.645  0.00  0.00    +0.000 A 
ATOM     16  C   UNL     1       6.418  17.429  21.911  0.00  0.00    +0.000 C 
ATOM     17  O   UNL     1       6.986  18.107  22.776  0.00  0.00    +0.000 OA
ATOM     18  N   UNL     1       5.108  17.000  22.146  0.00  0.00    +0.000 N 
ATOM     19  C   UNL     1       4.350  17.857  23.069  0.00  0.00    +0.000 C 
ATOM     20  H   UNL     1       2.061  12.788  19.162  0.00  0.00    +0.000 HD
ENDROOT
BRANCH   1  27
ATOM     21  C   UNL     1      -0.488  13.512  19.722  0.00  0.00    +0.000 A 
ATOM     22  C   UNL     1      -1.840  13.454  20.116  0.00  0.00    +0.000 A 
ATOM     23  C   UNL     1      -2.276  12.715  21.234  0.00  0.00    +0.000 A 
ATOM     24  C   UNL     1      -1.317  11.937  21.902  0.00  0.00    +0.000 A 
ATOM     25  C   UNL     1      -1.567  11.139  23.154  0.00  0.00    +0.000 C 
ATOM     26  C   UNL     1       0.021  11.958  21.470  0.00  0.00    +0.000 A 
ATOM     27  C   UNL     1       0.477  12.785  20.441  0.00  0.00    +0.000 A 
BRANCH  23  28
ATOM     28  N   UNL     1      -3.577  12.828  21.709  0.00  0.00    +0.000 N 
ATOM     29  C   UNL     1      -3.870  13.716  22.848  0.00  0.00    +0.000 C 
ATOM     30  C   UNL     1      -5.147  13.217  23.560  0.00  0.00    +0.000 C 
ATOM     31  N   UNL     1      -6.313  13.129  22.649  0.00  0.00    +0.000 NA
ATOM     32  C   UNL     1      -7.461  12.567  23.357  0.00  0.00    +0.000 C 
ATOM     33  C   UNL     1      -5.962  12.295  21.471  0.00  0.00    +0.000 C 
ATOM     34  C   UNL     1      -4.690  12.802  20.740  0.00  0.00    +0.000 C 
ENDBRANCH  23  28
BRANCH  21  36
ATOM     35  C   UNL     1      -0.070  15.690  18.847  0.00  0.00    +0.000 C 
ATOM     36  O   UNL     1      -0.025  14.275  18.672  0.00  0.00    +0.000 OA
ENDBRANCH  21  36
ENDBRANCH   1  27
TORSDOF 3
ENDMDL
MODEL 4
REMARK VINA RESULT:      -5.9      3.398     10.763
REMARK  Name = 
REMARK  9 active torsions:
REMARK  status: ('A' for Active; 'I' for Inactive)
REMARK    1  A    between atoms: C_1  and  O_2
REMARK    2  A    between atoms: O_2  and  C_3
REMARK    3  A    between atoms: C_5  and  N_6
REMARK    4  A    between atoms: N_9  and  C_10
REMARK    5  A    between atoms: C_13  and  C_14
REMARK    6  A    between atoms: C_16  and  N_17
REMARK    7  A    between atoms: N_24  and  C_25
REMARK    8  A    between atoms: C_28  and  C_29
REMARK    9  A    between atoms: N_34  and  C_35
REMARK                            x       y       z     vdW  Elec       q    Type
REMARK                         _______ _______ _______ _____ _____    ______ ____
ROOT
ATOM      1  N   UNL     1       2.069  13.929  20.241  0.00  0.00    +0.000 N 
ATOM      2  C   UNL     1       3.352  14.135  20.769  0.00  0.00    +0.000 A 
ATOM      3  N   UNL     1       3.688  13.651  21.952  0.00  0.00    +0.000 NA
ATOM      4  C   UNL     1       4.864  14.047  22.464  0.00  0.00    +0.000 A 
ATOM      5  C   UNL     1       5.772  14.926  21.878  0.00  0.00    +0.000 A 
ATOM      6  C   UNL     1       5.396  15.315  20.593  0.00  0.00    +0.000 A 
ATOM      7  N   UNL     1       4.196  14.896  20.072  0.00  0.00    +0.000 NA
ATOM      8  N   UNL     1       6.115  16.206  19.771  0.00  0.00    +0.000 N 
ATOM      9  C   UNL     1       5.389  16.630  18.552  0.00  0.00    +0.000 C 
ATOM     10  C   UNL     1       7.414  16.625  19.919  0.00  0.00    +0.000 A 
ATOM     11  S   UNL     1       8.182  17.616  18.693  0.00  0.00    +0.000 S 
ATOM     12  C   UNL     1       9.590  17.747  19.620  0.00  0.00    +0.000 A 
ATOM     13  C   UNL     1      10.707  18.627  19.176  0.00  0.00    +0.000 C 
ATOM     14  N   UNL     1       9.589  17.044  20.718  0.00  0.00    +0.000 NA
ATOM     15  C   UNL     1       8.343  16.411  20.925  0.00  0.00    +0.000 A 
ATOM     16  C   UNL     1       8.177  15.716  22.190  0.00  0.00    +0.000 C 
ATOM     17  O   UNL     1       9.161  15.568  22.925  0.00  0.00    +0.000 OA
ATOM     18  N   UNL     1       6.924  15.299  22.650  0.00  0.00    +0.000 N 
ATOM     19  C   UNL     1       6.793  15.292  24.114  0.00  0.00    +0.000 C 
ATOM     20  H   UNL     1       1.928  14.522  19.430  0.00  0.00    +0.000 HD
ENDROOT
BRANCH   1  27
ATOM     21  C   UNL     1       0.342  12.389  21.067  0.00  0.00    +0.000 A 
ATOM     22  C   UNL     1      -0.912  12.198  21.680  0.00  0.00    +0.000 A 
ATOM     23  C   UNL     1      -1.691  13.266  22.169  0.00  0.00    +0.000 A 
ATOM     24  C   UNL     1      -1.125  14.549  22.118  0.00  0.00    +0.000 A 
ATOM     25  C   UNL     1      -1.822  15.821  22.521  0.00  0.00    +0.000 C 
ATOM     26  C   UNL     1       0.150  14.725  21.553  0.00  0.00    +0.000 A 
ATOM     27  C   UNL     1       0.870  13.687  20.956  0.00  0.00    +0.000 A 
BRANCH  23  28
ATOM     28  N   UNL     1      -2.999  13.066  22.594  0.00  0.00    +0.000 N 
ATOM     29  C   UNL     1      -4.085  12.949  21.604  0.00  0.00    +0.000 C 
ATOM     30  C   UNL     1      -5.418  13.360  22.268  0.00  0.00    +0.000 C 
ATOM     31  N   UNL     1      -5.724  12.565  23.480  0.00  0.00    +0.000 NA
ATOM     32  C   UNL     1      -6.945  13.061  24.111  0.00  0.00    +0.000 C 
ATOM     33  C   UNL     1      -4.579  12.636  24.424  0.00  0.00    +0.000 C 
ATOM     34  C   UNL     1      -3.239  12.205  23.769  0.00  0.00    +0.000 C 
ENDBRANCH  23  28
BRANCH  21  36
ATOM     35  C   UNL     1       0.425  10.492  19.626  0.00  0.00    +0.000 C 
ATOM     36  O   UNL     1       1.097  11.372  20.525  0.00  0.00    +0.000 OA
ENDBRANCH  21  36
ENDBRANCH   1  27
TORSDOF 3
ENDMDL
MODEL 5
REMARK VINA RESULT:      -5.7      1.709      2.053
REMARK  Name = 
REMARK  9 active torsions:
REMARK  status: ('A' for Active; 'I' for Inactive)
REMARK    1  A    between atoms: C_1  and  O_2
REMARK    2  A    between atoms: O_2  and  C_3
REMARK    3  A    between atoms: C_5  and  N_6
REMARK    4  A    between atoms: N_9  and  C_10
REMARK    5  A    between atoms: C_13  and  C_14
REMARK    6  A    between atoms: C_16  and  N_17
REMARK    7  A    between atoms: N_24  and  C_25
REMARK    8  A    between atoms: C_28  and  C_29
REMARK    9  A    between atoms: N_34  and  C_35
REMARK                            x       y       z     vdW  Elec       q    Type
REMARK                         _______ _______ _______ _____ _____    ______ ____
ROOT
ATOM      1  N   UNL     1       2.756  16.567  20.241  0.00  0.00    +0.000 N 
ATOM      2  C   UNL     1       1.728  15.746  20.729  0.00  0.00    +0.000 A 
ATOM      3  N   UNL     1       1.988  14.546  21.217  0.00  0.00    +0.000 NA
ATOM      4  C   UNL     1       0.938  13.755  21.490  0.00  0.00    +0.000 A 
ATOM      5  C   UNL     1      -0.407  14.066  21.304  0.00  0.00    +0.000 A 
ATOM      6  C   UNL     1      -0.605  15.380  20.882  0.00  0.00    +0.000 A 
ATOM      7  N   UNL     1       0.475  16.186  20.616  0.00  0.00    +0.000 NA
ATOM      8  N   UNL     1      -1.858  15.964  20.603  0.00  0.00    +0.000 N 
ATOM      9  C   UNL     1      -1.779  17.293  19.954  0.00  0.00    +0.000 C 
ATOM     10  C   UNL     1      -3.100  15.497  20.954  0.00  0.00    +0.000 A 
ATOM     11  S   UNL     1      -4.537  16.457  20.652  0.00  0.00    +0.000 S 
ATOM     12  C   UNL     1      -5.535  15.223  21.237  0.00  0.00    +0.000 A 
ATOM     13  C   UNL     1      -7.017  15.348  21.154  0.00  0.00    +0.000 C 
ATOM     14  N   UNL     1      -4.902  14.195  21.730  0.00  0.00    +0.000 NA
ATOM     15  C   UNL     1      -3.505  14.317  21.557  0.00  0.00    +0.000 A 
ATOM     16  C   UNL     1      -2.707  13.165  21.938  0.00  0.00    +0.000 C 
ATOM     17  O   UNL     1      -3.253  12.231  22.540  0.00  0.00    +0.000 OA
ATOM     18  N   UNL     1      -1.368  13.030  21.561  0.00  0.00    +0.000 N 
ATOM     19  C   UNL     1      -0.932  11.638  21.372  0.00  0.00    +0.000 C 
ATOM     20  H   UNL     1       2.362  17.355  19.739  0.00  0.00    +0.000 HD
ENDROOT
BRANCH   1  27
ATOM     21  C   UNL     1       4.147  15.751  18.390  0.00  0.00    +0.000 A 
ATOM     22  C   UNL     1       5.382  15.241  17.940  0.00  0.00    +0.000 A 
ATOM     23  C   UNL     1       6.498  15.091  18.788  0.00  0.00    +0.000 A 
ATOM     24  C   UNL     1       6.375  15.571  20.101  0.00  0.00    +0.000 A 
ATOM     25  C   UNL     1       7.422  15.439  21.174  0.00  0.00    +0.000 C 
ATOM     26  C   UNL     1       5.156  16.128  20.527  0.00  0.00    +0.000 A 
ATOM     27  C   UNL     1       4.011  16.163  19.726  0.00  0.00    +0.000 A 
BRANCH  23  28
ATOM     28  N   UNL     1       7.636  14.414  18.367  0.00  0.00    +0.000 N 
ATOM     29  C   UNL     1       7.507  13.221  17.510  0.00  0.00    +0.000 C 
ATOM     30  C   UNL     1       8.753  12.328  17.700  0.00  0.00    +0.000 C 
ATOM     31  N   UNL     1      10.020  13.045  17.417  0.00  0.00    +0.000 NA
ATOM     32  C   UNL     1      11.161  12.177  17.701  0.00  0.00    +0.000 C 
ATOM     33  C   UNL     1      10.084  14.283  18.235  0.00  0.00    +0.000 C 
ATOM     34  C   UNL     1       8.844  15.194  18.034  0.00  0.00    +0.000 C 
ENDBRANCH  23  28
BRANCH  21  36
ATOM     35  C   UNL     1       2.911  17.026  16.799  0.00  0.00    +0.000 C 
ATOM     36  O   UNL     1       3.023  15.851  17.600  0.00  0.00    +0.000 OA
ENDBRANCH  21  36
ENDBRANCH   1  27
TORSDOF 3
ENDMDL
MODEL 6
REMARK VINA RESULT:      -5.7      5.862      7.091
REMARK  Name = 
REMARK  9 active torsions:
REMARK  status: ('A' for Active; 'I' for Inactive)
REMARK    1  A    between atoms: C_1  and  O_2
REMARK    2  A    between atoms: O_2  and  C_3
REMARK    3  A    between atoms: C_5  and  N_6
REMARK    4  A    between atoms: N_9  and  C_10
REMARK    5  A    between atoms: C_13  and  C_14
REMARK    6  A    between atoms: C_16  and  N_17
REMARK    7  A    between atoms: N_24  and  C_25
REMARK    8  A    between atoms: C_28  and  C_29
REMARK    9  A    between atoms: N_34  and  C_35
REMARK                            x       y       z     vdW  Elec       q    Type
REMARK                         _______ _______ _______ _____ _____    ______ ____
ROOT
ATOM      1  N   UNL     1      -1.604  11.153  20.038  0.00  0.00    +0.000 N 
ATOM      2  C   UNL     1      -1.576  12.524  20.332  0.00  0.00    +0.000 A 
ATOM      3  N   UNL     1      -0.620  13.304  19.859  0.00  0.00    +0.000 NA
ATOM      4  C   UNL     1      -0.561  14.559  20.335  0.00  0.00    +0.000 A 
ATOM      5  C   UNL     1      -1.404  15.126  21.287  0.00  0.00    +0.000 A 
ATOM      6  C   UNL     1      -2.444  14.278  21.664  0.00  0.00    +0.000 A 
ATOM      7  N   UNL     1      -2.503  13.000  21.163  0.00  0.00    +0.000 NA
ATOM      8  N   UNL     1      -3.436  14.583  22.618  0.00  0.00    +0.000 N 
ATOM      9  C   UNL     1      -4.285  13.432  23.002  0.00  0.00    +0.000 C 
ATOM     10  C   UNL     1      -3.760  15.814  23.130  0.00  0.00    +0.000 A 
ATOM     11  S   UNL     1      -5.142  16.009  24.192  0.00  0.00    +0.000 S 
ATOM     12  C   UNL     1      -4.793  17.649  24.417  0.00  0.00    +0.000 A 
ATOM     13  C   UNL     1      -5.581  18.463  25.383  0.00  0.00    +0.000 C 
ATOM     14  N   UNL     1      -3.800  18.099  23.701  0.00  0.00    +0.000 NA
ATOM     15  C   UNL     1      -3.175  17.061  22.973  0.00  0.00    +0.000 A 
ATOM     16  C   UNL     1      -1.967  17.419  22.251  0.00  0.00    +0.000 C 
ATOM     17  O   UNL     1      -1.651  18.613  22.168  0.00  0.00    +0.000 OA
ATOM     18  N   UNL     1      -1.095  16.455  21.735  0.00  0.00    +0.000 N 
ATOM     19  C   UNL     1       0.314  16.875  21.699  0.00  0.00    +0.000 C 
ATOM     20  H   UNL     1      -2.282  10.685  20.629  0.00  0.00    +0.000 HD
ENDROOT
BRANCH   1  27
ATOM     21  C   UNL     1      -0.181  10.069  18.354  0.00  0.00    +0.000 A 
ATOM     22  C   UNL     1       0.837   9.144  18.047  0.00  0.00    +0.000 A 
ATOM     23  C   UNL     1       1.534   8.423  19.038  0.00  0.00    +0.000 A 
ATOM     24  C   UNL     1       1.250   8.735  20.377  0.00  0.00    +0.000 A 
ATOM     25  C   UNL     1       1.832   8.030  21.573  0.00  0.00    +0.000 C 
ATOM     26  C   UNL     1       0.270   9.698  20.674  0.00  0.00    +0.000 A 
ATOM     27  C   UNL     1      -0.509  10.322  19.697  0.00  0.00    +0.000 A 
BRANCH  23  28
ATOM     28  N   UNL     1       2.395   7.386  18.701  0.00  0.00    +0.000 N 
ATOM     29  C   UNL     1       1.956   5.987  18.855  0.00  0.00    +0.000 C 
ATOM     30  C   UNL     1       3.199   5.087  19.034  0.00  0.00    +0.000 C 
ATOM     31  N   UNL     1       4.165   5.215  17.917  0.00  0.00    +0.000 NA
ATOM     32  C   UNL     1       5.355   4.412  18.188  0.00  0.00    +0.000 C 
ATOM     33  C   UNL     1       4.526   6.644  17.733  0.00  0.00    +0.000 C 
ATOM     34  C   UNL     1       3.283   7.551  17.533  0.00  0.00    +0.000 C 
ENDBRANCH  23  28
BRANCH  21  36
ATOM     35  C   UNL     1      -1.992  10.015  16.803  0.00  0.00    +0.000 C 
ATOM     36  O   UNL     1      -0.922  10.741  17.405  0.00  0.00    +0.000 OA
ENDBRANCH  21  36
ENDBRANCH   1  27
TORSDOF 3
ENDMDL
MODEL 7
REMARK VINA RESULT:      -5.7      0.701      1.078
REMARK  Name = 
REMARK  9 active torsions:
REMARK  status: ('A' for Active; 'I' for Inactive)
REMARK    1  A    between atoms: C_1  and  O_2
REMARK    2  A    between atoms: O_2  and  C_3
REMARK    3  A    between atoms: C_5  and  N_6
REMARK    4  A    between atoms: N_9  and  C_10
REMARK    5  A    between atoms: C_13  and  C_14
REMARK    6  A    between atoms: C_16  and  N_17
REMARK    7  A    between atoms: N_24  and  C_25
REMARK    8  A    between atoms: C_28  and  C_29
REMARK    9  A    between atoms: N_34  and  C_35
REMARK                            x       y       z     vdW  Elec       q    Type
REMARK                         _______ _______ _______ _____ _____    ______ ____
ROOT
ATOM      1  N   UNL     1       4.082  15.241  21.936  0.00  0.00    +0.000 N 
ATOM      2  C   UNL     1       2.905  14.564  21.586  0.00  0.00    +0.000 A 
ATOM      3  N   UNL     1       2.948  13.383  20.995  0.00  0.00    +0.000 NA
ATOM      4  C   UNL     1       1.790  12.888  20.529  0.00  0.00    +0.000 A 
ATOM      5  C   UNL     1       0.539  13.497  20.598  0.00  0.00    +0.000 A 
ATOM      6  C   UNL     1       0.556  14.688  21.321  0.00  0.00    +0.000 A 
ATOM      7  N   UNL     1       1.744  15.182  21.804  0.00  0.00    +0.000 NA
ATOM      8  N   UNL     1      -0.559  15.522  21.540  0.00  0.00    +0.000 N 
ATOM      9  C   UNL     1      -0.230  16.835  22.138  0.00  0.00    +0.000 C 
ATOM     10  C   UNL     1      -1.885  15.215  21.365  0.00  0.00    +0.000 A 
ATOM     11  S   UNL     1      -3.139  16.342  21.850  0.00  0.00    +0.000 S 
ATOM     12  C   UNL     1      -4.348  15.322  21.250  0.00  0.00    +0.000 A 
ATOM     13  C   UNL     1      -5.770  15.763  21.238  0.00  0.00    +0.000 C 
ATOM     14  N   UNL     1      -3.922  14.172  20.807  0.00  0.00    +0.000 NA
ATOM     15  C   UNL     1      -2.512  14.096  20.839  0.00  0.00    +0.000 A 
ATOM     16  C   UNL     1      -1.917  12.915  20.235  0.00  0.00    +0.000 C 
ATOM     17  O   UNL     1      -2.655  11.984  19.890  0.00  0.00    +0.000 OA
ATOM     18  N   UNL     1      -0.553  12.839  19.937  0.00  0.00    +0.000 N 
ATOM     19  C   UNL     1      -0.238  12.003  18.769  0.00  0.00    +0.000 C 
ATOM     20  H   UNL     1       3.867  16.197  22.198  0.00  0.00    +0.000 HD
ENDROOT
BRANCH   1  27
ATOM     21  C   UNL     1       5.624  15.642  20.066  0.00  0.00    +0.000 A 
ATOM     22  C   UNL     1       6.867  15.394  19.451  0.00  0.00    +0.000 A 
ATOM     23  C   UNL     1       7.866  14.599  20.048  0.00  0.00    +0.000 A 
ATOM     24  C   UNL     1       7.623  14.133  21.349  0.00  0.00    +0.000 A 
ATOM     25  C   UNL     1       8.529  13.215  22.125  0.00  0.00    +0.000 C 
ATOM     26  C   UNL     1       6.401  14.431  21.978  0.00  0.00    +0.000 A 
ATOM     27  C   UNL     1       5.361  15.112  21.341  0.00  0.00    +0.000 A 
BRANCH  23  28
ATOM     28  N   UNL     1       9.000  14.216  19.340  0.00  0.00    +0.000 N 
ATOM     29  C   UNL     1      10.314  14.775  19.701  0.00  0.00    +0.000 C 
ATOM     30  C   UNL     1      11.241  14.722  18.466  0.00  0.00    +0.000 C 
ATOM     31  N   UNL     1      11.384  13.353  17.916  0.00  0.00    +0.000 NA
ATOM     32  C   UNL     1      12.194  13.383  16.700  0.00  0.00    +0.000 C 
ATOM     33  C   UNL     1      10.040  12.786  17.637  0.00  0.00    +0.000 C 
ATOM     34  C   UNL     1       9.111  12.818  18.880  0.00  0.00    +0.000 C 
ENDBRANCH  23  28
BRANCH  21  36
ATOM     35  C   UNL     1       4.051  15.821  18.283  0.00  0.00    +0.000 C 
ATOM     36  O   UNL     1       4.606  16.363  19.480  0.00  0.00    +0.000 OA
ENDBRANCH  21  36
ENDBRANCH   1  27
TORSDOF 3
ENDMDL
MODEL 8
REMARK VINA RESULT:      -5.7      3.290     10.884
REMARK  Name = 
REMARK  9 active torsions:
REMARK  status: ('A' for Active; 'I' for Inactive)
REMARK    1  A    between atoms: C_1  and  O_2
REMARK    2  A    between atoms: O_2  and  C_3
REMARK    3  A    between atoms: C_5  and  N_6
REMARK    4  A    between atoms: N_9  and  C_10
REMARK    5  A    between atoms: C_13  and  C_14
REMARK    6  A    between atoms: C_16  and  N_17
REMARK    7  A    between atoms: N_24  and  C_25
REMARK    8  A    between atoms: C_28  and  C_29
REMARK    9  A    between atoms: N_34  and  C_35
REMARK                            x       y       z     vdW  Elec       q    Type
REMARK                         _______ _______ _______ _____ _____    ______ ____
ROOT
ATOM      1  N   UNL     1       1.686  13.059  20.696  0.00  0.00    +0.000 N 
ATOM      2  C   UNL     1       2.740  13.902  21.079  0.00  0.00    +0.000 A 
ATOM      3  N   UNL     1       2.737  14.507  22.254  0.00  0.00    +0.000 NA
ATOM      4  C   UNL     1       3.683  15.435  22.467  0.00  0.00    +0.000 A 
ATOM      5  C   UNL     1       4.671  15.835  21.571  0.00  0.00    +0.000 A 
ATOM      6  C   UNL     1       4.673  15.085  20.396  0.00  0.00    +0.000 A 
ATOM      7  N   UNL     1       3.707  14.129  20.191  0.00  0.00    +0.000 NA
ATOM      8  N   UNL     1       5.551  15.277  19.310  0.00  0.00    +0.000 N 
ATOM      9  C   UNL     1       5.197  14.505  18.097  0.00  0.00    +0.000 C 
ATOM     10  C   UNL     1       6.720  15.995  19.291  0.00  0.00    +0.000 A 
ATOM     11  S   UNL     1       7.759  15.980  17.879  0.00  0.00    +0.000 S 
ATOM     12  C   UNL     1       8.819  17.088  18.593  0.00  0.00    +0.000 A 
ATOM     13  C   UNL     1       9.965  17.643  17.820  0.00  0.00    +0.000 C 
ATOM     14  N   UNL     1       8.532  17.401  19.826  0.00  0.00    +0.000 NA
ATOM     15  C   UNL     1       7.319  16.807  20.241  0.00  0.00    +0.000 A 
ATOM     16  C   UNL     1       6.825  17.201  21.549  0.00  0.00    +0.000 C 
ATOM     17  O   UNL     1       7.554  17.879  22.285  0.00  0.00    +0.000 OA
ATOM     18  N   UNL     1       5.519  16.926  21.965  0.00  0.00    +0.000 N 
ATOM     19  C   UNL     1       4.958  17.922  22.889  0.00  0.00    +0.000 C 
ATOM     20  H   UNL     1       1.759  12.839  19.709  0.00  0.00    +0.000 HD
ENDROOT
BRANCH   1  27
ATOM     21  C   UNL     1      -0.236  11.977  21.777  0.00  0.00    +0.000 A 
ATOM     22  C   UNL     1      -1.606  12.000  22.109  0.00  0.00    +0.000 A 
ATOM     23  C   UNL     1      -2.443  13.094  21.813  0.00  0.00    +0.000 A 
ATOM     24  C   UNL     1      -1.839  14.231  21.254  0.00  0.00    +0.000 A 
ATOM     25  C   UNL     1      -2.569  15.467  20.802  0.00  0.00    +0.000 C 
ATOM     26  C   UNL     1      -0.461  14.220  20.974  0.00  0.00    +0.000 A 
ATOM     27  C   UNL     1       0.345  13.093  21.152  0.00  0.00    +0.000 A 
BRANCH  23  28
ATOM     28  N   UNL     1      -3.820  13.012  21.980  0.00  0.00    +0.000 N 
ATOM     29  C   UNL     1      -4.469  13.728  23.093  0.00  0.00    +0.000 C 
ATOM     30  C   UNL     1      -5.796  13.019  23.442  0.00  0.00    +0.000 C 
ATOM     31  N   UNL     1      -6.711  12.911  22.282  0.00  0.00    +0.000 NA
ATOM     32  C   UNL     1      -7.904  12.153  22.652  0.00  0.00    +0.000 C 
ATOM     33  C   UNL     1      -6.004  12.258  21.150  0.00  0.00    +0.000 C 
ATOM     34  C   UNL     1      -4.680  12.978  20.781  0.00  0.00    +0.000 C 
ENDBRANCH  23  28
BRANCH  21  36
ATOM     35  C   UNL     1      -0.035   9.700  22.457  0.00  0.00    +0.000 C 
ATOM     36  O   UNL     1       0.591  10.897  21.998  0.00  0.00    +0.000 OA
ENDBRANCH  21  36
ENDBRANCH   1  27
TORSDOF 3
ENDMDL
MODEL 9
REMARK VINA RESULT:      -5.6      1.691      2.237
REMARK  Name = 
REMARK  9 active torsions:
REMARK  status: ('A' for Active; 'I' for Inactive)
REMARK    1  A    between atoms: C_1  and  O_2
REMARK    2  A    between atoms: O_2  and  C_3
REMARK    3  A    between atoms: C_5  and  N_6
REMARK    4  A    between atoms: N_9  and  C_10
REMARK    5  A    between atoms: C_13  and  C_14
REMARK    6  A    between atoms: C_16  and  N_17
REMARK    7  A    between atoms: N_24  and  C_25
REMARK    8  A    between atoms: C_28  and  C_29
REMARK    9  A    between atoms: N_34  and  C_35
REMARK                            x       y       z     vdW  Elec       q    Type
REMARK                         _______ _______ _______ _____ _____    ______ ____
ROOT
ATOM      1  N   UNL     1       2.021  14.851  21.955  0.00  0.00    +0.000 N 
ATOM      2  C   UNL     1       0.988  14.107  21.366  0.00  0.00    +0.000 A 
ATOM      3  N   UNL     1       1.250  13.111  20.537  0.00  0.00    +0.000 NA
ATOM      4  C   UNL     1       0.212  12.573  19.877  0.00  0.00    +0.000 A 
ATOM      5  C   UNL     1      -1.122  12.961  19.971  0.00  0.00    +0.000 A 
ATOM      6  C   UNL     1      -1.334  13.945  20.935  0.00  0.00    +0.000 A 
ATOM      7  N   UNL     1      -0.267  14.482  21.614  0.00  0.00    +0.000 NA
ATOM      8  N   UNL     1      -2.579  14.534  21.235  0.00  0.00    +0.000 N 
ATOM      9  C   UNL     1      -2.496  15.709  22.132  0.00  0.00    +0.000 C 
ATOM     10  C   UNL     1      -3.828  14.085  20.886  0.00  0.00    +0.000 A 
ATOM     11  S   UNL     1      -5.269  14.876  21.496  0.00  0.00    +0.000 S 
ATOM     12  C   UNL     1      -6.266  13.856  20.587  0.00  0.00    +0.000 A 
ATOM     13  C   UNL     1      -7.739  14.076  20.551  0.00  0.00    +0.000 C 
ATOM     14  N   UNL     1      -5.639  12.912  19.941  0.00  0.00    +0.000 NA
ATOM     15  C   UNL     1      -4.238  13.037  20.076  0.00  0.00    +0.000 A 
ATOM     16  C   UNL     1      -3.431  12.126  19.282  0.00  0.00    +0.000 C 
ATOM     17  O   UNL     1      -3.992  11.201  18.680  0.00  0.00    +0.000 OA
ATOM     18  N   UNL     1      -2.060  12.320  19.091  0.00  0.00    +0.000 N 
ATOM     19  C   UNL     1      -1.556  11.829  17.801  0.00  0.00    +0.000 C 
ATOM     20  H   UNL     1       1.642  15.679  22.400  0.00  0.00    +0.000 HD
ENDROOT
BRANCH   1  27
ATOM     21  C   UNL     1       3.557  15.783  20.279  0.00  0.00    +0.000 A 
ATOM     22  C   UNL     1       4.858  15.861  19.745  0.00  0.00    +0.000 A 
ATOM     23  C   UNL     1       5.960  15.201  20.325  0.00  0.00    +0.000 A 
ATOM     24  C   UNL     1       5.740  14.531  21.539  0.00  0.00    +0.000 A 
ATOM     25  C   UNL     1       6.766  13.711  22.274  0.00  0.00    +0.000 C 
ATOM     26  C   UNL     1       4.449  14.502  22.094  0.00  0.00    +0.000 A 
ATOM     27  C   UNL     1       3.332  15.049  21.457  0.00  0.00    +0.000 A 
BRANCH  23  28
ATOM     28  N   UNL     1       7.187  15.140  19.675  0.00  0.00    +0.000 N 
ATOM     29  C   UNL     1       7.280  14.532  18.336  0.00  0.00    +0.000 C 
ATOM     30  C   UNL     1       8.722  14.022  18.114  0.00  0.00    +0.000 C 
ATOM     31  N   UNL     1       9.738  15.089  18.278  0.00  0.00    +0.000 NA
ATOM     32  C   UNL     1      11.080  14.527  18.146  0.00  0.00    +0.000 C 
ATOM     33  C   UNL     1       9.567  15.738  19.603  0.00  0.00    +0.000 C 
ATOM     34  C   UNL     1       8.126  16.269  19.825  0.00  0.00    +0.000 C 
ENDBRANCH  23  28
BRANCH  21  36
ATOM     35  C   UNL     1       2.200  16.033  18.334  0.00  0.00    +0.000 C 
ATOM     36  O   UNL     1       2.450  16.365  19.699  0.00  0.00    +0.000 OA
ENDBRANCH  21  36
ENDBRANCH   1  27
TORSDOF 3
ENDMDL
