MODEL 1
REMARK VINA RESULT:      -7.4      0.000      0.000
REMARK  Name = 
REMARK  12 active torsions:
REMARK  status: ('A' for Active; 'I' for Inactive)
REMARK    1  A    between atoms: C_1  and  C_2
REMARK    2  A    between atoms: C_2  and  C_6
REMARK    3  A    between atoms: C_3  and  C_4
REMARK    4  A    between atoms: C_4  and  O_5
REMARK    5  A    between atoms: C_6  and  O_7
REMARK    6  A    between atoms: C_6  and  C_8
REMARK    7  A    between atoms: C_8  and  C_9
REMARK    8  A    between atoms: C_10  and  C_11
REMARK    9  A    between atoms: C_15  and  C_16
REMARK   10  A    between atoms: C_15  and  C_17
REMARK   11  A    between atoms: C_21  and  C_22
REMARK   12  A    between atoms: C_21  and  O_23
REMARK                            x       y       z     vdW  Elec       q    Type
REMARK                         _______ _______ _______ _____ _____    ______ ____
ROOT
ATOM      1  C   UNL     1       4.894   4.409  17.518  0.00  0.00    +0.000 C 
ATOM      2  C   UNL     1       3.508   3.743  17.989  0.00  0.00    +0.000 C 
ATOM      3  C   UNL     1       2.344   4.242  17.103  0.00  0.00    +0.000 C 
ATOM      4  C   UNL     1       3.578   2.193  17.817  0.00  0.00    +0.000 C 
ATOM      5  C   UNL     1       2.388   1.449  18.433  0.00  0.00    +0.000 C 
ATOM      6  C   UNL     1       2.212   1.764  19.913  0.00  0.00    +0.000 C 
ATOM      7  C   UNL     1       2.133   3.273  20.246  0.00  0.00    +0.000 C 
ATOM      8  C   UNL     1       0.732   3.832  19.928  0.00  0.00    +0.000 C 
ATOM      9  C   UNL     1       2.286   3.391  21.788  0.00  0.00    +0.000 C 
ATOM     10  C   UNL     1       3.316   4.022  19.530  0.00  0.00    +0.000 C 
ATOM     11  C   UNL     1       3.380   5.526  19.839  0.00  0.00    +0.000 C 
ATOM     12  C   UNL     1       4.747   6.079  19.464  0.00  0.00    +0.000 C 
ATOM     13  C   UNL     1       5.092   5.898  17.984  0.00  0.00    +0.000 C 
ATOM     14  C   UNL     1       4.350   6.950  17.145  0.00  0.00    +0.000 C 
ENDROOT
BRANCH  13  15
ATOM     15  O   UNL     1       6.479   6.267  17.894  0.00  0.00    +0.000 OA
ATOM     16  H   UNL     1       6.615   6.844  17.119  0.00  0.00    +0.000 HD
ENDBRANCH  13  15
BRANCH   1  17
ATOM     17  C   UNL     1       5.174   4.192  15.995  0.00  0.00    +0.000 C 
BRANCH  17  18
ATOM     18  C   UNL     1       6.490   4.762  15.437  0.00  0.00    +0.000 C 
BRANCH  18  20
ATOM     19  C   UNL     1       7.771   5.187  13.225  0.00  0.00    +0.000 C 
ATOM     20  C   UNL     1       6.645   4.497  13.944  0.00  0.00    +0.000 C 
ATOM     21  C   UNL     1       5.820   3.604  13.346  0.00  0.00    +0.000 C 
BRANCH  21  22
ATOM     22  C   UNL     1       5.798   3.194  11.911  0.00  0.00    +0.000 C 
BRANCH  22  23
ATOM     23  O   UNL     1       6.019   1.796  11.836  0.00  0.00    +0.000 OA
ATOM     24  H   UNL     1       6.519   1.634  11.020  0.00  0.00    +0.000 HD
ENDBRANCH  22  23
ENDBRANCH  21  22
ENDBRANCH  18  20
BRANCH  18  25
ATOM     25  O   UNL     1       7.590   4.237  16.167  0.00  0.00    +0.000 OA
ATOM     26  H   UNL     1       8.058   3.616  15.586  0.00  0.00    +0.000 HD
ENDBRANCH  18  25
ENDBRANCH  17  18
ENDBRANCH   1  17
TORSDOF 7
ENDMDL
MODEL 2
REMARK VINA RESULT:      -6.8      1.435      1.819
REMARK  Name = 
REMARK  12 active torsions:
REMARK  status: ('A' for Active; 'I' for Inactive)
REMARK    1  A    between atoms: C_1  and  C_2
REMARK    2  A    between atoms: C_2  and  C_6
REMARK    3  A    between atoms: C_3  and  C_4
REMARK    4  A    between atoms: C_4  and  O_5
REMARK    5  A    between atoms: C_6  and  O_7
REMARK    6  A    between atoms: C_6  and  C_8
REMARK    7  A    between atoms: C_8  and  C_9
REMARK    8  A    between atoms: C_10  and  C_11
REMARK    9  A    between atoms: C_15  and  C_16
REMARK   10  A    between atoms: C_15  and  C_17
REMARK   11  A    between atoms: C_21  and  C_22
REMARK   12  A    between atoms: C_21  and  O_23
REMARK                            x       y       z     vdW  Elec       q    Type
REMARK                         _______ _______ _______ _____ _____    ______ ____
ROOT
ATOM      1  C   UNL     1       5.358   4.717  16.968  0.00  0.00    +0.000 C 
ATOM      2  C   UNL     1       3.901   5.058  17.558  0.00  0.00    +0.000 C 
ATOM      3  C   UNL     1       3.499   6.506  17.193  0.00  0.00    +0.000 C 
ATOM      4  C   UNL     1       2.835   4.115  16.919  0.00  0.00    +0.000 C 
ATOM      5  C   UNL     1       1.451   4.218  17.570  0.00  0.00    +0.000 C 
ATOM      6  C   UNL     1       1.495   3.953  19.069  0.00  0.00    +0.000 C 
ATOM      7  C   UNL     1       2.519   4.815  19.846  0.00  0.00    +0.000 C 
ATOM      8  C   UNL     1       1.972   6.238  20.081  0.00  0.00    +0.000 C 
ATOM      9  C   UNL     1       2.644   4.181  21.259  0.00  0.00    +0.000 C 
ATOM     10  C   UNL     1       3.906   4.759  19.108  0.00  0.00    +0.000 C 
ATOM     11  C   UNL     1       5.025   5.530  19.824  0.00  0.00    +0.000 C 
ATOM     12  C   UNL     1       6.383   5.093  19.293  0.00  0.00    +0.000 C 
ATOM     13  C   UNL     1       6.552   5.326  17.790  0.00  0.00    +0.000 C 
ATOM     14  C   UNL     1       6.839   6.812  17.523  0.00  0.00    +0.000 C 
ENDROOT
BRANCH  13  15
ATOM     15  O   UNL     1       7.779   4.650  17.461  0.00  0.00    +0.000 OA
ATOM     16  H   UNL     1       8.503   4.999  18.013  0.00  0.00    +0.000 HD
ENDBRANCH  13  15
BRANCH   1  17
ATOM     17  C   UNL     1       5.459   4.988  15.432  0.00  0.00    +0.000 C 
BRANCH  17  18
ATOM     18  C   UNL     1       6.487   4.161  14.640  0.00  0.00    +0.000 C 
BRANCH  18  20
ATOM     19  C   UNL     1       7.147   4.360  12.142  0.00  0.00    +0.000 C 
ATOM     20  C   UNL     1       6.105   4.020  13.172  0.00  0.00    +0.000 C 
ATOM     21  C   UNL     1       4.883   3.528  12.855  0.00  0.00    +0.000 C 
BRANCH  21  22
ATOM     22  C   UNL     1       4.308   3.305  11.495  0.00  0.00    +0.000 C 
BRANCH  22  23
ATOM     23  O   UNL     1       4.803   2.077  10.990  0.00  0.00    +0.000 OA
ATOM     24  H   UNL     1       5.772   2.134  11.011  0.00  0.00    +0.000 HD
ENDBRANCH  22  23
ENDBRANCH  21  22
ENDBRANCH  18  20
BRANCH  18  25
ATOM     25  O   UNL     1       6.653   2.889  15.250  0.00  0.00    +0.000 OA
ATOM     26  H   UNL     1       7.145   2.327  14.630  0.00  0.00    +0.000 HD
ENDBRANCH  18  25
ENDBRANCH  17  18
ENDBRANCH   1  17
TORSDOF 7
ENDMDL
MODEL 3
REMARK VINA RESULT:      -6.8      2.228      3.462
REMARK  Name = 
REMARK  12 active torsions:
REMARK  status: ('A' for Active; 'I' for Inactive)
REMARK    1  A    between atoms: C_1  and  C_2
REMARK    2  A    between atoms: C_2  and  C_6
REMARK    3  A    between atoms: C_3  and  C_4
REMARK    4  A    between atoms: C_4  and  O_5
REMARK    5  A    between atoms: C_6  and  O_7
REMARK    6  A    between atoms: C_6  and  C_8
REMARK    7  A    between atoms: C_8  and  C_9
REMARK    8  A    between atoms: C_10  and  C_11
REMARK    9  A    between atoms: C_15  and  C_16
REMARK   10  A    between atoms: C_15  and  C_17
REMARK   11  A    between atoms: C_21  and  C_22
REMARK   12  A    between atoms: C_21  and  O_23
REMARK                            x       y       z     vdW  Elec       q    Type
REMARK                         _______ _______ _______ _____ _____    ______ ____
ROOT
ATOM      1  C   UNL     1       4.006   5.649  17.923  0.00  0.00    +0.000 C 
ATOM      2  C   UNL     1       3.245   4.270  18.250  0.00  0.00    +0.000 C 
ATOM      3  C   UNL     1       2.157   3.992  17.187  0.00  0.00    +0.000 C 
ATOM      4  C   UNL     1       4.253   3.080  18.191  0.00  0.00    +0.000 C 
ATOM      5  C   UNL     1       3.672   1.754  18.692  0.00  0.00    +0.000 C 
ATOM      6  C   UNL     1       3.131   1.858  20.111  0.00  0.00    +0.000 C 
ATOM      7  C   UNL     1       2.115   3.006  20.331  0.00  0.00    +0.000 C 
ATOM      8  C   UNL     1       0.724   2.617  19.795  0.00  0.00    +0.000 C 
ATOM      9  C   UNL     1       1.942   3.150  21.868  0.00  0.00    +0.000 C 
ATOM     10  C   UNL     1       2.702   4.335  19.730  0.00  0.00    +0.000 C 
ATOM     11  C   UNL     1       1.807   5.565  19.945  0.00  0.00    +0.000 C 
ATOM     12  C   UNL     1       2.607   6.840  19.719  0.00  0.00    +0.000 C 
ATOM     13  C   UNL     1       3.202   6.943  18.313  0.00  0.00    +0.000 C 
ATOM     14  C   UNL     1       2.109   7.359  17.316  0.00  0.00    +0.000 C 
ENDROOT
BRANCH  13  15
ATOM     15  O   UNL     1       4.086   8.076  18.383  0.00  0.00    +0.000 OA
ATOM     16  H   UNL     1       3.833   8.642  19.135  0.00  0.00    +0.000 HD
ENDBRANCH  13  15
BRANCH   1  17
ATOM     17  C   UNL     1       4.577   5.687  16.469  0.00  0.00    +0.000 C 
BRANCH  17  18
ATOM     18  C   UNL     1       6.070   5.360  16.295  0.00  0.00    +0.000 C 
BRANCH  18  20
ATOM     19  C   UNL     1       7.180   7.558  17.104  0.00  0.00    +0.000 C 
ATOM     20  C   UNL     1       6.941   6.088  17.312  0.00  0.00    +0.000 C 
ATOM     21  C   UNL     1       7.399   5.408  18.391  0.00  0.00    +0.000 C 
BRANCH  21  22
ATOM     22  C   UNL     1       8.256   5.919  19.501  0.00  0.00    +0.000 C 
BRANCH  22  23
ATOM     23  O   UNL     1       7.964   5.181  20.675  0.00  0.00    +0.000 OA
ATOM     24  H   UNL     1       8.622   4.470  20.731  0.00  0.00    +0.000 HD
ENDBRANCH  22  23
ENDBRANCH  21  22
ENDBRANCH  18  20
BRANCH  18  25
ATOM     25  O   UNL     1       6.477   5.658  14.967  0.00  0.00    +0.000 OA
ATOM     26  H   UNL     1       7.446   5.604  14.937  0.00  0.00    +0.000 HD
ENDBRANCH  18  25
ENDBRANCH  17  18
ENDBRANCH   1  17
TORSDOF 7
ENDMDL
MODEL 4
REMARK VINA RESULT:      -6.7      2.152      3.417
REMARK  Name = 
REMARK  12 active torsions:
REMARK  status: ('A' for Active; 'I' for Inactive)
REMARK    1  A    between atoms: C_1  and  C_2
REMARK    2  A    between atoms: C_2  and  C_6
REMARK    3  A    between atoms: C_3  and  C_4
REMARK    4  A    between atoms: C_4  and  O_5
REMARK    5  A    between atoms: C_6  and  O_7
REMARK    6  A    between atoms: C_6  and  C_8
REMARK    7  A    between atoms: C_8  and  C_9
REMARK    8  A    between atoms: C_10  and  C_11
REMARK    9  A    between atoms: C_15  and  C_16
REMARK   10  A    between atoms: C_15  and  C_17
REMARK   11  A    between atoms: C_21  and  C_22
REMARK   12  A    between atoms: C_21  and  O_23
REMARK                            x       y       z     vdW  Elec       q    Type
REMARK                         _______ _______ _______ _____ _____    ______ ____
ROOT
ATOM      1  C   UNL     1       4.008   5.672  17.828  0.00  0.00    +0.000 C 
ATOM      2  C   UNL     1       3.240   4.307  18.192  0.00  0.00    +0.000 C 
ATOM      3  C   UNL     1       2.095   4.049  17.186  0.00  0.00    +0.000 C 
ATOM      4  C   UNL     1       4.222   3.099  18.082  0.00  0.00    +0.000 C 
ATOM      5  C   UNL     1       3.644   1.783  18.612  0.00  0.00    +0.000 C 
ATOM      6  C   UNL     1       3.176   1.895  20.057  0.00  0.00    +0.000 C 
ATOM      7  C   UNL     1       2.194   3.061  20.328  0.00  0.00    +0.000 C 
ATOM      8  C   UNL     1       0.770   2.698  19.863  0.00  0.00    +0.000 C 
ATOM      9  C   UNL     1       2.101   3.206  21.872  0.00  0.00    +0.000 C 
ATOM     10  C   UNL     1       2.774   4.380  19.699  0.00  0.00    +0.000 C 
ATOM     11  C   UNL     1       1.913   5.626  19.958  0.00  0.00    +0.000 C 
ATOM     12  C   UNL     1       2.723   6.886  19.693  0.00  0.00    +0.000 C 
ATOM     13  C   UNL     1       3.248   6.980  18.258  0.00  0.00    +0.000 C 
ATOM     14  C   UNL     1       2.114   7.417  17.317  0.00  0.00    +0.000 C 
ENDROOT
BRANCH  13  15
ATOM     15  O   UNL     1       4.155   8.096  18.283  0.00  0.00    +0.000 OA
ATOM     16  H   UNL     1       4.003   8.624  19.089  0.00  0.00    +0.000 HD
ENDBRANCH  13  15
BRANCH   1  17
ATOM     17  C   UNL     1       4.506   5.701  16.347  0.00  0.00    +0.000 C 
BRANCH  17  18
ATOM     18  C   UNL     1       5.952   5.246  16.085  0.00  0.00    +0.000 C 
BRANCH  18  20
ATOM     19  C   UNL     1       7.602   4.755  18.022  0.00  0.00    +0.000 C 
ATOM     20  C   UNL     1       6.919   5.765  17.142  0.00  0.00    +0.000 C 
ATOM     21  C   UNL     1       7.180   7.094  17.197  0.00  0.00    +0.000 C 
BRANCH  21  22
ATOM     22  C   UNL     1       8.088   7.811  18.140  0.00  0.00    +0.000 C 
BRANCH  22  23
ATOM     23  O   UNL     1       8.006   9.202  17.877  0.00  0.00    +0.000 OA
ATOM     24  H   UNL     1       8.062   9.654  18.734  0.00  0.00    +0.000 HD
ENDBRANCH  22  23
ENDBRANCH  21  22
ENDBRANCH  18  20
BRANCH  18  25
ATOM     25  O   UNL     1       6.354   5.645  14.783  0.00  0.00    +0.000 OA
ATOM     26  H   UNL     1       5.569   5.984  14.323  0.00  0.00    +0.000 HD
ENDBRANCH  18  25
ENDBRANCH  17  18
ENDBRANCH   1  17
TORSDOF 7
ENDMDL
MODEL 5
REMARK VINA RESULT:      -6.6      2.305      4.659
REMARK  Name = 
REMARK  12 active torsions:
REMARK  status: ('A' for Active; 'I' for Inactive)
REMARK    1  A    between atoms: C_1  and  C_2
REMARK    2  A    between atoms: C_2  and  C_6
REMARK    3  A    between atoms: C_3  and  C_4
REMARK    4  A    between atoms: C_4  and  O_5
REMARK    5  A    between atoms: C_6  and  O_7
REMARK    6  A    between atoms: C_6  and  C_8
REMARK    7  A    between atoms: C_8  and  C_9
REMARK    8  A    between atoms: C_10  and  C_11
REMARK    9  A    between atoms: C_15  and  C_16
REMARK   10  A    between atoms: C_15  and  C_17
REMARK   11  A    between atoms: C_21  and  C_22
REMARK   12  A    between atoms: C_21  and  O_23
REMARK                            x       y       z     vdW  Elec       q    Type
REMARK                         _______ _______ _______ _____ _____    ______ ____
ROOT
ATOM      1  C   UNL     1       4.323   5.526  17.084  0.00  0.00    +0.000 C 
ATOM      2  C   UNL     1       3.729   5.280  18.559  0.00  0.00    +0.000 C 
ATOM      3  C   UNL     1       4.878   5.075  19.573  0.00  0.00    +0.000 C 
ATOM      4  C   UNL     1       2.928   6.535  19.025  0.00  0.00    +0.000 C 
ATOM      5  C   UNL     1       2.147   6.321  20.326  0.00  0.00    +0.000 C 
ATOM      6  C   UNL     1       1.189   5.141  20.239  0.00  0.00    +0.000 C 
ATOM      7  C   UNL     1       1.840   3.813  19.778  0.00  0.00    +0.000 C 
ATOM      8  C   UNL     1       2.606   3.147  20.939  0.00  0.00    +0.000 C 
ATOM      9  C   UNL     1       0.673   2.845  19.441  0.00  0.00    +0.000 C 
ATOM     10  C   UNL     1       2.703   4.082  18.492  0.00  0.00    +0.000 C 
ATOM     11  C   UNL     1       3.352   2.821  17.902  0.00  0.00    +0.000 C 
ATOM     12  C   UNL     1       3.804   3.086  16.473  0.00  0.00    +0.000 C 
ATOM     13  C   UNL     1       4.822   4.223  16.358  0.00  0.00    +0.000 C 
ATOM     14  C   UNL     1       6.210   3.725  16.788  0.00  0.00    +0.000 C 
ENDROOT
BRANCH  13  15
ATOM     15  O   UNL     1       4.937   4.456  14.943  0.00  0.00    +0.000 OA
ATOM     16  H   UNL     1       5.491   3.762  14.541  0.00  0.00    +0.000 HD
ENDBRANCH  13  15
BRANCH   1  17
ATOM     17  C   UNL     1       5.361   6.695  17.046  0.00  0.00    +0.000 C 
BRANCH  17  18
ATOM     18  C   UNL     1       6.850   6.308  17.023  0.00  0.00    +0.000 C 
BRANCH  18  20
ATOM     19  C   UNL     1       8.205   6.363  19.231  0.00  0.00    +0.000 C 
ATOM     20  C   UNL     1       7.667   7.101  18.036  0.00  0.00    +0.000 C 
ATOM     21  C   UNL     1       7.936   8.405  17.787  0.00  0.00    +0.000 C 
BRANCH  21  22
ATOM     22  C   UNL     1       8.713   9.359  18.632  0.00  0.00    +0.000 C 
BRANCH  22  23
ATOM     23  O   UNL     1       8.769  10.610  17.969  0.00  0.00    +0.000 OA
ATOM     24  H   UNL     1       7.903  11.032  18.092  0.00  0.00    +0.000 HD
ENDBRANCH  22  23
ENDBRANCH  21  22
ENDBRANCH  18  20
BRANCH  18  25
ATOM     25  O   UNL     1       7.368   6.469  15.710  0.00  0.00    +0.000 OA
ATOM     26  H   UNL     1       6.839   7.150  15.266  0.00  0.00    +0.000 HD
ENDBRANCH  18  25
ENDBRANCH  17  18
ENDBRANCH   1  17
TORSDOF 7
ENDMDL
MODEL 6
REMARK VINA RESULT:      -6.5      1.599      2.190
REMARK  Name = 
REMARK  12 active torsions:
REMARK  status: ('A' for Active; 'I' for Inactive)
REMARK    1  A    between atoms: C_1  and  C_2
REMARK    2  A    between atoms: C_2  and  C_6
REMARK    3  A    between atoms: C_3  and  C_4
REMARK    4  A    between atoms: C_4  and  O_5
REMARK    5  A    between atoms: C_6  and  O_7
REMARK    6  A    between atoms: C_6  and  C_8
REMARK    7  A    between atoms: C_8  and  C_9
REMARK    8  A    between atoms: C_10  and  C_11
REMARK    9  A    between atoms: C_15  and  C_16
REMARK   10  A    between atoms: C_15  and  C_17
REMARK   11  A    between atoms: C_21  and  C_22
REMARK   12  A    between atoms: C_21  and  O_23
REMARK                            x       y       z     vdW  Elec       q    Type
REMARK                         _______ _______ _______ _____ _____    ______ ____
ROOT
ATOM      1  C   UNL     1       3.637   6.193  18.113  0.00  0.00    +0.000 C 
ATOM      2  C   UNL     1       3.118   4.703  18.428  0.00  0.00    +0.000 C 
ATOM      3  C   UNL     1       2.048   4.277  17.397  0.00  0.00    +0.000 C 
ATOM      4  C   UNL     1       4.299   3.691  18.303  0.00  0.00    +0.000 C 
ATOM      5  C   UNL     1       3.957   2.279  18.789  0.00  0.00    +0.000 C 
ATOM      6  C   UNL     1       3.460   2.266  20.228  0.00  0.00    +0.000 C 
ATOM      7  C   UNL     1       2.284   3.232  20.513  0.00  0.00    +0.000 C 
ATOM      8  C   UNL     1       0.953   2.637  20.015  0.00  0.00    +0.000 C 
ATOM      9  C   UNL     1       2.149   3.315  22.059  0.00  0.00    +0.000 C 
ATOM     10  C   UNL     1       2.629   4.650  19.928  0.00  0.00    +0.000 C 
ATOM     11  C   UNL     1       1.558   5.717  20.206  0.00  0.00    +0.000 C 
ATOM     12  C   UNL     1       2.137   7.107  19.987  0.00  0.00    +0.000 C 
ATOM     13  C   UNL     1       2.653   7.334  18.564  0.00  0.00    +0.000 C 
ATOM     14  C   UNL     1       1.471   7.590  17.616  0.00  0.00    +0.000 C 
ENDROOT
BRANCH  13  15
ATOM     15  O   UNL     1       3.348   8.591  18.634  0.00  0.00    +0.000 OA
ATOM     16  H   UNL     1       4.191   8.527  18.147  0.00  0.00    +0.000 HD
ENDBRANCH  13  15
BRANCH   1  17
ATOM     17  C   UNL     1       4.139   6.351  16.641  0.00  0.00    +0.000 C 
BRANCH  17  18
ATOM     18  C   UNL     1       5.654   6.518  16.432  0.00  0.00    +0.000 C 
BRANCH  18  20
ATOM     19  C   UNL     1       7.342   4.554  16.519  0.00  0.00    +0.000 C 
ATOM     20  C   UNL     1       6.281   5.302  15.761  0.00  0.00    +0.000 C 
ATOM     21  C   UNL     1       5.811   4.902  14.555  0.00  0.00    +0.000 C 
BRANCH  21  22
ATOM     22  C   UNL     1       6.271   3.748  13.728  0.00  0.00    +0.000 C 
BRANCH  22  23
ATOM     23  O   UNL     1       5.390   3.599  12.627  0.00  0.00    +0.000 OA
ATOM     24  H   UNL     1       5.853   3.947  11.849  0.00  0.00    +0.000 HD
ENDBRANCH  22  23
ENDBRANCH  21  22
ENDBRANCH  18  20
BRANCH  18  25
ATOM     25  O   UNL     1       6.284   6.798  17.674  0.00  0.00    +0.000 OA
ATOM     26  H   UNL     1       5.591   6.832  18.354  0.00  0.00    +0.000 HD
ENDBRANCH  18  25
ENDBRANCH  17  18
ENDBRANCH   1  17
TORSDOF 7
ENDMDL
MODEL 7
REMARK VINA RESULT:      -6.4      1.678      2.522
REMARK  Name = 
REMARK  12 active torsions:
REMARK  status: ('A' for Active; 'I' for Inactive)
REMARK    1  A    between atoms: C_1  and  C_2
REMARK    2  A    between atoms: C_2  and  C_6
REMARK    3  A    between atoms: C_3  and  C_4
REMARK    4  A    between atoms: C_4  and  O_5
REMARK    5  A    between atoms: C_6  and  O_7
REMARK    6  A    between atoms: C_6  and  C_8
REMARK    7  A    between atoms: C_8  and  C_9
REMARK    8  A    between atoms: C_10  and  C_11
REMARK    9  A    between atoms: C_15  and  C_16
REMARK   10  A    between atoms: C_15  and  C_17
REMARK   11  A    between atoms: C_21  and  C_22
REMARK   12  A    between atoms: C_21  and  O_23
REMARK                            x       y       z     vdW  Elec       q    Type
REMARK                         _______ _______ _______ _____ _____    ______ ____
ROOT
ATOM      1  C   UNL     1       5.440   4.454  16.676  0.00  0.00    +0.000 C 
ATOM      2  C   UNL     1       4.051   4.776  17.422  0.00  0.00    +0.000 C 
ATOM      3  C   UNL     1       3.698   6.274  17.278  0.00  0.00    +0.000 C 
ATOM      4  C   UNL     1       2.892   3.970  16.757  0.00  0.00    +0.000 C 
ATOM      5  C   UNL     1       1.569   4.044  17.525  0.00  0.00    +0.000 C 
ATOM      6  C   UNL     1       1.711   3.584  18.969  0.00  0.00    +0.000 C 
ATOM      7  C   UNL     1       2.834   4.293  19.765  0.00  0.00    +0.000 C 
ATOM      8  C   UNL     1       2.381   5.694  20.222  0.00  0.00    +0.000 C 
ATOM      9  C   UNL     1       3.031   3.474  21.070  0.00  0.00    +0.000 C 
ATOM     10  C   UNL     1       4.156   4.276  18.915  0.00  0.00    +0.000 C 
ATOM     11  C   UNL     1       5.365   4.900  19.630  0.00  0.00    +0.000 C 
ATOM     12  C   UNL     1       6.654   4.480  18.940  0.00  0.00    +0.000 C 
ATOM     13  C   UNL     1       6.722   4.900  17.470  0.00  0.00    +0.000 C 
ATOM     14  C   UNL     1       7.065   6.395  17.372  0.00  0.00    +0.000 C 
ENDROOT
BRANCH  13  15
ATOM     15  O   UNL     1       7.884   4.223  16.959  0.00  0.00    +0.000 OA
ATOM     16  H   UNL     1       8.206   4.682  16.161  0.00  0.00    +0.000 HD
ENDBRANCH  13  15
BRANCH   1  17
ATOM     17  C   UNL     1       5.439   4.921  15.184  0.00  0.00    +0.000 C 
BRANCH  17  18
ATOM     18  C   UNL     1       5.749   3.856  14.118  0.00  0.00    +0.000 C 
BRANCH  18  20
ATOM     19  C   UNL     1       7.025   3.563  11.881  0.00  0.00    +0.000 C 
ATOM     20  C   UNL     1       6.888   4.277  13.198  0.00  0.00    +0.000 C 
ATOM     21  C   UNL     1       7.678   5.316  13.563  0.00  0.00    +0.000 C 
BRANCH  21  22
ATOM     22  C   UNL     1       8.837   5.892  12.819  0.00  0.00    +0.000 C 
BRANCH  22  23
ATOM     23  O   UNL     1       8.343   6.675  11.746  0.00  0.00    +0.000 OA
ATOM     24  H   UNL     1       8.906   7.463  11.690  0.00  0.00    +0.000 HD
ENDBRANCH  22  23
ENDBRANCH  21  22
ENDBRANCH  18  20
BRANCH  18  25
ATOM     25  O   UNL     1       4.575   3.560  13.376  0.00  0.00    +0.000 OA
ATOM     26  H   UNL     1       4.271   4.386  12.966  0.00  0.00    +0.000 HD
ENDBRANCH  18  25
ENDBRANCH  17  18
ENDBRANCH   1  17
TORSDOF 7
ENDMDL
MODEL 8
REMARK VINA RESULT:      -6.4      1.225      1.270
REMARK  Name = 
REMARK  12 active torsions:
REMARK  status: ('A' for Active; 'I' for Inactive)
REMARK    1  A    between atoms: C_1  and  C_2
REMARK    2  A    between atoms: C_2  and  C_6
REMARK    3  A    between atoms: C_3  and  C_4
REMARK    4  A    between atoms: C_4  and  O_5
REMARK    5  A    between atoms: C_6  and  O_7
REMARK    6  A    between atoms: C_6  and  C_8
REMARK    7  A    between atoms: C_8  and  C_9
REMARK    8  A    between atoms: C_10  and  C_11
REMARK    9  A    between atoms: C_15  and  C_16
REMARK   10  A    between atoms: C_15  and  C_17
REMARK   11  A    between atoms: C_21  and  C_22
REMARK   12  A    between atoms: C_21  and  O_23
REMARK                            x       y       z     vdW  Elec       q    Type
REMARK                         _______ _______ _______ _____ _____    ______ ____
ROOT
ATOM      1  C   UNL     1       5.542   4.582  16.941  0.00  0.00    +0.000 C 
ATOM      2  C   UNL     1       4.207   3.852  17.464  0.00  0.00    +0.000 C 
ATOM      3  C   UNL     1       3.153   3.788  16.336  0.00  0.00    +0.000 C 
ATOM      4  C   UNL     1       4.531   2.380  17.869  0.00  0.00    +0.000 C 
ATOM      5  C   UNL     1       3.375   1.666  18.576  0.00  0.00    +0.000 C 
ATOM      6  C   UNL     1       2.903   2.415  19.815  0.00  0.00    +0.000 C 
ATOM      7  C   UNL     1       2.548   3.902  19.574  0.00  0.00    +0.000 C 
ATOM      8  C   UNL     1       1.156   4.035  18.924  0.00  0.00    +0.000 C 
ATOM      9  C   UNL     1       2.415   4.556  20.977  0.00  0.00    +0.000 C 
ATOM     10  C   UNL     1       3.714   4.586  18.771  0.00  0.00    +0.000 C 
ATOM     11  C   UNL     1       3.504   6.088  18.524  0.00  0.00    +0.000 C 
ATOM     12  C   UNL     1       4.820   6.742  18.129  0.00  0.00    +0.000 C 
ATOM     13  C   UNL     1       5.437   6.149  16.860  0.00  0.00    +0.000 C 
ATOM     14  C   UNL     1       4.705   6.692  15.623  0.00  0.00    +0.000 C 
ENDROOT
BRANCH  13  15
ATOM     15  O   UNL     1       6.750   6.733  16.796  0.00  0.00    +0.000 OA
ATOM     16  H   UNL     1       7.219   6.575  17.636  0.00  0.00    +0.000 HD
ENDBRANCH  13  15
BRANCH   1  17
ATOM     17  C   UNL     1       6.109   3.929  15.638  0.00  0.00    +0.000 C 
BRANCH  17  18
ATOM     18  C   UNL     1       6.540   4.880  14.509  0.00  0.00    +0.000 C 
BRANCH  18  20
ATOM     19  C   UNL     1       7.477   4.534  12.118  0.00  0.00    +0.000 C 
ATOM     20  C   UNL     1       6.409   4.238  13.133  0.00  0.00    +0.000 C 
ATOM     21  C   UNL     1       5.388   3.376  12.905  0.00  0.00    +0.000 C 
BRANCH  21  22
ATOM     22  C   UNL     1       5.075   2.638  11.646  0.00  0.00    +0.000 C 
BRANCH  22  23
ATOM     23  O   UNL     1       3.918   3.211  11.061  0.00  0.00    +0.000 OA
ATOM     24  H   UNL     1       3.978   3.053  10.105  0.00  0.00    +0.000 HD
ENDBRANCH  22  23
ENDBRANCH  21  22
ENDBRANCH  18  20
BRANCH  18  25
ATOM     25  O   UNL     1       7.867   5.330  14.739  0.00  0.00    +0.000 OA
ATOM     26  H   UNL     1       8.109   5.082  15.645  0.00  0.00    +0.000 HD
ENDBRANCH  18  25
ENDBRANCH  17  18
ENDBRANCH   1  17
TORSDOF 7
ENDMDL
MODEL 9
REMARK VINA RESULT:      -6.3      0.733      1.032
REMARK  Name = 
REMARK  12 active torsions:
REMARK  status: ('A' for Active; 'I' for Inactive)
REMARK    1  A    between atoms: C_1  and  C_2
REMARK    2  A    between atoms: C_2  and  C_6
REMARK    3  A    between atoms: C_3  and  C_4
REMARK    4  A    between atoms: C_4  and  O_5
REMARK    5  A    between atoms: C_6  and  O_7
REMARK    6  A    between atoms: C_6  and  C_8
REMARK    7  A    between atoms: C_8  and  C_9
REMARK    8  A    between atoms: C_10  and  C_11
REMARK    9  A    between atoms: C_15  and  C_16
REMARK   10  A    between atoms: C_15  and  C_17
REMARK   11  A    between atoms: C_21  and  C_22
REMARK   12  A    between atoms: C_21  and  O_23
REMARK                            x       y       z     vdW  Elec       q    Type
REMARK                         _______ _______ _______ _____ _____    ______ ____
ROOT
ATOM      1  C   UNL     1       4.546   4.403  17.288  0.00  0.00    +0.000 C 
ATOM      2  C   UNL     1       3.152   3.873  17.893  0.00  0.00    +0.000 C 
ATOM      3  C   UNL     1       1.968   4.647  17.271  0.00  0.00    +0.000 C 
ATOM      4  C   UNL     1       2.953   2.368  17.530  0.00  0.00    +0.000 C 
ATOM      5  C   UNL     1       1.761   1.715  18.236  0.00  0.00    +0.000 C 
ATOM      6  C   UNL     1       1.846   1.839  19.752  0.00  0.00    +0.000 C 
ATOM      7  C   UNL     1       2.052   3.284  20.270  0.00  0.00    +0.000 C 
ATOM      8  C   UNL     1       0.725   4.068  20.248  0.00  0.00    +0.000 C 
ATOM      9  C   UNL     1       2.437   3.161  21.770  0.00  0.00    +0.000 C 
ATOM     10  C   UNL     1       3.225   3.957  19.467  0.00  0.00    +0.000 C 
ATOM     11  C   UNL     1       3.566   5.379  19.937  0.00  0.00    +0.000 C 
ATOM     12  C   UNL     1       4.937   5.786  19.417  0.00  0.00    +0.000 C 
ATOM     13  C   UNL     1       5.038   5.770  17.890  0.00  0.00    +0.000 C 
ATOM     14  C   UNL     1       4.359   7.021  17.311  0.00  0.00    +0.000 C 
ENDROOT
BRANCH  13  15
ATOM     15  O   UNL     1       6.439   5.955  17.623  0.00  0.00    +0.000 OA
ATOM     16  H   UNL     1       6.562   6.721  17.033  0.00  0.00    +0.000 HD
ENDBRANCH  13  15
BRANCH   1  17
ATOM     17  C   UNL     1       4.571   4.366  15.726  0.00  0.00    +0.000 C 
BRANCH  17  18
ATOM     18  C   UNL     1       5.950   4.434  15.046  0.00  0.00    +0.000 C 
BRANCH  18  20
ATOM     19  C   UNL     1       4.563   3.599  13.023  0.00  0.00    +0.000 C 
ATOM     20  C   UNL     1       5.906   3.942  13.605  0.00  0.00    +0.000 C 
ATOM     21  C   UNL     1       7.056   3.906  12.888  0.00  0.00    +0.000 C 
BRANCH  21  22
ATOM     22  C   UNL     1       7.241   3.466  11.474  0.00  0.00    +0.000 C 
BRANCH  22  23
ATOM     23  O   UNL     1       7.389   2.057  11.453  0.00  0.00    +0.000 OA
ATOM     24  H   UNL     1       7.510   1.773  12.374  0.00  0.00    +0.000 HD
ENDBRANCH  22  23
ENDBRANCH  21  22
ENDBRANCH  18  20
BRANCH  18  25
ATOM     25  O   UNL     1       6.899   3.702  15.808  0.00  0.00    +0.000 OA
ATOM     26  H   UNL     1       7.638   3.479  15.221  0.00  0.00    +0.000 HD
ENDBRANCH  18  25
ENDBRANCH  17  18
ENDBRANCH   1  17
TORSDOF 7
ENDMDL
