MODEL 1
REMARK VINA RESULT:      -7.0      0.000      0.000
REMARK  Name = 
REMARK  4 active torsions:
REMARK  status: ('A' for Active; 'I' for Inactive)
REMARK    1  A    between atoms: C_2  and  C_3
REMARK    2  A    between atoms: C_3  and  N_4
REMARK    3  A    between atoms: C_12  and  C_13
REMARK    4  A    between atoms: C_15  and  C_16
REMARK                            x       y       z     vdW  Elec       q    Type
REMARK                         _______ _______ _______ _____ _____    ______ ____
ROOT
ATOM      1  N   UNL     1       5.399   4.460  15.846  0.00  0.00    +0.000 N 
ATOM      2  C   UNL     1       4.899   3.544  16.755  0.00  0.00    +0.000 A 
ATOM      3  N   UNL     1       4.135   3.787  17.776  0.00  0.00    +0.000 NA
ATOM      4  C   UNL     1       3.792   5.141  17.928  0.00  0.00    +0.000 A 
ATOM      5  C   UNL     1       4.252   6.104  17.072  0.00  0.00    +0.000 A 
ATOM      6  S   UNL     1       3.685   7.647  17.469  0.00  0.00    +0.000 S 
ATOM      7  C   UNL     1       2.815   7.032  18.808  0.00  0.00    +0.000 A 
ATOM      8  N   UNL     1       2.096   7.870  19.582  0.00  0.00    +0.000 NA
ATOM      9  C   UNL     1       1.461   7.275  20.611  0.00  0.00    +0.000 A 
ATOM     10  C   UNL     1       0.641   8.162  21.507  0.00  0.00    +0.000 C 
ATOM     11  C   UNL     1       1.522   5.912  20.882  0.00  0.00    +0.000 A 
ATOM     12  C   UNL     1       2.273   5.059  20.060  0.00  0.00    +0.000 A 
ATOM     13  C   UNL     1       2.329   3.589  20.365  0.00  0.00    +0.000 C 
ATOM     14  C   UNL     1       2.952   5.653  18.966  0.00  0.00    +0.000 A 
ATOM     15  C   UNL     1       5.117   5.820  15.967  0.00  0.00    +0.000 A 
ATOM     16  O   UNL     1       5.580   6.667  15.204  0.00  0.00    +0.000 OA
ENDROOT
BRANCH   1  17
ATOM     17  C   UNL     1       6.283   4.022  14.782  0.00  0.00    +0.000 C 
BRANCH  17  19
ATOM     18  C   UNL     1       6.012   3.311  12.390  0.00  0.00    +0.000 C 
ATOM     19  C   UNL     1       5.504   3.845  13.510  0.00  0.00    +0.000 C 
ENDBRANCH  17  19
ENDBRANCH   1  17
TORSDOF 2
ENDMDL
MODEL 2
REMARK VINA RESULT:      -6.6      2.220      3.388
REMARK  Name = 
REMARK  4 active torsions:
REMARK  status: ('A' for Active; 'I' for Inactive)
REMARK    1  A    between atoms: C_2  and  C_3
REMARK    2  A    between atoms: C_3  and  N_4
REMARK    3  A    between atoms: C_12  and  C_13
REMARK    4  A    between atoms: C_15  and  C_16
REMARK                            x       y       z     vdW  Elec       q    Type
REMARK                         _______ _______ _______ _____ _____    ______ ____
ROOT
ATOM      1  N   UNL     1       4.788   4.997  17.183  0.00  0.00    +0.000 N 
ATOM      2  C   UNL     1       4.533   6.273  16.711  0.00  0.00    +0.000 A 
ATOM      3  N   UNL     1       3.758   7.167  17.244  0.00  0.00    +0.000 NA
ATOM      4  C   UNL     1       3.142   6.756  18.438  0.00  0.00    +0.000 A 
ATOM      5  C   UNL     1       3.342   5.509  18.963  0.00  0.00    +0.000 A 
ATOM      6  S   UNL     1       2.496   5.271  20.408  0.00  0.00    +0.000 S 
ATOM      7  C   UNL     1       1.843   6.851  20.338  0.00  0.00    +0.000 A 
ATOM      8  N   UNL     1       1.014   7.277  21.312  0.00  0.00    +0.000 NA
ATOM      9  C   UNL     1       0.555   8.534  21.148  0.00  0.00    +0.000 A 
ATOM     10  C   UNL     1      -0.371   9.063  22.207  0.00  0.00    +0.000 C 
ATOM     11  C   UNL     1       0.888   9.350  20.071  0.00  0.00    +0.000 A 
ATOM     12  C   UNL     1       1.755   8.886  19.071  0.00  0.00    +0.000 A 
ATOM     13  C   UNL     1       2.105   9.779  17.915  0.00  0.00    +0.000 C 
ATOM     14  C   UNL     1       2.259   7.568  19.216  0.00  0.00    +0.000 A 
ATOM     15  C   UNL     1       4.180   4.525  18.345  0.00  0.00    +0.000 A 
ATOM     16  O   UNL     1       4.349   3.383  18.770  0.00  0.00    +0.000 OA
ENDROOT
BRANCH   1  17
ATOM     17  C   UNL     1       5.650   4.102  16.434  0.00  0.00    +0.000 C 
BRANCH  17  19
ATOM     18  C   UNL     1       7.712   4.653  17.756  0.00  0.00    +0.000 C 
ATOM     19  C   UNL     1       7.082   4.532  16.578  0.00  0.00    +0.000 C 
ENDBRANCH  17  19
ENDBRANCH   1  17
TORSDOF 2
ENDMDL
MODEL 3
REMARK VINA RESULT:      -6.6      2.056      3.034
REMARK  Name = 
REMARK  4 active torsions:
REMARK  status: ('A' for Active; 'I' for Inactive)
REMARK    1  A    between atoms: C_2  and  C_3
REMARK    2  A    between atoms: C_3  and  N_4
REMARK    3  A    between atoms: C_12  and  C_13
REMARK    4  A    between atoms: C_15  and  C_16
REMARK                            x       y       z     vdW  Elec       q    Type
REMARK                         _______ _______ _______ _____ _____    ______ ____
ROOT
ATOM      1  N   UNL     1       4.846   4.939  17.118  0.00  0.00    +0.000 N 
ATOM      2  C   UNL     1       4.583   6.208  16.632  0.00  0.00    +0.000 A 
ATOM      3  N   UNL     1       3.810   7.107  17.159  0.00  0.00    +0.000 NA
ATOM      4  C   UNL     1       3.203   6.709  18.363  0.00  0.00    +0.000 A 
ATOM      5  C   UNL     1       3.411   5.469  18.902  0.00  0.00    +0.000 A 
ATOM      6  S   UNL     1       2.577   5.247  20.356  0.00  0.00    +0.000 S 
ATOM      7  C   UNL     1       1.918   6.824  20.271  0.00  0.00    +0.000 A 
ATOM      8  N   UNL     1       1.095   7.260  21.246  0.00  0.00    +0.000 NA
ATOM      9  C   UNL     1       0.631   8.513  21.068  0.00  0.00    +0.000 A 
ATOM     10  C   UNL     1      -0.289   9.052  22.128  0.00  0.00    +0.000 C 
ATOM     11  C   UNL     1       0.953   9.316  19.979  0.00  0.00    +0.000 A 
ATOM     12  C   UNL     1       1.815   8.842  18.979  0.00  0.00    +0.000 A 
ATOM     13  C   UNL     1       2.153   9.722  17.809  0.00  0.00    +0.000 C 
ATOM     14  C   UNL     1       2.323   7.528  19.137  0.00  0.00    +0.000 A 
ATOM     15  C   UNL     1       4.247   4.479  18.290  0.00  0.00    +0.000 A 
ATOM     16  O   UNL     1       4.423   3.343  18.728  0.00  0.00    +0.000 OA
ENDROOT
BRANCH   1  17
ATOM     17  C   UNL     1       5.705   4.037  16.373  0.00  0.00    +0.000 C 
BRANCH  17  19
ATOM     18  C   UNL     1       6.733   4.565  14.145  0.00  0.00    +0.000 C 
ATOM     19  C   UNL     1       5.649   4.369  14.910  0.00  0.00    +0.000 C 
ENDBRANCH  17  19
ENDBRANCH   1  17
TORSDOF 2
ENDMDL
MODEL 4
REMARK VINA RESULT:      -6.2      3.306      5.385
REMARK  Name = 
REMARK  4 active torsions:
REMARK  status: ('A' for Active; 'I' for Inactive)
REMARK    1  A    between atoms: C_2  and  C_3
REMARK    2  A    between atoms: C_3  and  N_4
REMARK    3  A    between atoms: C_12  and  C_13
REMARK    4  A    between atoms: C_15  and  C_16
REMARK                            x       y       z     vdW  Elec       q    Type
REMARK                         _______ _______ _______ _____ _____    ______ ____
ROOT
ATOM      1  N   UNL     1       3.257   3.108  18.698  0.00  0.00    +0.000 N 
ATOM      2  C   UNL     1       4.410   2.966  19.452  0.00  0.00    +0.000 A 
ATOM      3  N   UNL     1       5.440   3.755  19.468  0.00  0.00    +0.000 NA
ATOM      4  C   UNL     1       5.324   4.871  18.621  0.00  0.00    +0.000 A 
ATOM      5  C   UNL     1       4.217   5.075  17.843  0.00  0.00    +0.000 A 
ATOM      6  S   UNL     1       4.323   6.494  16.928  0.00  0.00    +0.000 S 
ATOM      7  C   UNL     1       5.870   6.845  17.569  0.00  0.00    +0.000 A 
ATOM      8  N   UNL     1       6.521   7.959  17.176  0.00  0.00    +0.000 NA
ATOM      9  C   UNL     1       7.733   8.127  17.739  0.00  0.00    +0.000 A 
ATOM     10  C   UNL     1       8.503   9.355  17.340  0.00  0.00    +0.000 C 
ATOM     11  C   UNL     1       8.298   7.243  18.654  0.00  0.00    +0.000 A 
ATOM     12  C   UNL     1       7.600   6.092  19.051  0.00  0.00    +0.000 A 
ATOM     13  C   UNL     1       8.222   5.148  20.038  0.00  0.00    +0.000 C 
ATOM     14  C   UNL     1       6.319   5.887  18.478  0.00  0.00    +0.000 A 
ATOM     15  C   UNL     1       3.101   4.178  17.818  0.00  0.00    +0.000 A 
ATOM     16  O   UNL     1       2.110   4.312  17.101  0.00  0.00    +0.000 OA
ENDROOT
BRANCH   1  17
ATOM     17  C   UNL     1       2.214   2.102  18.767  0.00  0.00    +0.000 C 
BRANCH  17  19
ATOM     18  C   UNL     1       0.988   3.440  20.501  0.00  0.00    +0.000 C 
ATOM     19  C   UNL     1       1.432   2.262  20.039  0.00  0.00    +0.000 C 
ENDBRANCH  17  19
ENDBRANCH   1  17
TORSDOF 2
ENDMDL
MODEL 5
REMARK VINA RESULT:      -6.2      3.482      5.931
REMARK  Name = 
REMARK  4 active torsions:
REMARK  status: ('A' for Active; 'I' for Inactive)
REMARK    1  A    between atoms: C_2  and  C_3
REMARK    2  A    between atoms: C_3  and  N_4
REMARK    3  A    between atoms: C_12  and  C_13
REMARK    4  A    between atoms: C_15  and  C_16
REMARK                            x       y       z     vdW  Elec       q    Type
REMARK                         _______ _______ _______ _____ _____    ______ ____
ROOT
ATOM      1  N   UNL     1       2.203   7.694  18.949  0.00  0.00    +0.000 N 
ATOM      2  C   UNL     1       1.892   7.439  20.273  0.00  0.00    +0.000 A 
ATOM      3  N   UNL     1       1.234   8.206  21.088  0.00  0.00    +0.000 NA
ATOM      4  C   UNL     1       0.797   9.412  20.515  0.00  0.00    +0.000 A 
ATOM      5  C   UNL     1       1.070   9.736  19.215  0.00  0.00    +0.000 A 
ATOM      6  S   UNL     1       0.422  11.234  18.770  0.00  0.00    +0.000 S 
ATOM      7  C   UNL     1      -0.230  11.466  20.335  0.00  0.00    +0.000 A 
ATOM      8  N   UNL     1      -0.924  12.589  20.612  0.00  0.00    +0.000 NA
ATOM      9  C   UNL     1      -1.382  12.666  21.877  0.00  0.00    +0.000 A 
ATOM     10  C   UNL     1      -2.165  13.897  22.242  0.00  0.00    +0.000 C 
ATOM     11  C   UNL     1      -1.174  11.686  22.843  0.00  0.00    +0.000 A 
ATOM     12  C   UNL     1      -0.452  10.525  22.531  0.00  0.00    +0.000 A 
ATOM     13  C   UNL     1      -0.236   9.476  23.584  0.00  0.00    +0.000 C 
ATOM     14  C   UNL     1       0.042  10.411  21.206  0.00  0.00    +0.000 A 
ATOM     15  C   UNL     1       1.822   8.889  18.338  0.00  0.00    +0.000 A 
ATOM     16  O   UNL     1       2.119   9.168  17.178  0.00  0.00    +0.000 OA
ENDROOT
BRANCH   1  17
ATOM     17  C   UNL     1       2.992   6.743  18.189  0.00  0.00    +0.000 C 
BRANCH  17  19
ATOM     18  C   UNL     1       2.388   4.361  17.676  0.00  0.00    +0.000 C 
ATOM     19  C   UNL     1       2.603   5.341  18.565  0.00  0.00    +0.000 C 
ENDBRANCH  17  19
ENDBRANCH   1  17
TORSDOF 2
ENDMDL
MODEL 6
REMARK VINA RESULT:      -6.1      3.079      4.508
REMARK  Name = 
REMARK  4 active torsions:
REMARK  status: ('A' for Active; 'I' for Inactive)
REMARK    1  A    between atoms: C_2  and  C_3
REMARK    2  A    between atoms: C_3  and  N_4
REMARK    3  A    between atoms: C_12  and  C_13
REMARK    4  A    between atoms: C_15  and  C_16
REMARK                            x       y       z     vdW  Elec       q    Type
REMARK                         _______ _______ _______ _____ _____    ______ ____
ROOT
ATOM      1  N   UNL     1       2.890   4.667  19.786  0.00  0.00    +0.000 N 
ATOM      2  C   UNL     1       2.065   5.091  20.813  0.00  0.00    +0.000 A 
ATOM      3  N   UNL     1       1.530   6.265  20.958  0.00  0.00    +0.000 NA
ATOM      4  C   UNL     1       1.841   7.169  19.928  0.00  0.00    +0.000 A 
ATOM      5  C   UNL     1       2.653   6.824  18.883  0.00  0.00    +0.000 A 
ATOM      6  S   UNL     1       2.857   8.087  17.777  0.00  0.00    +0.000 S 
ATOM      7  C   UNL     1       1.854   9.118  18.702  0.00  0.00    +0.000 A 
ATOM      8  N   UNL     1       1.618  10.378  18.282  0.00  0.00    +0.000 NA
ATOM      9  C   UNL     1       0.822  11.100  19.094  0.00  0.00    +0.000 A 
ATOM     10  C   UNL     1       0.523  12.512  18.672  0.00  0.00    +0.000 C 
ATOM     11  C   UNL     1       0.272  10.617  20.277  0.00  0.00    +0.000 A 
ATOM     12  C   UNL     1       0.527   9.302  20.693  0.00  0.00    +0.000 A 
ATOM     13  C   UNL     1      -0.074   8.795  21.972  0.00  0.00    +0.000 C 
ATOM     14  C   UNL     1       1.360   8.514  19.858  0.00  0.00    +0.000 A 
ATOM     15  C   UNL     1       3.257   5.531  18.755  0.00  0.00    +0.000 A 
ATOM     16  O   UNL     1       4.023   5.202  17.850  0.00  0.00    +0.000 OA
ENDROOT
BRANCH   1  17
ATOM     17  C   UNL     1       3.442   3.325  19.802  0.00  0.00    +0.000 C 
BRANCH  17  19
ATOM     18  C   UNL     1       2.464   2.033  17.885  0.00  0.00    +0.000 C 
ATOM     19  C   UNL     1       2.467   2.364  19.184  0.00  0.00    +0.000 C 
ENDBRANCH  17  19
ENDBRANCH   1  17
TORSDOF 2
ENDMDL
MODEL 7
REMARK VINA RESULT:      -6.0      3.150      6.421
REMARK  Name = 
REMARK  4 active torsions:
REMARK  status: ('A' for Active; 'I' for Inactive)
REMARK    1  A    between atoms: C_2  and  C_3
REMARK    2  A    between atoms: C_3  and  N_4
REMARK    3  A    between atoms: C_12  and  C_13
REMARK    4  A    between atoms: C_15  and  C_16
REMARK                            x       y       z     vdW  Elec       q    Type
REMARK                         _______ _______ _______ _____ _____    ______ ____
ROOT
ATOM      1  N   UNL     1       1.234   9.768  19.060  0.00  0.00    +0.000 N 
ATOM      2  C   UNL     1       2.064   9.494  17.986  0.00  0.00    +0.000 A 
ATOM      3  N   UNL     1       2.738   8.405  17.771  0.00  0.00    +0.000 NA
ATOM      4  C   UNL     1       2.565   7.418  18.757  0.00  0.00    +0.000 A 
ATOM      5  C   UNL     1       1.765   7.618  19.848  0.00  0.00    +0.000 A 
ATOM      6  S   UNL     1       1.720   6.274  20.873  0.00  0.00    +0.000 S 
ATOM      7  C   UNL     1       2.788   5.407  19.855  0.00  0.00    +0.000 A 
ATOM      8  N   UNL     1       3.155   4.151  20.183  0.00  0.00    +0.000 NA
ATOM      9  C   UNL     1       4.004   3.570  19.313  0.00  0.00    +0.000 A 
ATOM     10  C   UNL     1       4.445   2.168  19.628  0.00  0.00    +0.000 C 
ATOM     11  C   UNL     1       4.484   4.188  18.162  0.00  0.00    +0.000 A 
ATOM     12  C   UNL     1       4.085   5.493  17.839  0.00  0.00    +0.000 A 
ATOM     13  C   UNL     1       4.612   6.146  16.593  0.00  0.00    +0.000 C 
ATOM     14  C   UNL     1       3.189   6.132  18.733  0.00  0.00    +0.000 A 
ATOM     15  C   UNL     1       1.051   8.838  20.083  0.00  0.00    +0.000 A 
ATOM     16  O   UNL     1       0.357   9.064  21.072  0.00  0.00    +0.000 OA
ENDROOT
BRANCH   1  17
ATOM     17  C   UNL     1       0.589  11.063  19.170  0.00  0.00    +0.000 C 
BRANCH  17  19
ATOM     18  C   UNL     1      -1.700  10.359  18.418  0.00  0.00    +0.000 C 
ATOM     19  C   UNL     1      -0.606  11.117  18.261  0.00  0.00    +0.000 C 
ENDBRANCH  17  19
ENDBRANCH   1  17
TORSDOF 2
ENDMDL
MODEL 8
REMARK VINA RESULT:      -6.0      2.911      4.710
REMARK  Name = 
REMARK  4 active torsions:
REMARK  status: ('A' for Active; 'I' for Inactive)
REMARK    1  A    between atoms: C_2  and  C_3
REMARK    2  A    between atoms: C_3  and  N_4
REMARK    3  A    between atoms: C_12  and  C_13
REMARK    4  A    between atoms: C_15  and  C_16
REMARK                            x       y       z     vdW  Elec       q    Type
REMARK                         _______ _______ _______ _____ _____    ______ ____
ROOT
ATOM      1  N   UNL     1       2.914   5.717  19.346  0.00  0.00    +0.000 N 
ATOM      2  C   UNL     1       2.156   5.866  20.495  0.00  0.00    +0.000 A 
ATOM      3  N   UNL     1       1.456   6.901  20.846  0.00  0.00    +0.000 NA
ATOM      4  C   UNL     1       1.491   7.958  19.921  0.00  0.00    +0.000 A 
ATOM      5  C   UNL     1       2.221   7.886  18.767  0.00  0.00    +0.000 A 
ATOM      6  S   UNL     1       2.083   9.284  17.824  0.00  0.00    +0.000 S 
ATOM      7  C   UNL     1       1.038  10.006  18.970  0.00  0.00    +0.000 A 
ATOM      8  N   UNL     1       0.551  11.244  18.746  0.00  0.00    +0.000 NA
ATOM      9  C   UNL     1      -0.254  11.714  19.719  0.00  0.00    +0.000 A 
ATOM     10  C   UNL     1      -0.829  13.089  19.520  0.00  0.00    +0.000 C 
ATOM     11  C   UNL     1      -0.575  11.008  20.875  0.00  0.00    +0.000 A 
ATOM     12  C   UNL     1      -0.059   9.720  21.085  0.00  0.00    +0.000 A 
ATOM     13  C   UNL     1      -0.414   8.971  22.337  0.00  0.00    +0.000 C 
ATOM     14  C   UNL     1       0.790   9.195  20.077  0.00  0.00    +0.000 A 
ATOM     15  C   UNL     1       3.010   6.745  18.409  0.00  0.00    +0.000 A 
ATOM     16  O   UNL     1       3.709   6.664  17.400  0.00  0.00    +0.000 OA
ENDROOT
BRANCH   1  17
ATOM     17  C   UNL     1       3.678   4.502  19.130  0.00  0.00    +0.000 C 
BRANCH  17  19
ATOM     18  C   UNL     1       2.582   2.994  17.449  0.00  0.00    +0.000 C 
ATOM     19  C   UNL     1       2.760   3.387  18.719  0.00  0.00    +0.000 C 
ENDBRANCH  17  19
ENDBRANCH   1  17
TORSDOF 2
ENDMDL
MODEL 9
REMARK VINA RESULT:      -5.9      3.295      6.460
REMARK  Name = 
REMARK  4 active torsions:
REMARK  status: ('A' for Active; 'I' for Inactive)
REMARK    1  A    between atoms: C_2  and  C_3
REMARK    2  A    between atoms: C_3  and  N_4
REMARK    3  A    between atoms: C_12  and  C_13
REMARK    4  A    between atoms: C_15  and  C_16
REMARK                            x       y       z     vdW  Elec       q    Type
REMARK                         _______ _______ _______ _____ _____    ______ ____
ROOT
ATOM      1  N   UNL     1       1.295   9.917  18.825  0.00  0.00    +0.000 N 
ATOM      2  C   UNL     1       2.137   9.602  17.772  0.00  0.00    +0.000 A 
ATOM      3  N   UNL     1       2.799   8.499  17.599  0.00  0.00    +0.000 NA
ATOM      4  C   UNL     1       2.597   7.542  18.609  0.00  0.00    +0.000 A 
ATOM      5  C   UNL     1       1.783   7.784  19.681  0.00  0.00    +0.000 A 
ATOM      6  S   UNL     1       1.704   6.470  20.743  0.00  0.00    +0.000 S 
ATOM      7  C   UNL     1       2.775   5.560  19.767  0.00  0.00    +0.000 A 
ATOM      8  N   UNL     1       3.119   4.309  20.136  0.00  0.00    +0.000 NA
ATOM      9  C   UNL     1       3.974   3.693  19.296  0.00  0.00    +0.000 A 
ATOM     10  C   UNL     1       4.390   2.294  19.657  0.00  0.00    +0.000 C 
ATOM     11  C   UNL     1       4.480   4.271  18.136  0.00  0.00    +0.000 A 
ATOM     12  C   UNL     1       4.105   5.572  17.770  0.00  0.00    +0.000 A 
ATOM     13  C   UNL     1       4.659   6.182  16.515  0.00  0.00    +0.000 C 
ATOM     14  C   UNL     1       3.203   6.248  18.632  0.00  0.00    +0.000 A 
ATOM     15  C   UNL     1       1.083   9.019  19.870  0.00  0.00    +0.000 A 
ATOM     16  O   UNL     1       0.376   9.283  20.842  0.00  0.00    +0.000 OA
ENDROOT
BRANCH   1  17
ATOM     17  C   UNL     1       0.666  11.223  18.887  0.00  0.00    +0.000 C 
BRANCH  17  19
ATOM     18  C   UNL     1       1.510  13.538  18.410  0.00  0.00    +0.000 C 
ATOM     19  C   UNL     1       1.715  12.297  18.876  0.00  0.00    +0.000 C 
ENDBRANCH  17  19
ENDBRANCH   1  17
TORSDOF 2
ENDMDL
