MODEL 1
REMARK VINA RESULT:      -7.2      0.000      0.000
REMARK  Name = 
REMARK  13 active torsions:
REMARK  status: ('A' for Active; 'I' for Inactive)
REMARK    1  A    between atoms: C_1  and  O_2
REMARK    2  A    between atoms: O_2  and  C_3
REMARK    3  A    between atoms: C_6  and  C_7
REMARK    4  A    between atoms: C_7  and  N_8
REMARK    5  A    between atoms: N_11  and  CA_12
REMARK    6  A    between atoms: CA_12  and  CB_13
REMARK    7  A    between atoms: CA_12  and  C_17
REMARK    8  A    between atoms: CB_13  and  CG_14
REMARK    9  A    between atoms: CG_14  and  CD1_15
REMARK   10  A    between atoms: CG_14  and  CD2_16
REMARK   11  A    between atoms: C_17  and  OXT_19
REMARK   12  A    between atoms: C_21  and  O_22
REMARK   13  A    between atoms: O_22  and  C_23
REMARK                            x       y       z     vdW  Elec       q    Type
REMARK                         _______ _______ _______ _____ _____    ______ ____
ROOT
ATOM      1  N   UNK A   0       8.246   9.293  17.957  0.00  0.00    +0.000 N 
ATOM      2  C   UNK A   0       7.926   7.964  18.033  0.00  0.00    +0.000 C 
ATOM      3  O   UNK A   0       8.409   7.174  18.830  0.00  0.00    +0.000 OA
ATOM      4  N   LEU A   1       6.973   7.629  17.118  0.00  0.00    +0.000 N 
ATOM      5  H   UNK A   0       7.522   9.890  17.587  0.00  0.00    +0.000 HD
ATOM      6  H   LEU A   1       6.899   8.203  16.285  0.00  0.00    +0.000 HD
ENDROOT
BRANCH   1   7
ATOM      7  C   UNK A   0       9.133   9.888  18.930  0.00  0.00    +0.000 C 
BRANCH   7  11
ATOM      8  C   UNK A   0      10.675  13.605  17.334  0.00  0.00    +0.000 A 
ATOM      9  C   UNK A   0      11.506  12.486  17.497  0.00  0.00    +0.000 A 
ATOM     10  C   UNK A   0      11.009  11.287  18.012  0.00  0.00    +0.000 A 
ATOM     11  C   UNK A   0       9.681  11.197  18.428  0.00  0.00    +0.000 A 
ATOM     12  C   UNK A   0       8.872  12.337  18.333  0.00  0.00    +0.000 A 
ATOM     13  C   UNK A   0       9.354  13.547  17.804  0.00  0.00    +0.000 A 
BRANCH   8  15
ATOM     14  C   UNK A   0      11.614  15.752  17.664  0.00  0.00    +0.000 C 
ATOM     15  O   UNK A   0      11.145  14.754  16.756  0.00  0.00    +0.000 OA
ENDBRANCH   8  15
BRANCH  13  16
ATOM     16  O   UNK A   0       8.396  14.528  17.807  0.00  0.00    +0.000 OA
ATOM     17  C   UNK A   0       7.029  14.160  17.714  0.00  0.00    +0.000 C 
ENDBRANCH  13  16
ENDBRANCH   7  11
ENDBRANCH   1   7
BRANCH   4  18
ATOM     18  CA  LEU A   1       6.376   6.301  17.046  0.00  0.00    +0.000 C 
BRANCH  18  19
ATOM     19  C   LEU A   1       7.287   5.406  16.191  0.00  0.00    +0.000 C 
ATOM     20  O   LEU A   1       7.404   5.524  14.978  0.00  0.00    +0.000 OA
BRANCH  19  21
ATOM     21  OXT LEU A   1       7.972   4.471  16.887  0.00  0.00    +0.000 OA
ATOM     22  HXT LEU A   1       8.839   4.761  17.225  0.00  0.00    +0.000 HD
ENDBRANCH  19  21
ENDBRANCH  18  19
BRANCH  18  23
ATOM     23  CB  LEU A   1       4.930   6.340  16.513  0.00  0.00    +0.000 C 
BRANCH  23  24
ATOM     24  CG  LEU A   1       3.882   5.541  17.322  0.00  0.00    +0.000 C 
ATOM     25  CD1 LEU A   1       4.002   4.042  17.014  0.00  0.00    +0.000 C 
ATOM     26  CD2 LEU A   1       3.994   5.738  18.834  0.00  0.00    +0.000 C 
ENDBRANCH  23  24
ENDBRANCH  18  23
ENDBRANCH   4  18
TORSDOF 9
ENDMDL
MODEL 2
REMARK VINA RESULT:      -7.1      0.779      1.035
REMARK  Name = 
REMARK  13 active torsions:
REMARK  status: ('A' for Active; 'I' for Inactive)
REMARK    1  A    between atoms: C_1  and  O_2
REMARK    2  A    between atoms: O_2  and  C_3
REMARK    3  A    between atoms: C_6  and  C_7
REMARK    4  A    between atoms: C_7  and  N_8
REMARK    5  A    between atoms: N_11  and  CA_12
REMARK    6  A    between atoms: CA_12  and  CB_13
REMARK    7  A    between atoms: CA_12  and  C_17
REMARK    8  A    between atoms: CB_13  and  CG_14
REMARK    9  A    between atoms: CG_14  and  CD1_15
REMARK   10  A    between atoms: CG_14  and  CD2_16
REMARK   11  A    between atoms: C_17  and  OXT_19
REMARK   12  A    between atoms: C_21  and  O_22
REMARK   13  A    between atoms: O_22  and  C_23
REMARK                            x       y       z     vdW  Elec       q    Type
REMARK                         _______ _______ _______ _____ _____    ______ ____
ROOT
ATOM      1  N   UNK A   0       8.201   9.199  17.915  0.00  0.00    +0.000 N 
ATOM      2  C   UNK A   0       7.848   7.879  17.989  0.00  0.00    +0.000 C 
ATOM      3  O   UNK A   0       8.331   7.069  18.767  0.00  0.00    +0.000 OA
ATOM      4  N   LEU A   1       6.862   7.577  17.097  0.00  0.00    +0.000 N 
ATOM      5  H   UNK A   0       7.484   9.819  17.570  0.00  0.00    +0.000 HD
ATOM      6  H   LEU A   1       6.782   8.160  16.272  0.00  0.00    +0.000 HD
ENDROOT
BRANCH   1   7
ATOM      7  C   UNK A   0       9.128   9.762  18.870  0.00  0.00    +0.000 C 
BRANCH   7  11
ATOM      8  C   UNK A   0      10.599  13.537  17.343  0.00  0.00    +0.000 A 
ATOM      9  C   UNK A   0      11.457  12.440  17.514  0.00  0.00    +0.000 A 
ATOM     10  C   UNK A   0      10.984  11.223  18.007  0.00  0.00    +0.000 A 
ATOM     11  C   UNK A   0       9.650  11.091  18.392  0.00  0.00    +0.000 A 
ATOM     12  C   UNK A   0       8.811  12.208  18.291  0.00  0.00    +0.000 A 
ATOM     13  C   UNK A   0       9.270  13.437  17.784  0.00  0.00    +0.000 A 
BRANCH   8  15
ATOM     14  C   UNK A   0      11.636  15.634  17.698  0.00  0.00    +0.000 C 
ATOM     15  O   UNK A   0      11.048  14.705  16.787  0.00  0.00    +0.000 OA
ENDBRANCH   8  15
BRANCH  13  16
ATOM     16  O   UNK A   0       8.284  14.390  17.774  0.00  0.00    +0.000 OA
ATOM     17  C   UNK A   0       8.054  15.159  18.944  0.00  0.00    +0.000 C 
ENDBRANCH  13  16
ENDBRANCH   7  11
ENDBRANCH   1   7
BRANCH   4  18
ATOM     18  CA  LEU A   1       6.229   6.266  17.030  0.00  0.00    +0.000 C 
BRANCH  18  19
ATOM     19  C   LEU A   1       7.012   5.399  16.030  0.00  0.00    +0.000 C 
ATOM     20  O   LEU A   1       6.860   5.463  14.817  0.00  0.00    +0.000 OA
BRANCH  19  21
ATOM     21  OXT LEU A   1       7.906   4.557  16.595  0.00  0.00    +0.000 OA
ATOM     22  HXT LEU A   1       8.780   4.532  16.163  0.00  0.00    +0.000 HD
ENDBRANCH  19  21
ENDBRANCH  18  19
BRANCH  18  23
ATOM     23  CB  LEU A   1       4.732   6.359  16.673  0.00  0.00    +0.000 C 
BRANCH  23  24
ATOM     24  CG  LEU A   1       3.757   6.540  17.860  0.00  0.00    +0.000 C 
ATOM     25  CD1 LEU A   1       3.056   7.902  17.768  0.00  0.00    +0.000 C 
ATOM     26  CD2 LEU A   1       2.690   5.448  17.949  0.00  0.00    +0.000 C 
ENDBRANCH  23  24
ENDBRANCH  18  23
ENDBRANCH   4  18
TORSDOF 9
ENDMDL
MODEL 3
REMARK VINA RESULT:      -6.5      6.298      7.824
REMARK  Name = 
REMARK  13 active torsions:
REMARK  status: ('A' for Active; 'I' for Inactive)
REMARK    1  A    between atoms: C_1  and  O_2
REMARK    2  A    between atoms: O_2  and  C_3
REMARK    3  A    between atoms: C_6  and  C_7
REMARK    4  A    between atoms: C_7  and  N_8
REMARK    5  A    between atoms: N_11  and  CA_12
REMARK    6  A    between atoms: CA_12  and  CB_13
REMARK    7  A    between atoms: CA_12  and  C_17
REMARK    8  A    between atoms: CB_13  and  CG_14
REMARK    9  A    between atoms: CG_14  and  CD1_15
REMARK   10  A    between atoms: CG_14  and  CD2_16
REMARK   11  A    between atoms: C_17  and  OXT_19
REMARK   12  A    between atoms: C_21  and  O_22
REMARK   13  A    between atoms: O_22  and  C_23
REMARK                            x       y       z     vdW  Elec       q    Type
REMARK                         _______ _______ _______ _____ _____    ______ ____
ROOT
ATOM      1  N   UNK A   0       3.604   6.339  17.859  0.00  0.00    +0.000 N 
ATOM      2  C   UNK A   0       4.515   5.397  17.465  0.00  0.00    +0.000 C 
ATOM      3  O   UNK A   0       5.001   4.546  18.196  0.00  0.00    +0.000 OA
ATOM      4  N   LEU A   1       4.800   5.506  16.136  0.00  0.00    +0.000 N 
ATOM      5  H   UNK A   0       2.992   6.678  17.132  0.00  0.00    +0.000 HD
ATOM      6  H   LEU A   1       4.669   6.412  15.701  0.00  0.00    +0.000 HD
ENDROOT
BRANCH   1   7
ATOM      7  C   UNK A   0       3.057   6.312  19.196  0.00  0.00    +0.000 C 
BRANCH   7  11
ATOM      8  C   UNK A   0       0.459   9.715  19.841  0.00  0.00    +0.000 A 
ATOM      9  C   UNK A   0       1.281   9.635  18.707  0.00  0.00    +0.000 A 
ATOM     10  C   UNK A   0       2.120   8.539  18.498  0.00  0.00    +0.000 A 
ATOM     11  C   UNK A   0       2.195   7.521  19.448  0.00  0.00    +0.000 A 
ATOM     12  C   UNK A   0       1.429   7.637  20.616  0.00  0.00    +0.000 A 
ATOM     13  C   UNK A   0       0.570   8.729  20.833  0.00  0.00    +0.000 A 
BRANCH   8  15
ATOM     14  C   UNK A   0      -1.009  11.253  18.803  0.00  0.00    +0.000 C 
ATOM     15  O   UNK A   0      -0.420  10.753  20.004  0.00  0.00    +0.000 OA
ENDBRANCH   8  15
BRANCH  13  16
ATOM     16  O   UNK A   0      -0.081   8.640  22.037  0.00  0.00    +0.000 OA
ATOM     17  C   UNK A   0       0.294   9.511  23.092  0.00  0.00    +0.000 C 
ENDBRANCH  13  16
ENDBRANCH   7  11
ENDBRANCH   1   7
BRANCH   4  18
ATOM     18  CA  LEU A   1       5.665   4.567  15.432  0.00  0.00    +0.000 C 
BRANCH  18  19
ATOM     19  C   LEU A   1       7.126   4.900  15.776  0.00  0.00    +0.000 C 
ATOM     20  O   LEU A   1       7.723   5.867  15.322  0.00  0.00    +0.000 OA
BRANCH  19  21
ATOM     21  OXT LEU A   1       7.709   4.041  16.642  0.00  0.00    +0.000 OA
ATOM     22  HXT LEU A   1       7.471   4.174  17.578  0.00  0.00    +0.000 HD
ENDBRANCH  19  21
ENDBRANCH  18  19
BRANCH  18  23
ATOM     23  CB  LEU A   1       5.409   4.567  13.912  0.00  0.00    +0.000 C 
BRANCH  23  24
ATOM     24  CG  LEU A   1       6.320   3.647  13.065  0.00  0.00    +0.000 C 
ATOM     25  CD1 LEU A   1       5.471   2.784  12.122  0.00  0.00    +0.000 C 
ATOM     26  CD2 LEU A   1       7.355   4.405  12.234  0.00  0.00    +0.000 C 
ENDBRANCH  23  24
ENDBRANCH  18  23
ENDBRANCH   4  18
TORSDOF 9
ENDMDL
MODEL 4
REMARK VINA RESULT:      -6.5      1.585      2.136
REMARK  Name = 
REMARK  13 active torsions:
REMARK  status: ('A' for Active; 'I' for Inactive)
REMARK    1  A    between atoms: C_1  and  O_2
REMARK    2  A    between atoms: O_2  and  C_3
REMARK    3  A    between atoms: C_6  and  C_7
REMARK    4  A    between atoms: C_7  and  N_8
REMARK    5  A    between atoms: N_11  and  CA_12
REMARK    6  A    between atoms: CA_12  and  CB_13
REMARK    7  A    between atoms: CA_12  and  C_17
REMARK    8  A    between atoms: CB_13  and  CG_14
REMARK    9  A    between atoms: CG_14  and  CD1_15
REMARK   10  A    between atoms: CG_14  and  CD2_16
REMARK   11  A    between atoms: C_17  and  OXT_19
REMARK   12  A    between atoms: C_21  and  O_22
REMARK   13  A    between atoms: O_22  and  C_23
REMARK                            x       y       z     vdW  Elec       q    Type
REMARK                         _______ _______ _______ _____ _____    ______ ____
ROOT
ATOM      1  N   UNK A   0       8.290   8.960  18.065  0.00  0.00    +0.000 N 
ATOM      2  C   UNK A   0       7.847   7.665  18.077  0.00  0.00    +0.000 C 
ATOM      3  O   UNK A   0       8.199   6.813  18.879  0.00  0.00    +0.000 OA
ATOM      4  N   LEU A   1       6.932   7.444  17.091  0.00  0.00    +0.000 N 
ATOM      5  H   UNK A   0       7.651   9.632  17.667  0.00  0.00    +0.000 HD
ATOM      6  H   LEU A   1       6.969   8.043  16.274  0.00  0.00    +0.000 HD
ENDROOT
BRANCH   1   7
ATOM      7  C   UNK A   0       9.157   9.445  19.114  0.00  0.00    +0.000 C 
BRANCH   7  11
ATOM      8  C   UNK A   0       9.518  13.751  18.836  0.00  0.00    +0.000 A 
ATOM      9  C   UNK A   0       9.381  12.959  17.685  0.00  0.00    +0.000 A 
ATOM     10  C   UNK A   0       9.266  11.570  17.774  0.00  0.00    +0.000 A 
ATOM     11  C   UNK A   0       9.339  10.937  19.014  0.00  0.00    +0.000 A 
ATOM     12  C   UNK A   0       9.549  11.722  20.155  0.00  0.00    +0.000 A 
ATOM     13  C   UNK A   0       9.654  13.122  20.083  0.00  0.00    +0.000 A 
BRANCH   8  15
ATOM     14  C   UNK A   0       8.286  15.753  18.566  0.00  0.00    +0.000 C 
ATOM     15  O   UNK A   0       9.552  15.117  18.752  0.00  0.00    +0.000 OA
ENDBRANCH   8  15
BRANCH  13  16
ATOM     16  O   UNK A   0       9.858  13.687  21.315  0.00  0.00    +0.000 OA
ATOM     17  C   UNK A   0       9.048  13.280  22.406  0.00  0.00    +0.000 C 
ENDBRANCH  13  16
ENDBRANCH   7  11
ENDBRANCH   1   7
BRANCH   4  18
ATOM     18  CA  LEU A   1       6.224   6.179  16.937  0.00  0.00    +0.000 C 
BRANCH  18  19
ATOM     19  C   LEU A   1       6.905   5.374  15.818  0.00  0.00    +0.000 C 
ATOM     20  O   LEU A   1       7.835   4.603  16.011  0.00  0.00    +0.000 OA
BRANCH  19  21
ATOM     21  OXT LEU A   1       6.384   5.572  14.586  0.00  0.00    +0.000 OA
ATOM     22  HXT LEU A   1       7.035   5.793  13.893  0.00  0.00    +0.000 HD
ENDBRANCH  19  21
ENDBRANCH  18  19
BRANCH  18  23
ATOM     23  CB  LEU A   1       4.718   6.382  16.675  0.00  0.00    +0.000 C 
BRANCH  23  24
ATOM     24  CG  LEU A   1       3.758   5.875  17.777  0.00  0.00    +0.000 C 
ATOM     25  CD1 LEU A   1       4.547   5.511  19.042  0.00  0.00    +0.000 C 
ATOM     26  CD2 LEU A   1       2.671   6.883  18.154  0.00  0.00    +0.000 C 
ENDBRANCH  23  24
ENDBRANCH  18  23
ENDBRANCH   4  18
TORSDOF 9
ENDMDL
MODEL 5
REMARK VINA RESULT:      -6.4      6.533     10.176
REMARK  Name = 
REMARK  13 active torsions:
REMARK  status: ('A' for Active; 'I' for Inactive)
REMARK    1  A    between atoms: C_1  and  O_2
REMARK    2  A    between atoms: O_2  and  C_3
REMARK    3  A    between atoms: C_6  and  C_7
REMARK    4  A    between atoms: C_7  and  N_8
REMARK    5  A    between atoms: N_11  and  CA_12
REMARK    6  A    between atoms: CA_12  and  CB_13
REMARK    7  A    between atoms: CA_12  and  C_17
REMARK    8  A    between atoms: CB_13  and  CG_14
REMARK    9  A    between atoms: CG_14  and  CD1_15
REMARK   10  A    between atoms: CG_14  and  CD2_16
REMARK   11  A    between atoms: C_17  and  OXT_19
REMARK   12  A    between atoms: C_21  and  O_22
REMARK   13  A    between atoms: O_22  and  C_23
REMARK                            x       y       z     vdW  Elec       q    Type
REMARK                         _______ _______ _______ _____ _____    ______ ____
ROOT
ATOM      1  N   UNK A   0       1.686   8.627  17.959  0.00  0.00    +0.000 N 
ATOM      2  C   UNK A   0       1.343   9.937  18.159  0.00  0.00    +0.000 C 
ATOM      3  O   UNK A   0       2.132  10.869  18.196  0.00  0.00    +0.000 OA
ATOM      4  N   LEU A   1      -0.007  10.083  18.286  0.00  0.00    +0.000 N 
ATOM      5  H   UNK A   0       0.971   8.052  17.541  0.00  0.00    +0.000 HD
ATOM      6  H   LEU A   1      -0.536   9.282  18.611  0.00  0.00    +0.000 HD
ENDROOT
BRANCH   1   7
ATOM      7  C   UNK A   0       3.053   8.268  17.658  0.00  0.00    +0.000 C 
BRANCH   7  11
ATOM      8  C   UNK A   0       3.717   4.033  18.262  0.00  0.00    +0.000 A 
ATOM      9  C   UNK A   0       4.732   4.861  17.758  0.00  0.00    +0.000 A 
ATOM     10  C   UNK A   0       4.519   6.227  17.562  0.00  0.00    +0.000 A 
ATOM     11  C   UNK A   0       3.267   6.786  17.815  0.00  0.00    +0.000 A 
ATOM     12  C   UNK A   0       2.233   5.945  18.248  0.00  0.00    +0.000 A 
ATOM     13  C   UNK A   0       2.437   4.570  18.462  0.00  0.00    +0.000 A 
BRANCH   8  15
ATOM     14  C   UNK A   0       4.367   2.415  19.862  0.00  0.00    +0.000 C 
ATOM     15  O   UNK A   0       3.953   2.710  18.527  0.00  0.00    +0.000 OA
ENDBRANCH   8  15
BRANCH  13  16
ATOM     16  O   UNK A   0       1.293   3.940  18.883  0.00  0.00    +0.000 OA
ATOM     17  C   UNK A   0       0.968   3.944  20.263  0.00  0.00    +0.000 C 
ENDBRANCH  13  16
ENDBRANCH   7  11
ENDBRANCH   1   7
BRANCH   4  18
ATOM     18  CA  LEU A   1      -0.655  11.383  18.409  0.00  0.00    +0.000 C 
BRANCH  18  19
ATOM     19  C   LEU A   1      -1.109  11.563  19.867  0.00  0.00    +0.000 C 
ATOM     20  O   LEU A   1      -0.670  10.902  20.798  0.00  0.00    +0.000 OA
BRANCH  19  21
ATOM     21  OXT LEU A   1      -2.034  12.532  20.052  0.00  0.00    +0.000 OA
ATOM     22  HXT LEU A   1      -1.714  13.325  20.521  0.00  0.00    +0.000 HD
ENDBRANCH  19  21
ENDBRANCH  18  19
BRANCH  18  23
ATOM     23  CB  LEU A   1      -1.818  11.551  17.411  0.00  0.00    +0.000 C 
BRANCH  23  24
ATOM     24  CG  LEU A   1      -2.339  10.256  16.744  0.00  0.00    +0.000 C 
ATOM     25  CD1 LEU A   1      -3.479   9.652  17.575  0.00  0.00    +0.000 C 
ATOM     26  CD2 LEU A   1      -2.835  10.461  15.312  0.00  0.00    +0.000 C 
ENDBRANCH  23  24
ENDBRANCH  18  23
ENDBRANCH   4  18
TORSDOF 9
ENDMDL
MODEL 6
REMARK VINA RESULT:      -6.4      6.878      9.572
REMARK  Name = 
REMARK  13 active torsions:
REMARK  status: ('A' for Active; 'I' for Inactive)
REMARK    1  A    between atoms: C_1  and  O_2
REMARK    2  A    between atoms: O_2  and  C_3
REMARK    3  A    between atoms: C_6  and  C_7
REMARK    4  A    between atoms: C_7  and  N_8
REMARK    5  A    between atoms: N_11  and  CA_12
REMARK    6  A    between atoms: CA_12  and  CB_13
REMARK    7  A    between atoms: CA_12  and  C_17
REMARK    8  A    between atoms: CB_13  and  CG_14
REMARK    9  A    between atoms: CG_14  and  CD1_15
REMARK   10  A    between atoms: CG_14  and  CD2_16
REMARK   11  A    between atoms: C_17  and  OXT_19
REMARK   12  A    between atoms: C_21  and  O_22
REMARK   13  A    between atoms: O_22  and  C_23
REMARK                            x       y       z     vdW  Elec       q    Type
REMARK                         _______ _______ _______ _____ _____    ______ ____
ROOT
ATOM      1  N   UNK A   0       1.320   9.322  18.456  0.00  0.00    +0.000 N 
ATOM      2  C   UNK A   0       1.920   8.202  18.964  0.00  0.00    +0.000 C 
ATOM      3  O   UNK A   0       2.034   7.949  20.155  0.00  0.00    +0.000 OA
ATOM      4  N   LEU A   1       2.356   7.377  17.970  0.00  0.00    +0.000 N 
ATOM      5  H   UNK A   0       0.924   9.219  17.534  0.00  0.00    +0.000 HD
ATOM      6  H   LEU A   1       2.563   7.796  17.070  0.00  0.00    +0.000 HD
ENDROOT
BRANCH   1   7
ATOM      7  C   UNK A   0       0.662  10.261  19.335  0.00  0.00    +0.000 C 
BRANCH   7  11
ATOM      8  C   UNK A   0      -3.234  11.347  17.789  0.00  0.00    +0.000 A 
ATOM      9  C   UNK A   0      -2.740  11.913  18.975  0.00  0.00    +0.000 A 
ATOM     10  C   UNK A   0      -1.485  11.563  19.474  0.00  0.00    +0.000 A 
ATOM     11  C   UNK A   0      -0.716  10.596  18.828  0.00  0.00    +0.000 A 
ATOM     12  C   UNK A   0      -1.241   9.978  17.686  0.00  0.00    +0.000 A 
ATOM     13  C   UNK A   0      -2.498  10.330  17.163  0.00  0.00    +0.000 A 
BRANCH   8  15
ATOM     14  C   UNK A   0      -5.593  11.191  17.873  0.00  0.00    +0.000 C 
ATOM     15  O   UNK A   0      -4.430  11.750  17.260  0.00  0.00    +0.000 OA
ENDBRANCH   8  15
BRANCH  13  16
ATOM     16  O   UNK A   0      -2.813   9.600  16.045  0.00  0.00    +0.000 OA
ATOM     17  C   UNK A   0      -2.905  10.259  14.792  0.00  0.00    +0.000 C 
ENDBRANCH  13  16
ENDBRANCH   7  11
ENDBRANCH   1   7
BRANCH   4  18
ATOM     18  CA  LEU A   1       2.943   6.068  18.227  0.00  0.00    +0.000 C 
BRANCH  18  19
ATOM     19  C   LEU A   1       4.199   5.919  17.354  0.00  0.00    +0.000 C 
ATOM     20  O   LEU A   1       5.016   6.814  17.188  0.00  0.00    +0.000 OA
BRANCH  19  21
ATOM     21  OXT LEU A   1       4.346   4.702  16.783  0.00  0.00    +0.000 OA
ATOM     22  HXT LEU A   1       3.524   4.185  16.695  0.00  0.00    +0.000 HD
ENDBRANCH  19  21
ENDBRANCH  18  19
BRANCH  18  23
ATOM     23  CB  LEU A   1       1.936   4.923  18.001  0.00  0.00    +0.000 C 
BRANCH  23  24
ATOM     24  CG  LEU A   1       1.902   3.818  19.083  0.00  0.00    +0.000 C 
ATOM     25  CD1 LEU A   1       1.039   4.266  20.271  0.00  0.00    +0.000 C 
ATOM     26  CD2 LEU A   1       1.372   2.477  18.574  0.00  0.00    +0.000 C 
ENDBRANCH  23  24
ENDBRANCH  18  23
ENDBRANCH   4  18
TORSDOF 9
ENDMDL
MODEL 7
REMARK VINA RESULT:      -6.4      6.069      9.987
REMARK  Name = 
REMARK  13 active torsions:
REMARK  status: ('A' for Active; 'I' for Inactive)
REMARK    1  A    between atoms: C_1  and  O_2
REMARK    2  A    between atoms: O_2  and  C_3
REMARK    3  A    between atoms: C_6  and  C_7
REMARK    4  A    between atoms: C_7  and  N_8
REMARK    5  A    between atoms: N_11  and  CA_12
REMARK    6  A    between atoms: CA_12  and  CB_13
REMARK    7  A    between atoms: CA_12  and  C_17
REMARK    8  A    between atoms: CB_13  and  CG_14
REMARK    9  A    between atoms: CG_14  and  CD1_15
REMARK   10  A    between atoms: CG_14  and  CD2_16
REMARK   11  A    between atoms: C_17  and  OXT_19
REMARK   12  A    between atoms: C_21  and  O_22
REMARK   13  A    between atoms: O_22  and  C_23
REMARK                            x       y       z     vdW  Elec       q    Type
REMARK                         _______ _______ _______ _____ _____    ______ ____
ROOT
ATOM      1  N   UNK A   0       1.676   8.321  18.034  0.00  0.00    +0.000 N 
ATOM      2  C   UNK A   0       1.403   9.656  18.156  0.00  0.00    +0.000 C 
ATOM      3  O   UNK A   0       2.223  10.553  18.021  0.00  0.00    +0.000 OA
ATOM      4  N   LEU A   1       0.083   9.872  18.423  0.00  0.00    +0.000 N 
ATOM      5  H   UNK A   0       0.897   7.745  17.752  0.00  0.00    +0.000 HD
ATOM      6  H   LEU A   1      -0.432   9.125  18.875  0.00  0.00    +0.000 HD
ENDROOT
BRANCH   1   7
ATOM      7  C   UNK A   0       2.985   7.878  17.612  0.00  0.00    +0.000 C 
BRANCH   7  11
ATOM      8  C   UNK A   0       3.822   3.823  18.880  0.00  0.00    +0.000 A 
ATOM      9  C   UNK A   0       2.524   4.217  18.519  0.00  0.00    +0.000 A 
ATOM     10  C   UNK A   0       2.253   5.525  18.111  0.00  0.00    +0.000 A 
ATOM     11  C   UNK A   0       3.265   6.483  18.106  0.00  0.00    +0.000 A 
ATOM     12  C   UNK A   0       4.545   6.108  18.536  0.00  0.00    +0.000 A 
ATOM     13  C   UNK A   0       4.836   4.792  18.937  0.00  0.00    +0.000 A 
BRANCH   8  15
ATOM     14  C   UNK A   0       3.502   1.537  18.360  0.00  0.00    +0.000 C 
ATOM     15  O   UNK A   0       4.100   2.523  19.204  0.00  0.00    +0.000 OA
ENDBRANCH   8  15
BRANCH  13  16
ATOM     16  O   UNK A   0       6.145   4.648  19.319  0.00  0.00    +0.000 OA
ATOM     17  C   UNK A   0       7.086   5.644  18.952  0.00  0.00    +0.000 C 
ENDBRANCH  13  16
ENDBRANCH   7  11
ENDBRANCH   1   7
BRANCH   4  18
ATOM     18  CA  LEU A   1      -0.501  11.205  18.504  0.00  0.00    +0.000 C 
BRANCH  18  19
ATOM     19  C   LEU A   1      -0.918  11.464  19.961  0.00  0.00    +0.000 C 
ATOM     20  O   LEU A   1      -0.596  10.742  20.894  0.00  0.00    +0.000 OA
BRANCH  19  21
ATOM     21  OXT LEU A   1      -1.668  12.575  20.142  0.00  0.00    +0.000 OA
ATOM     22  HXT LEU A   1      -1.199  13.328  20.546  0.00  0.00    +0.000 HD
ENDBRANCH  19  21
ENDBRANCH  18  19
BRANCH  18  23
ATOM     23  CB  LEU A   1      -1.673  11.389  17.520  0.00  0.00    +0.000 C 
BRANCH  23  24
ATOM     24  CG  LEU A   1      -2.251  10.096  16.896  0.00  0.00    +0.000 C 
ATOM     25  CD1 LEU A   1      -3.442   9.594  17.723  0.00  0.00    +0.000 C 
ATOM     26  CD2 LEU A   1      -2.701  10.265  15.445  0.00  0.00    +0.000 C 
ENDBRANCH  23  24
ENDBRANCH  18  23
ENDBRANCH   4  18
TORSDOF 9
ENDMDL
MODEL 8
REMARK VINA RESULT:      -6.4      6.989      8.156
REMARK  Name = 
REMARK  13 active torsions:
REMARK  status: ('A' for Active; 'I' for Inactive)
REMARK    1  A    between atoms: C_1  and  O_2
REMARK    2  A    between atoms: O_2  and  C_3
REMARK    3  A    between atoms: C_6  and  C_7
REMARK    4  A    between atoms: C_7  and  N_8
REMARK    5  A    between atoms: N_11  and  CA_12
REMARK    6  A    between atoms: CA_12  and  CB_13
REMARK    7  A    between atoms: CA_12  and  C_17
REMARK    8  A    between atoms: CB_13  and  CG_14
REMARK    9  A    between atoms: CG_14  and  CD1_15
REMARK   10  A    between atoms: CG_14  and  CD2_16
REMARK   11  A    between atoms: C_17  and  OXT_19
REMARK   12  A    between atoms: C_21  and  O_22
REMARK   13  A    between atoms: O_22  and  C_23
REMARK                            x       y       z     vdW  Elec       q    Type
REMARK                         _______ _______ _______ _____ _____    ______ ____
ROOT
ATOM      1  N   UNK A   0       2.607   7.207  19.712  0.00  0.00    +0.000 N 
ATOM      2  C   UNK A   0       2.973   5.889  19.664  0.00  0.00    +0.000 C 
ATOM      3  O   UNK A   0       2.680   5.051  20.505  0.00  0.00    +0.000 OA
ATOM      4  N   LEU A   1       3.690   5.612  18.539  0.00  0.00    +0.000 N 
ATOM      5  H   UNK A   0       2.535   7.667  18.817  0.00  0.00    +0.000 HD
ATOM      6  H   LEU A   1       4.195   6.376  18.105  0.00  0.00    +0.000 HD
ENDROOT
BRANCH   1   7
ATOM      7  C   UNK A   0       1.720   7.682  20.749  0.00  0.00    +0.000 C 
BRANCH   7  11
ATOM      8  C   UNK A   0      -0.536  11.128  19.414  0.00  0.00    +0.000 A 
ATOM      9  C   UNK A   0       0.309  10.430  18.537  0.00  0.00    +0.000 A 
ATOM     10  C   UNK A   0       1.037   9.319  18.967  0.00  0.00    +0.000 A 
ATOM     11  C   UNK A   0       0.979   8.913  20.300  0.00  0.00    +0.000 A 
ATOM     12  C   UNK A   0       0.193   9.655  21.191  0.00  0.00    +0.000 A 
ATOM     13  C   UNK A   0      -0.556  10.768  20.771  0.00  0.00    +0.000 A 
BRANCH   8  15
ATOM     14  C   UNK A   0      -2.200  11.858  17.900  0.00  0.00    +0.000 C 
ATOM     15  O   UNK A   0      -1.308  12.168  18.972  0.00  0.00    +0.000 OA
ENDBRANCH   8  15
BRANCH  13  16
ATOM     16  O   UNK A   0      -1.249  11.343  21.805  0.00  0.00    +0.000 OA
ATOM     17  C   UNK A   0      -1.152  10.777  23.102  0.00  0.00    +0.000 C 
ENDBRANCH  13  16
ENDBRANCH   7  11
ENDBRANCH   1   7
BRANCH   4  18
ATOM     18  CA  LEU A   1       4.123   4.265  18.186  0.00  0.00    +0.000 C 
BRANCH  18  19
ATOM     19  C   LEU A   1       5.547   4.347  17.615  0.00  0.00    +0.000 C 
ATOM     20  O   LEU A   1       5.795   4.666  16.460  0.00  0.00    +0.000 OA
BRANCH  19  21
ATOM     21  OXT LEU A   1       6.526   4.048  18.499  0.00  0.00    +0.000 OA
ATOM     22  HXT LEU A   1       6.241   4.006  19.431  0.00  0.00    +0.000 HD
ENDBRANCH  19  21
ENDBRANCH  18  19
BRANCH  18  23
ATOM     23  CB  LEU A   1       3.144   3.575  17.215  0.00  0.00    +0.000 C 
BRANCH  23  24
ATOM     24  CG  LEU A   1       2.474   2.278  17.728  0.00  0.00    +0.000 C 
ATOM     25  CD1 LEU A   1       3.462   1.472  18.583  0.00  0.00    +0.000 C 
ATOM     26  CD2 LEU A   1       1.208   2.525  18.549  0.00  0.00    +0.000 C 
ENDBRANCH  23  24
ENDBRANCH  18  23
ENDBRANCH   4  18
TORSDOF 9
ENDMDL
MODEL 9
REMARK VINA RESULT:      -6.4      1.303      1.469
REMARK  Name = 
REMARK  13 active torsions:
REMARK  status: ('A' for Active; 'I' for Inactive)
REMARK    1  A    between atoms: C_1  and  O_2
REMARK    2  A    between atoms: O_2  and  C_3
REMARK    3  A    between atoms: C_6  and  C_7
REMARK    4  A    between atoms: C_7  and  N_8
REMARK    5  A    between atoms: N_11  and  CA_12
REMARK    6  A    between atoms: CA_12  and  CB_13
REMARK    7  A    between atoms: CA_12  and  C_17
REMARK    8  A    between atoms: CB_13  and  CG_14
REMARK    9  A    between atoms: CG_14  and  CD1_15
REMARK   10  A    between atoms: CG_14  and  CD2_16
REMARK   11  A    between atoms: C_17  and  OXT_19
REMARK   12  A    between atoms: C_21  and  O_22
REMARK   13  A    between atoms: O_22  and  C_23
REMARK                            x       y       z     vdW  Elec       q    Type
REMARK                         _______ _______ _______ _____ _____    ______ ____
ROOT
ATOM      1  N   UNK A   0       8.131   8.869  17.923  0.00  0.00    +0.000 N 
ATOM      2  C   UNK A   0       7.713   7.567  17.981  0.00  0.00    +0.000 C 
ATOM      3  O   UNK A   0       8.159   6.722  18.744  0.00  0.00    +0.000 OA
ATOM      4  N   LEU A   1       6.706   7.329  17.094  0.00  0.00    +0.000 N 
ATOM      5  H   UNK A   0       7.444   9.529  17.593  0.00  0.00    +0.000 HD
ATOM      6  H   LEU A   1       6.649   7.926  16.277  0.00  0.00    +0.000 HD
ENDROOT
BRANCH   1   7
ATOM      7  C   UNK A   0       9.093   9.371  18.878  0.00  0.00    +0.000 C 
BRANCH   7  11
ATOM      8  C   UNK A   0       9.876  13.565  18.142  0.00  0.00    +0.000 A 
ATOM      9  C   UNK A   0      10.785  12.772  18.860  0.00  0.00    +0.000 A 
ATOM     10  C   UNK A   0      10.533  11.420  19.098  0.00  0.00    +0.000 A 
ATOM     11  C   UNK A   0       9.339  10.841  18.671  0.00  0.00    +0.000 A 
ATOM     12  C   UNK A   0       8.399  11.651  18.019  0.00  0.00    +0.000 A 
ATOM     13  C   UNK A   0       8.644  13.011  17.760  0.00  0.00    +0.000 A 
BRANCH   8  15
ATOM     14  C   UNK A   0      11.257  15.069  16.947  0.00  0.00    +0.000 C 
ATOM     15  O   UNK A   0      10.161  14.870  17.842  0.00  0.00    +0.000 OA
ENDBRANCH   8  15
BRANCH  13  16
ATOM     16  O   UNK A   0       7.593  13.610  17.114  0.00  0.00    +0.000 OA
ATOM     17  C   UNK A   0       6.734  14.471  17.843  0.00  0.00    +0.000 C 
ENDBRANCH  13  16
ENDBRANCH   7  11
ENDBRANCH   1   7
BRANCH   4  18
ATOM     18  CA  LEU A   1       6.007   6.052  17.014  0.00  0.00    +0.000 C 
BRANCH  18  19
ATOM     19  C   LEU A   1       5.441   5.896  15.593  0.00  0.00    +0.000 C 
ATOM     20  O   LEU A   1       5.158   6.843  14.871  0.00  0.00    +0.000 OA
BRANCH  19  21
ATOM     21  OXT LEU A   1       5.290   4.616  15.184  0.00  0.00    +0.000 OA
ATOM     22  HXT LEU A   1       4.471   4.181  15.487  0.00  0.00    +0.000 HD
ENDBRANCH  19  21
ENDBRANCH  18  19
BRANCH  18  23
ATOM     23  CB  LEU A   1       4.915   5.917  18.093  0.00  0.00    +0.000 C 
BRANCH  23  24
ATOM     24  CG  LEU A   1       3.470   6.248  17.650  0.00  0.00    +0.000 C 
ATOM     25  CD1 LEU A   1       2.470   5.337  18.374  0.00  0.00    +0.000 C 
ATOM     26  CD2 LEU A   1       3.071   7.703  17.898  0.00  0.00    +0.000 C 
ENDBRANCH  23  24
ENDBRANCH  18  23
ENDBRANCH   4  18
TORSDOF 9
ENDMDL
