MODEL 1
REMARK VINA RESULT:      -7.5      0.000      0.000
REMARK  Name = 
REMARK  11 active torsions:
REMARK  status: ('A' for Active; 'I' for Inactive)
REMARK    1  A    between atoms: C_1  and  O_2
REMARK    2  A    between atoms: O_2  and  C_3
REMARK    3  A    between atoms: C_5  and  N_6
REMARK    4  A    between atoms: N_6  and  S_7
REMARK    5  A    between atoms: S_7  and  C_8
REMARK    6  A    between atoms: C_13  and  N_14
REMARK    7  A    between atoms: N_14  and  C_15
REMARK    8  A    between atoms: C_24  and  C_25
REMARK    9  A    between atoms: N_27  and  C_28
REMARK   10  A    between atoms: C_28  and  C_29
REMARK   11  A    between atoms: C_29  and  O_30
REMARK                            x       y       z     vdW  Elec       q    Type
REMARK                         _______ _______ _______ _____ _____    ______ ____
ROOT
ATOM      1  C   UNL     1       3.035   6.359  19.293  0.00  0.00    +0.000 A 
ATOM      2  C   UNL     1       4.355   6.408  18.680  0.00  0.00    +0.000 A 
ATOM      3  C   UNL     1       4.793   7.184  17.576  0.00  0.00    +0.000 A 
ATOM      4  C   UNL     1       6.094   7.054  17.063  0.00  0.00    +0.000 A 
ATOM      5  C   UNL     1       7.020   6.234  17.697  0.00  0.00    +0.000 A 
ATOM      6  C   UNL     1       6.604   5.445  18.755  0.00  0.00    +0.000 A 
ATOM      7  C   UNL     1       5.272   5.447  19.136  0.00  0.00    +0.000 A 
ATOM      8  N   UNL     1       4.842   4.362  19.754  0.00  0.00    +0.000 NA
ATOM      9  C   UNL     1       3.516   4.173  19.739  0.00  0.00    +0.000 A 
ATOM     10  C   UNL     1       2.799   3.330  18.877  0.00  0.00    +0.000 A 
ATOM     11  C   UNL     1       1.460   3.046  19.187  0.00  0.00    +0.000 A 
ATOM     12  C   UNL     1       0.865   3.728  20.245  0.00  0.00    +0.000 A 
ATOM     13  C   UNL     1       1.507   4.871  20.698  0.00  0.00    +0.000 A 
ATOM     14  C   UNL     1       2.727   5.218  20.095  0.00  0.00    +0.000 A 
ENDROOT
BRANCH  10  15
ATOM     15  C   UNL     1       3.303   3.292  17.442  0.00  0.00    +0.000 C 
ATOM     16  O   UNL     1       2.552   3.331  16.475  0.00  0.00    +0.000 OA
ATOM     17  N   UNL     1       4.664   3.047  17.267  0.00  0.00    +0.000 N 
ATOM     18  H   UNL     1       5.314   3.323  17.988  0.00  0.00    +0.000 HD
BRANCH  17  19
ATOM     19  C   UNL     1       5.189   2.677  15.952  0.00  0.00    +0.000 C 
BRANCH  19  20
ATOM     20  C   UNL     1       5.959   3.823  15.284  0.00  0.00    +0.000 C 
BRANCH  20  21
ATOM     21  O   UNL     1       6.374   3.472  13.970  0.00  0.00    +0.000 OA
ATOM     22  H   UNL     1       5.584   3.490  13.400  0.00  0.00    +0.000 HD
ENDBRANCH  20  21
ENDBRANCH  19  20
ENDBRANCH  17  19
ENDBRANCH  10  15
BRANCH   1  23
ATOM     23  N   UNL     1       1.966   7.133  18.694  0.00  0.00    +0.000 N 
ATOM     24  H   UNL     1       1.884   6.897  17.708  0.00  0.00    +0.000 HD
BRANCH  23  30
ATOM     25  C   UNL     1       1.103   9.046  20.036  0.00  0.00    +0.000 A 
ATOM     26  C   UNL     1       1.003  10.437  20.204  0.00  0.00    +0.000 A 
ATOM     27  C   UNL     1       1.377  11.303  19.180  0.00  0.00    +0.000 A 
ATOM     28  C   UNL     1       1.896  10.794  17.994  0.00  0.00    +0.000 A 
ATOM     29  C   UNL     1       2.037   9.406  17.838  0.00  0.00    +0.000 A 
ATOM     30  C   UNL     1       1.630   8.510  18.845  0.00  0.00    +0.000 A 
BRANCH  25  32
ATOM     31  C   UNL     1      -0.341   8.608  21.860  0.00  0.00    +0.000 C 
ATOM     32  O   UNL     1       0.723   8.159  21.013  0.00  0.00    +0.000 OA
ENDBRANCH  25  32
BRANCH  27  33
ATOM     33  N   UNL     1       1.249  12.711  19.388  0.00  0.00    +0.000 N 
ATOM     34  H   UNL     1       1.655  13.060  20.257  0.00  0.00    +0.000 HD
BRANCH  33  35
ATOM     35  S   UNL     1      -0.277  13.405  19.195  0.00  0.00    +0.000 S 
ATOM     36  C   UNL     1       0.116  15.112  18.878  0.00  0.00    +0.000 C 
ATOM     37  O   UNL     1      -0.932  12.853  18.034  0.00  0.00    +0.000 OA
ATOM     38  O   UNL     1      -0.899  13.332  20.502  0.00  0.00    +0.000 OA
ENDBRANCH  33  35
ENDBRANCH  27  33
ENDBRANCH  23  30
ENDBRANCH   1  23
TORSDOF 9
ENDMDL
MODEL 2
REMARK VINA RESULT:      -7.5      2.313      4.340
REMARK  Name = 
REMARK  11 active torsions:
REMARK  status: ('A' for Active; 'I' for Inactive)
REMARK    1  A    between atoms: C_1  and  O_2
REMARK    2  A    between atoms: O_2  and  C_3
REMARK    3  A    between atoms: C_5  and  N_6
REMARK    4  A    between atoms: N_6  and  S_7
REMARK    5  A    between atoms: S_7  and  C_8
REMARK    6  A    between atoms: C_13  and  N_14
REMARK    7  A    between atoms: N_14  and  C_15
REMARK    8  A    between atoms: C_24  and  C_25
REMARK    9  A    between atoms: N_27  and  C_28
REMARK   10  A    between atoms: C_28  and  C_29
REMARK   11  A    between atoms: C_29  and  O_30
REMARK                            x       y       z     vdW  Elec       q    Type
REMARK                         _______ _______ _______ _____ _____    ______ ____
ROOT
ATOM      1  C   UNL     1       2.319   6.187  18.878  0.00  0.00    +0.000 A 
ATOM      2  C   UNL     1       1.754   4.909  19.291  0.00  0.00    +0.000 A 
ATOM      3  C   UNL     1       1.372   4.486  20.591  0.00  0.00    +0.000 A 
ATOM      4  C   UNL     1       0.908   3.182  20.825  0.00  0.00    +0.000 A 
ATOM      5  C   UNL     1       0.711   2.304  19.765  0.00  0.00    +0.000 A 
ATOM      6  C   UNL     1       1.108   2.686  18.496  0.00  0.00    +0.000 A 
ATOM      7  C   UNL     1       1.732   3.908  18.307  0.00  0.00    +0.000 A 
ATOM      8  N   UNL     1       2.519   4.002  17.250  0.00  0.00    +0.000 NA
ATOM      9  C   UNL     1       3.432   4.982  17.291  0.00  0.00    +0.000 A 
ATOM     10  C   UNL     1       4.785   4.855  17.634  0.00  0.00    +0.000 A 
ATOM     11  C   UNL     1       5.646   5.926  17.352  0.00  0.00    +0.000 A 
ATOM     12  C   UNL     1       5.094   7.116  16.886  0.00  0.00    +0.000 A 
ATOM     13  C   UNL     1       3.728   7.284  17.052  0.00  0.00    +0.000 A 
ATOM     14  C   UNL     1       3.004   6.226  17.626  0.00  0.00    +0.000 A 
ENDROOT
BRANCH  10  15
ATOM     15  C   UNL     1       5.075   3.886  18.771  0.00  0.00    +0.000 C 
ATOM     16  O   UNL     1       5.885   4.127  19.657  0.00  0.00    +0.000 OA
ATOM     17  N   UNL     1       4.491   2.623  18.677  0.00  0.00    +0.000 N 
ATOM     18  H   UNL     1       3.621   2.516  18.175  0.00  0.00    +0.000 HD
BRANCH  17  19
ATOM     19  C   UNL     1       4.951   1.527  19.529  0.00  0.00    +0.000 C 
BRANCH  19  20
ATOM     20  C   UNL     1       4.557   1.723  20.999  0.00  0.00    +0.000 C 
BRANCH  20  21
ATOM     21  O   UNL     1       5.556   1.216  21.875  0.00  0.00    +0.000 OA
ATOM     22  H   UNL     1       5.799   0.329  21.558  0.00  0.00    +0.000 HD
ENDBRANCH  20  21
ENDBRANCH  19  20
ENDBRANCH  17  19
ENDBRANCH  10  15
BRANCH   1  23
ATOM     23  N   UNL     1       2.618   7.172  19.898  0.00  0.00    +0.000 N 
ATOM     24  H   UNL     1       3.092   6.723  20.679  0.00  0.00    +0.000 HD
BRANCH  23  30
ATOM     25  C   UNL     1       1.294   9.263  19.622  0.00  0.00    +0.000 A 
ATOM     26  C   UNL     1       0.334  10.145  20.144  0.00  0.00    +0.000 A 
ATOM     27  C   UNL     1      -0.080  10.040  21.469  0.00  0.00    +0.000 A 
ATOM     28  C   UNL     1       0.427   9.027  22.276  0.00  0.00    +0.000 A 
ATOM     29  C   UNL     1       1.357   8.118  21.747  0.00  0.00    +0.000 A 
ATOM     30  C   UNL     1       1.817   8.228  20.421  0.00  0.00    +0.000 A 
BRANCH  25  32
ATOM     31  C   UNL     1       2.114  10.665  17.899  0.00  0.00    +0.000 C 
ATOM     32  O   UNL     1       1.744   9.350  18.328  0.00  0.00    +0.000 OA
ENDBRANCH  25  32
BRANCH  27  33
ATOM     33  N   UNL     1      -1.051  10.964  21.962  0.00  0.00    +0.000 N 
ATOM     34  H   UNL     1      -2.013  10.776  21.679  0.00  0.00    +0.000 HD
BRANCH  33  35
ATOM     35  S   UNL     1      -0.750  12.613  21.763  0.00  0.00    +0.000 S 
ATOM     36  C   UNL     1      -1.494  13.317  23.219  0.00  0.00    +0.000 C 
ATOM     37  O   UNL     1       0.670  12.867  21.795  0.00  0.00    +0.000 OA
ATOM     38  O   UNL     1      -1.549  13.013  20.622  0.00  0.00    +0.000 OA
ENDBRANCH  33  35
ENDBRANCH  27  33
ENDBRANCH  23  30
ENDBRANCH   1  23
TORSDOF 9
ENDMDL
MODEL 3
REMARK VINA RESULT:      -7.5      2.134      2.962
REMARK  Name = 
REMARK  11 active torsions:
REMARK  status: ('A' for Active; 'I' for Inactive)
REMARK    1  A    between atoms: C_1  and  O_2
REMARK    2  A    between atoms: O_2  and  C_3
REMARK    3  A    between atoms: C_5  and  N_6
REMARK    4  A    between atoms: N_6  and  S_7
REMARK    5  A    between atoms: S_7  and  C_8
REMARK    6  A    between atoms: C_13  and  N_14
REMARK    7  A    between atoms: N_14  and  C_15
REMARK    8  A    between atoms: C_24  and  C_25
REMARK    9  A    between atoms: N_27  and  C_28
REMARK   10  A    between atoms: C_28  and  C_29
REMARK   11  A    between atoms: C_29  and  O_30
REMARK                            x       y       z     vdW  Elec       q    Type
REMARK                         _______ _______ _______ _____ _____    ______ ____
ROOT
ATOM      1  C   UNL     1       4.068   6.070  18.749  0.00  0.00    +0.000 A 
ATOM      2  C   UNL     1       5.438   6.493  18.495  0.00  0.00    +0.000 A 
ATOM      3  C   UNL     1       5.902   7.722  17.958  0.00  0.00    +0.000 A 
ATOM      4  C   UNL     1       7.266   7.941  17.710  0.00  0.00    +0.000 A 
ATOM      5  C   UNL     1       8.210   6.991  18.085  0.00  0.00    +0.000 A 
ATOM      6  C   UNL     1       7.776   5.774  18.579  0.00  0.00    +0.000 A 
ATOM      7  C   UNL     1       6.419   5.502  18.650  0.00  0.00    +0.000 A 
ATOM      8  N   UNL     1       6.080   4.225  18.627  0.00  0.00    +0.000 NA
ATOM      9  C   UNL     1       4.816   3.967  18.267  0.00  0.00    +0.000 A 
ATOM     10  C   UNL     1       4.369   3.568  16.999  0.00  0.00    +0.000 A 
ATOM     11  C   UNL     1       3.061   3.076  16.881  0.00  0.00    +0.000 A 
ATOM     12  C   UNL     1       2.222   3.145  17.990  0.00  0.00    +0.000 A 
ATOM     13  C   UNL     1       2.607   3.992  19.018  0.00  0.00    +0.000 A 
ATOM     14  C   UNL     1       3.831   4.668  18.885  0.00  0.00    +0.000 A 
ENDROOT
BRANCH  10  15
ATOM     15  C   UNL     1       5.071   4.237  15.827  0.00  0.00    +0.000 C 
ATOM     16  O   UNL     1       4.726   5.323  15.379  0.00  0.00    +0.000 OA
ATOM     17  N   UNL     1       6.039   3.479  15.167  0.00  0.00    +0.000 N 
ATOM     18  H   UNL     1       6.543   2.768  15.676  0.00  0.00    +0.000 HD
BRANCH  17  19
ATOM     19  C   UNL     1       6.538   3.893  13.856  0.00  0.00    +0.000 C 
BRANCH  19  20
ATOM     20  C   UNL     1       5.665   3.370  12.706  0.00  0.00    +0.000 C 
BRANCH  20  21
ATOM     21  O   UNL     1       6.324   2.339  11.982  0.00  0.00    +0.000 OA
ATOM     22  H   UNL     1       5.701   1.595  11.902  0.00  0.00    +0.000 HD
ENDBRANCH  20  21
ENDBRANCH  19  20
ENDBRANCH  17  19
ENDBRANCH  10  15
BRANCH   1  23
ATOM     23  N   UNL     1       2.988   6.952  18.356  0.00  0.00    +0.000 N 
ATOM     24  H   UNL     1       3.262   7.482  17.532  0.00  0.00    +0.000 HD
BRANCH  23  30
ATOM     25  C   UNL     1       1.672   9.036  18.714  0.00  0.00    +0.000 A 
ATOM     26  C   UNL     1       0.666   9.703  19.432  0.00  0.00    +0.000 A 
ATOM     27  C   UNL     1       0.152   9.158  20.606  0.00  0.00    +0.000 A 
ATOM     28  C   UNL     1       0.605   7.920  21.053  0.00  0.00    +0.000 A 
ATOM     29  C   UNL     1       1.580   7.231  20.316  0.00  0.00    +0.000 A 
ATOM     30  C   UNL     1       2.141   7.780  19.147  0.00  0.00    +0.000 A 
BRANCH  25  32
ATOM     31  C   UNL     1       2.372  10.976  17.551  0.00  0.00    +0.000 C 
ATOM     32  O   UNL     1       2.219   9.552  17.565  0.00  0.00    +0.000 OA
ENDBRANCH  25  32
BRANCH  27  33
ATOM     33  N   UNL     1      -0.862   9.875  21.311  0.00  0.00    +0.000 N 
ATOM     34  H   UNL     1      -1.507  10.405  20.725  0.00  0.00    +0.000 HD
BRANCH  33  35
ATOM     35  S   UNL     1      -0.389  10.852  22.604  0.00  0.00    +0.000 S 
ATOM     36  C   UNL     1      -1.934  11.564  23.131  0.00  0.00    +0.000 C 
ATOM     37  O   UNL     1       0.141  10.042  23.673  0.00  0.00    +0.000 OA
ATOM     38  O   UNL     1       0.405  11.911  22.012  0.00  0.00    +0.000 OA
ENDBRANCH  33  35
ENDBRANCH  27  33
ENDBRANCH  23  30
ENDBRANCH   1  23
TORSDOF 9
ENDMDL
MODEL 4
REMARK VINA RESULT:      -7.5      1.948      2.623
REMARK  Name = 
REMARK  11 active torsions:
REMARK  status: ('A' for Active; 'I' for Inactive)
REMARK    1  A    between atoms: C_1  and  O_2
REMARK    2  A    between atoms: O_2  and  C_3
REMARK    3  A    between atoms: C_5  and  N_6
REMARK    4  A    between atoms: N_6  and  S_7
REMARK    5  A    between atoms: S_7  and  C_8
REMARK    6  A    between atoms: C_13  and  N_14
REMARK    7  A    between atoms: N_14  and  C_15
REMARK    8  A    between atoms: C_24  and  C_25
REMARK    9  A    between atoms: N_27  and  C_28
REMARK   10  A    between atoms: C_28  and  C_29
REMARK   11  A    between atoms: C_29  and  O_30
REMARK                            x       y       z     vdW  Elec       q    Type
REMARK                         _______ _______ _______ _____ _____    ______ ____
ROOT
ATOM      1  C   UNL     1       3.760   6.059  19.180  0.00  0.00    +0.000 A 
ATOM      2  C   UNL     1       5.110   6.375  18.735  0.00  0.00    +0.000 A 
ATOM      3  C   UNL     1       5.547   7.453  17.921  0.00  0.00    +0.000 A 
ATOM      4  C   UNL     1       6.889   7.569  17.524  0.00  0.00    +0.000 A 
ATOM      5  C   UNL     1       7.844   6.683  18.010  0.00  0.00    +0.000 A 
ATOM      6  C   UNL     1       7.434   5.608  18.777  0.00  0.00    +0.000 A 
ATOM      7  C   UNL     1       6.084   5.403  19.012  0.00  0.00    +0.000 A 
ATOM      8  N   UNL     1       5.722   4.161  19.279  0.00  0.00    +0.000 NA
ATOM      9  C   UNL     1       4.428   3.878  19.082  0.00  0.00    +0.000 A 
ATOM     10  C   UNL     1       3.867   3.245  17.964  0.00  0.00    +0.000 A 
ATOM     11  C   UNL     1       2.546   2.784  18.055  0.00  0.00    +0.000 A 
ATOM     12  C   UNL     1       1.806   3.106  19.189  0.00  0.00    +0.000 A 
ATOM     13  C   UNL     1       2.292   4.131  19.987  0.00  0.00    +0.000 A 
ATOM     14  C   UNL     1       3.511   4.723  19.620  0.00  0.00    +0.000 A 
ENDROOT
BRANCH  10  15
ATOM     15  C   UNL     1       4.478   3.636  16.626  0.00  0.00    +0.000 C 
ATOM     16  O   UNL     1       3.805   4.011  15.674  0.00  0.00    +0.000 OA
ATOM     17  N   UNL     1       5.843   3.396  16.471  0.00  0.00    +0.000 N 
ATOM     18  H   UNL     1       6.442   3.402  17.283  0.00  0.00    +0.000 HD
BRANCH  17  19
ATOM     19  C   UNL     1       6.457   3.432  15.144  0.00  0.00    +0.000 C 
BRANCH  19  20
ATOM     20  C   UNL     1       7.102   4.790  14.833  0.00  0.00    +0.000 C 
BRANCH  20  21
ATOM     21  O   UNL     1       6.120   5.807  14.680  0.00  0.00    +0.000 OA
ATOM     22  H   UNL     1       6.582   6.618  14.401  0.00  0.00    +0.000 HD
ENDBRANCH  20  21
ENDBRANCH  19  20
ENDBRANCH  17  19
ENDBRANCH  10  15
BRANCH   1  23
ATOM     23  N   UNL     1       2.665   6.879  18.701  0.00  0.00    +0.000 N 
ATOM     24  H   UNL     1       2.907   7.279  17.797  0.00  0.00    +0.000 HD
BRANCH  23  30
ATOM     25  C   UNL     1       1.459   9.054  18.835  0.00  0.00    +0.000 A 
ATOM     26  C   UNL     1       0.478   9.838  19.464  0.00  0.00    +0.000 A 
ATOM     27  C   UNL     1      -0.087   9.433  20.670  0.00  0.00    +0.000 A 
ATOM     28  C   UNL     1       0.288   8.220  21.240  0.00  0.00    +0.000 A 
ATOM     29  C   UNL     1       1.238   7.414  20.594  0.00  0.00    +0.000 A 
ATOM     30  C   UNL     1       1.850   7.821  19.392  0.00  0.00    +0.000 A 
BRANCH  25  32
ATOM     31  C   UNL     1       2.521  10.785  17.617  0.00  0.00    +0.000 C 
ATOM     32  O   UNL     1       2.056   9.431  17.657  0.00  0.00    +0.000 OA
ENDBRANCH  25  32
BRANCH  27  33
ATOM     33  N   UNL     1      -1.074  10.265  21.282  0.00  0.00    +0.000 N 
ATOM     34  H   UNL     1      -1.598  10.861  20.640  0.00  0.00    +0.000 HD
BRANCH  33  35
ATOM     35  S   UNL     1      -0.613  11.193  22.614  0.00  0.00    +0.000 S 
ATOM     36  C   UNL     1      -2.152  11.932  23.118  0.00  0.00    +0.000 C 
ATOM     37  O   UNL     1      -0.136  10.339  23.675  0.00  0.00    +0.000 OA
ATOM     38  O   UNL     1       0.227  12.246  22.076  0.00  0.00    +0.000 OA
ENDBRANCH  33  35
ENDBRANCH  27  33
ENDBRANCH  23  30
ENDBRANCH   1  23
TORSDOF 9
ENDMDL
MODEL 5
REMARK VINA RESULT:      -7.4      1.176      1.311
REMARK  Name = 
REMARK  11 active torsions:
REMARK  status: ('A' for Active; 'I' for Inactive)
REMARK    1  A    between atoms: C_1  and  O_2
REMARK    2  A    between atoms: O_2  and  C_3
REMARK    3  A    between atoms: C_5  and  N_6
REMARK    4  A    between atoms: N_6  and  S_7
REMARK    5  A    between atoms: S_7  and  C_8
REMARK    6  A    between atoms: C_13  and  N_14
REMARK    7  A    between atoms: N_14  and  C_15
REMARK    8  A    between atoms: C_24  and  C_25
REMARK    9  A    between atoms: N_27  and  C_28
REMARK   10  A    between atoms: C_28  and  C_29
REMARK   11  A    between atoms: C_29  and  O_30
REMARK                            x       y       z     vdW  Elec       q    Type
REMARK                         _______ _______ _______ _____ _____    ______ ____
ROOT
ATOM      1  C   UNL     1       3.065   6.450  19.252  0.00  0.00    +0.000 A 
ATOM      2  C   UNL     1       4.384   6.484  18.636  0.00  0.00    +0.000 A 
ATOM      3  C   UNL     1       4.821   7.239  17.516  0.00  0.00    +0.000 A 
ATOM      4  C   UNL     1       6.121   7.097  17.004  0.00  0.00    +0.000 A 
ATOM      5  C   UNL     1       7.047   6.287  17.652  0.00  0.00    +0.000 A 
ATOM      6  C   UNL     1       6.631   5.518  18.724  0.00  0.00    +0.000 A 
ATOM      7  C   UNL     1       5.300   5.531  19.107  0.00  0.00    +0.000 A 
ATOM      8  N   UNL     1       4.869   4.458  19.747  0.00  0.00    +0.000 NA
ATOM      9  C   UNL     1       3.542   4.271  19.737  0.00  0.00    +0.000 A 
ATOM     10  C   UNL     1       2.822   3.413  18.893  0.00  0.00    +0.000 A 
ATOM     11  C   UNL     1       1.484   3.138  19.211  0.00  0.00    +0.000 A 
ATOM     12  C   UNL     1       0.891   3.841  20.256  0.00  0.00    +0.000 A 
ATOM     13  C   UNL     1       1.536   4.991  20.687  0.00  0.00    +0.000 A 
ATOM     14  C   UNL     1       2.756   5.325  20.075  0.00  0.00    +0.000 A 
ENDROOT
BRANCH  10  15
ATOM     15  C   UNL     1       3.324   3.348  17.458  0.00  0.00    +0.000 C 
ATOM     16  O   UNL     1       2.571   3.357  16.492  0.00  0.00    +0.000 OA
ATOM     17  N   UNL     1       4.687   3.114  17.285  0.00  0.00    +0.000 N 
ATOM     18  H   UNL     1       5.336   3.413  17.998  0.00  0.00    +0.000 HD
BRANCH  17  19
ATOM     19  C   UNL     1       5.213   2.718  15.978  0.00  0.00    +0.000 C 
BRANCH  19  20
ATOM     20  C   UNL     1       5.848   3.893  15.222  0.00  0.00    +0.000 C 
BRANCH  20  21
ATOM     21  O   UNL     1       6.390   3.475  13.976  0.00  0.00    +0.000 OA
ATOM     22  H   UNL     1       7.261   3.079  14.155  0.00  0.00    +0.000 HD
ENDBRANCH  20  21
ENDBRANCH  19  20
ENDBRANCH  17  19
ENDBRANCH  10  15
BRANCH   1  23
ATOM     23  N   UNL     1       1.997   7.214  18.640  0.00  0.00    +0.000 N 
ATOM     24  H   UNL     1       1.961   7.016  17.643  0.00  0.00    +0.000 HD
BRANCH  23  30
ATOM     25  C   UNL     1       1.080   9.059  20.041  0.00  0.00    +0.000 A 
ATOM     26  C   UNL     1       0.930  10.440  20.246  0.00  0.00    +0.000 A 
ATOM     27  C   UNL     1       1.258  11.345  19.240  0.00  0.00    +0.000 A 
ATOM     28  C   UNL     1       1.781  10.886  18.036  0.00  0.00    +0.000 A 
ATOM     29  C   UNL     1       1.971   9.509  17.842  0.00  0.00    +0.000 A 
ATOM     30  C   UNL     1       1.612   8.573  18.830  0.00  0.00    +0.000 A 
BRANCH  25  32
ATOM     31  C   UNL     1      -0.316   8.525  21.877  0.00  0.00    +0.000 C 
ATOM     32  O   UNL     1       0.746   8.134  20.999  0.00  0.00    +0.000 OA
ENDBRANCH  25  32
BRANCH  27  33
ATOM     33  N   UNL     1       1.080  12.741  19.487  0.00  0.00    +0.000 N 
ATOM     34  H   UNL     1       0.620  13.260  18.738  0.00  0.00    +0.000 HD
BRANCH  33  35
ATOM     35  S   UNL     1       2.417  13.631  20.008  0.00  0.00    +0.000 S 
ATOM     36  C   UNL     1       1.729  15.257  20.237  0.00  0.00    +0.000 C 
ATOM     37  O   UNL     1       2.879  13.136  21.282  0.00  0.00    +0.000 OA
ATOM     38  O   UNL     1       3.309  13.686  18.866  0.00  0.00    +0.000 OA
ENDBRANCH  33  35
ENDBRANCH  27  33
ENDBRANCH  23  30
ENDBRANCH   1  23
TORSDOF 9
ENDMDL
MODEL 6
REMARK VINA RESULT:      -7.4      1.834      3.806
REMARK  Name = 
REMARK  11 active torsions:
REMARK  status: ('A' for Active; 'I' for Inactive)
REMARK    1  A    between atoms: C_1  and  O_2
REMARK    2  A    between atoms: O_2  and  C_3
REMARK    3  A    between atoms: C_5  and  N_6
REMARK    4  A    between atoms: N_6  and  S_7
REMARK    5  A    between atoms: S_7  and  C_8
REMARK    6  A    between atoms: C_13  and  N_14
REMARK    7  A    between atoms: N_14  and  C_15
REMARK    8  A    between atoms: C_24  and  C_25
REMARK    9  A    between atoms: N_27  and  C_28
REMARK   10  A    between atoms: C_28  and  C_29
REMARK   11  A    between atoms: C_29  and  O_30
REMARK                            x       y       z     vdW  Elec       q    Type
REMARK                         _______ _______ _______ _____ _____    ______ ____
ROOT
ATOM      1  C   UNL     1       2.646   6.203  18.271  0.00  0.00    +0.000 A 
ATOM      2  C   UNL     1       2.048   4.969  18.760  0.00  0.00    +0.000 A 
ATOM      3  C   UNL     1       1.364   4.736  19.982  0.00  0.00    +0.000 A 
ATOM      4  C   UNL     1       0.909   3.455  20.330  0.00  0.00    +0.000 A 
ATOM      5  C   UNL     1       1.025   2.399  19.433  0.00  0.00    +0.000 A 
ATOM      6  C   UNL     1       1.717   2.597  18.251  0.00  0.00    +0.000 A 
ATOM      7  C   UNL     1       2.319   3.819  18.000  0.00  0.00    +0.000 A 
ATOM      8  N   UNL     1       3.345   3.803  17.168  0.00  0.00    +0.000 NA
ATOM      9  C   UNL     1       4.176   4.851  17.251  0.00  0.00    +0.000 A 
ATOM     10  C   UNL     1       5.401   4.898  17.932  0.00  0.00    +0.000 A 
ATOM     11  C   UNL     1       6.260   5.978  17.677  0.00  0.00    +0.000 A 
ATOM     12  C   UNL     1       5.798   7.022  16.881  0.00  0.00    +0.000 A 
ATOM     13  C   UNL     1       4.428   7.097  16.675  0.00  0.00    +0.000 A 
ATOM     14  C   UNL     1       3.626   6.091  17.238  0.00  0.00    +0.000 A 
ENDROOT
BRANCH  10  15
ATOM     15  C   UNL     1       5.430   4.161  19.262  0.00  0.00    +0.000 C 
ATOM     16  O   UNL     1       6.024   4.589  20.244  0.00  0.00    +0.000 OA
ATOM     17  N   UNL     1       4.880   2.880  19.276  0.00  0.00    +0.000 N 
ATOM     18  H   UNL     1       4.143   2.650  18.625  0.00  0.00    +0.000 HD
BRANCH  17  19
ATOM     19  C   UNL     1       5.138   1.973  20.395  0.00  0.00    +0.000 C 
BRANCH  19  20
ATOM     20  C   UNL     1       4.931   0.500  20.015  0.00  0.00    +0.000 C 
BRANCH  20  21
ATOM     21  O   UNL     1       4.503   0.368  18.666  0.00  0.00    +0.000 OA
ATOM     22  H   UNL     1       4.053  -0.492  18.586  0.00  0.00    +0.000 HD
ENDBRANCH  20  21
ENDBRANCH  19  20
ENDBRANCH  17  19
ENDBRANCH  10  15
BRANCH   1  23
ATOM     23  N   UNL     1       2.633   7.366  19.135  0.00  0.00    +0.000 N 
ATOM     24  H   UNL     1       2.717   7.072  20.105  0.00  0.00    +0.000 HD
BRANCH  23  30
ATOM     25  C   UNL     1       1.216   9.084  20.249  0.00  0.00    +0.000 A 
ATOM     26  C   UNL     1       0.610  10.350  20.193  0.00  0.00    +0.000 A 
ATOM     27  C   UNL     1       0.550  11.055  18.994  0.00  0.00    +0.000 A 
ATOM     28  C   UNL     1       1.131  10.524  17.846  0.00  0.00    +0.000 A 
ATOM     29  C   UNL     1       1.773   9.278  17.907  0.00  0.00    +0.000 A 
ATOM     30  C   UNL     1       1.814   8.531  19.100  0.00  0.00    +0.000 A 
BRANCH  25  32
ATOM     31  C   UNL     1       0.968   9.075  22.604  0.00  0.00    +0.000 C 
ATOM     32  O   UNL     1       1.276   8.349  21.407  0.00  0.00    +0.000 OA
ENDBRANCH  25  32
BRANCH  27  33
ATOM     33  N   UNL     1      -0.085  12.335  18.979  0.00  0.00    +0.000 N 
ATOM     34  H   UNL     1      -0.649  12.531  18.151  0.00  0.00    +0.000 HD
BRANCH  33  35
ATOM     35  S   UNL     1       0.860  13.692  19.314  0.00  0.00    +0.000 S 
ATOM     36  C   UNL     1      -0.271  15.032  19.008  0.00  0.00    +0.000 C 
ATOM     37  O   UNL     1       1.236  13.706  20.707  0.00  0.00    +0.000 OA
ATOM     38  O   UNL     1       1.870  13.722  18.274  0.00  0.00    +0.000 OA
ENDBRANCH  33  35
ENDBRANCH  27  33
ENDBRANCH  23  30
ENDBRANCH   1  23
TORSDOF 9
ENDMDL
MODEL 7
REMARK VINA RESULT:      -7.3      1.420      2.076
REMARK  Name = 
REMARK  11 active torsions:
REMARK  status: ('A' for Active; 'I' for Inactive)
REMARK    1  A    between atoms: C_1  and  O_2
REMARK    2  A    between atoms: O_2  and  C_3
REMARK    3  A    between atoms: C_5  and  N_6
REMARK    4  A    between atoms: N_6  and  S_7
REMARK    5  A    between atoms: S_7  and  C_8
REMARK    6  A    between atoms: C_13  and  N_14
REMARK    7  A    between atoms: N_14  and  C_15
REMARK    8  A    between atoms: C_24  and  C_25
REMARK    9  A    between atoms: N_27  and  C_28
REMARK   10  A    between atoms: C_28  and  C_29
REMARK   11  A    between atoms: C_29  and  O_30
REMARK                            x       y       z     vdW  Elec       q    Type
REMARK                         _______ _______ _______ _____ _____    ______ ____
ROOT
ATOM      1  C   UNL     1       3.304   6.076  19.606  0.00  0.00    +0.000 A 
ATOM      2  C   UNL     1       4.552   6.210  18.868  0.00  0.00    +0.000 A 
ATOM      3  C   UNL     1       4.876   7.119  17.828  0.00  0.00    +0.000 A 
ATOM      4  C   UNL     1       6.115   7.064  17.170  0.00  0.00    +0.000 A 
ATOM      5  C   UNL     1       7.098   6.179  17.597  0.00  0.00    +0.000 A 
ATOM      6  C   UNL     1       6.792   5.262  18.587  0.00  0.00    +0.000 A 
ATOM      7  C   UNL     1       5.507   5.208  19.103  0.00  0.00    +0.000 A 
ATOM      8  N   UNL     1       5.139   4.052  19.625  0.00  0.00    +0.000 NA
ATOM      9  C   UNL     1       3.817   3.855  19.725  0.00  0.00    +0.000 A 
ATOM     10  C   UNL     1       3.009   3.119  18.847  0.00  0.00    +0.000 A 
ATOM     11  C   UNL     1       1.710   2.790  19.259  0.00  0.00    +0.000 A 
ATOM     12  C   UNL     1       1.232   3.332  20.449  0.00  0.00    +0.000 A 
ATOM     13  C   UNL     1       1.924   4.415  20.969  0.00  0.00    +0.000 A 
ATOM     14  C   UNL     1       3.076   4.843  20.289  0.00  0.00    +0.000 A 
ENDROOT
BRANCH  10  15
ATOM     15  C   UNL     1       3.360   3.262  17.373  0.00  0.00    +0.000 C 
ATOM     16  O   UNL     1       2.512   3.424  16.503  0.00  0.00    +0.000 OA
ATOM     17  N   UNL     1       4.691   3.040  17.025  0.00  0.00    +0.000 N 
ATOM     18  H   UNL     1       5.417   3.222  17.703  0.00  0.00    +0.000 HD
BRANCH  17  19
ATOM     19  C   UNL     1       5.069   2.837  15.627  0.00  0.00    +0.000 C 
BRANCH  19  20
ATOM     20  C   UNL     1       6.035   3.917  15.118  0.00  0.00    +0.000 C 
BRANCH  20  21
ATOM     21  O   UNL     1       6.515   3.610  13.816  0.00  0.00    +0.000 OA
ATOM     22  H   UNL     1       5.812   3.842  13.184  0.00  0.00    +0.000 HD
ENDBRANCH  20  21
ENDBRANCH  19  20
ENDBRANCH  17  19
ENDBRANCH  10  15
BRANCH   1  23
ATOM     23  N   UNL     1       2.183   6.910  19.222  0.00  0.00    +0.000 N 
ATOM     24  H   UNL     1       2.252   7.144  18.235  0.00  0.00    +0.000 HD
BRANCH  23  30
ATOM     25  C   UNL     1       1.280   9.231  19.249  0.00  0.00    +0.000 A 
ATOM     26  C   UNL     1       0.493  10.198  19.896  0.00  0.00    +0.000 A 
ATOM     27  C   UNL     1       0.044   9.991  21.197  0.00  0.00    +0.000 A 
ATOM     28  C   UNL     1       0.337   8.800  21.852  0.00  0.00    +0.000 A 
ATOM     29  C   UNL     1       1.089   7.814  21.195  0.00  0.00    +0.000 A 
ATOM     30  C   UNL     1       1.585   8.016  19.893  0.00  0.00    +0.000 A 
BRANCH  25  32
ATOM     31  C   UNL     1       2.311  10.703  17.707  0.00  0.00    +0.000 C 
ATOM     32  O   UNL     1       1.761   9.408  17.975  0.00  0.00    +0.000 OA
ENDBRANCH  25  32
BRANCH  27  33
ATOM     33  N   UNL     1      -0.746  11.005  21.822  0.00  0.00    +0.000 N 
ATOM     34  H   UNL     1      -1.754  10.914  21.690  0.00  0.00    +0.000 HD
BRANCH  33  35
ATOM     35  S   UNL     1      -0.318  12.617  21.560  0.00  0.00    +0.000 S 
ATOM     36  C   UNL     1      -1.012  13.433  22.982  0.00  0.00    +0.000 C 
ATOM     37  O   UNL     1       1.117  12.763  21.591  0.00  0.00    +0.000 OA
ATOM     38  O   UNL     1      -1.080  13.031  20.398  0.00  0.00    +0.000 OA
ENDBRANCH  33  35
ENDBRANCH  27  33
ENDBRANCH  23  30
ENDBRANCH   1  23
TORSDOF 9
ENDMDL
MODEL 8
REMARK VINA RESULT:      -7.3      2.014      4.000
REMARK  Name = 
REMARK  11 active torsions:
REMARK  status: ('A' for Active; 'I' for Inactive)
REMARK    1  A    between atoms: C_1  and  O_2
REMARK    2  A    between atoms: O_2  and  C_3
REMARK    3  A    between atoms: C_5  and  N_6
REMARK    4  A    between atoms: N_6  and  S_7
REMARK    5  A    between atoms: S_7  and  C_8
REMARK    6  A    between atoms: C_13  and  N_14
REMARK    7  A    between atoms: N_14  and  C_15
REMARK    8  A    between atoms: C_24  and  C_25
REMARK    9  A    between atoms: N_27  and  C_28
REMARK   10  A    between atoms: C_28  and  C_29
REMARK   11  A    between atoms: C_29  and  O_30
REMARK                            x       y       z     vdW  Elec       q    Type
REMARK                         _______ _______ _______ _____ _____    ______ ____
ROOT
ATOM      1  C   UNL     1       2.664   6.169  18.215  0.00  0.00    +0.000 A 
ATOM      2  C   UNL     1       1.964   4.985  18.693  0.00  0.00    +0.000 A 
ATOM      3  C   UNL     1       1.230   4.812  19.895  0.00  0.00    +0.000 A 
ATOM      4  C   UNL     1       0.674   3.569  20.237  0.00  0.00    +0.000 A 
ATOM      5  C   UNL     1       0.741   2.500  19.350  0.00  0.00    +0.000 A 
ATOM      6  C   UNL     1       1.480   2.639  18.189  0.00  0.00    +0.000 A 
ATOM      7  C   UNL     1       2.175   3.813  17.949  0.00  0.00    +0.000 A 
ATOM      8  N   UNL     1       3.222   3.716  17.149  0.00  0.00    +0.000 NA
ATOM      9  C   UNL     1       4.123   4.703  17.250  0.00  0.00    +0.000 A 
ATOM     10  C   UNL     1       5.327   4.668  17.967  0.00  0.00    +0.000 A 
ATOM     11  C   UNL     1       6.268   5.682  17.733  0.00  0.00    +0.000 A 
ATOM     12  C   UNL     1       5.906   6.749  16.917  0.00  0.00    +0.000 A 
ATOM     13  C   UNL     1       4.552   6.921  16.669  0.00  0.00    +0.000 A 
ATOM     14  C   UNL     1       3.664   5.980  17.214  0.00  0.00    +0.000 A 
ENDROOT
BRANCH  10  15
ATOM     15  C   UNL     1       5.264   3.942  19.302  0.00  0.00    +0.000 C 
ATOM     16  O   UNL     1       5.668   4.437  20.347  0.00  0.00    +0.000 OA
ATOM     17  N   UNL     1       4.868   2.605  19.265  0.00  0.00    +0.000 N 
ATOM     18  H   UNL     1       4.255   2.290  18.527  0.00  0.00    +0.000 HD
BRANCH  17  19
ATOM     19  C   UNL     1       5.078   1.736  20.423  0.00  0.00    +0.000 C 
BRANCH  19  20
ATOM     20  C   UNL     1       3.788   1.500  21.221  0.00  0.00    +0.000 C 
BRANCH  20  21
ATOM     21  O   UNL     1       3.327   2.700  21.829  0.00  0.00    +0.000 OA
ATOM     22  H   UNL     1       2.576   3.025  21.300  0.00  0.00    +0.000 HD
ENDBRANCH  20  21
ENDBRANCH  19  20
ENDBRANCH  17  19
ENDBRANCH  10  15
BRANCH   1  23
ATOM     23  N   UNL     1       2.709   7.337  19.072  0.00  0.00    +0.000 N 
ATOM     24  H   UNL     1       2.753   7.045  20.046  0.00  0.00    +0.000 HD
BRANCH  23  30
ATOM     25  C   UNL     1       1.186   9.028  20.082  0.00  0.00    +0.000 A 
ATOM     26  C   UNL     1       0.663  10.331  20.053  0.00  0.00    +0.000 A 
ATOM     27  C   UNL     1       0.869  11.154  18.949  0.00  0.00    +0.000 A 
ATOM     28  C   UNL     1       1.635  10.701  17.880  0.00  0.00    +0.000 A 
ATOM     29  C   UNL     1       2.194   9.414  17.922  0.00  0.00    +0.000 A 
ATOM     30  C   UNL     1       1.968   8.552  19.012  0.00  0.00    +0.000 A 
BRANCH  25  32
ATOM     31  C   UNL     1      -0.262   8.347  21.827  0.00  0.00    +0.000 C 
ATOM     32  O   UNL     1       0.985   8.180  21.143  0.00  0.00    +0.000 OA
ENDBRANCH  25  32
BRANCH  27  33
ATOM     33  N   UNL     1       0.310  12.469  18.956  0.00  0.00    +0.000 N 
ATOM     34  H   UNL     1      -0.039  12.798  18.056  0.00  0.00    +0.000 HD
BRANCH  33  35
ATOM     35  S   UNL     1       1.210  13.709  19.664  0.00  0.00    +0.000 S 
ATOM     36  C   UNL     1       0.545  13.771  21.314  0.00  0.00    +0.000 C 
ATOM     37  O   UNL     1       2.603  13.335  19.736  0.00  0.00    +0.000 OA
ATOM     38  O   UNL     1       0.802  14.918  18.977  0.00  0.00    +0.000 OA
ENDBRANCH  33  35
ENDBRANCH  27  33
ENDBRANCH  23  30
ENDBRANCH   1  23
TORSDOF 9
ENDMDL
MODEL 9
REMARK VINA RESULT:      -7.2      3.329      9.265
REMARK  Name = 
REMARK  11 active torsions:
REMARK  status: ('A' for Active; 'I' for Inactive)
REMARK    1  A    between atoms: C_1  and  O_2
REMARK    2  A    between atoms: O_2  and  C_3
REMARK    3  A    between atoms: C_5  and  N_6
REMARK    4  A    between atoms: N_6  and  S_7
REMARK    5  A    between atoms: S_7  and  C_8
REMARK    6  A    between atoms: C_13  and  N_14
REMARK    7  A    between atoms: N_14  and  C_15
REMARK    8  A    between atoms: C_24  and  C_25
REMARK    9  A    between atoms: N_27  and  C_28
REMARK   10  A    between atoms: C_28  and  C_29
REMARK   11  A    between atoms: C_29  and  O_30
REMARK                            x       y       z     vdW  Elec       q    Type
REMARK                         _______ _______ _______ _____ _____    ______ ____
ROOT
ATOM      1  C   UNL     1       0.266  10.977  18.817  0.00  0.00    +0.000 A 
ATOM      2  C   UNL     1       0.767  12.235  19.353  0.00  0.00    +0.000 A 
ATOM      3  C   UNL     1       1.516  12.460  20.537  0.00  0.00    +0.000 A 
ATOM      4  C   UNL     1       1.858  13.758  20.948  0.00  0.00    +0.000 A 
ATOM      5  C   UNL     1       1.560  14.852  20.142  0.00  0.00    +0.000 A 
ATOM      6  C   UNL     1       0.802  14.657  19.002  0.00  0.00    +0.000 A 
ATOM      7  C   UNL     1       0.316  13.395  18.703  0.00  0.00    +0.000 A 
ATOM      8  N   UNL     1      -0.769  13.352  17.950  0.00  0.00    +0.000 NA
ATOM      9  C   UNL     1      -1.474  12.215  18.013  0.00  0.00    +0.000 A 
ATOM     10  C   UNL     1      -2.630  11.985  18.773  0.00  0.00    +0.000 A 
ATOM     11  C   UNL     1      -3.387  10.836  18.500  0.00  0.00    +0.000 A 
ATOM     12  C   UNL     1      -2.880   9.906  17.597  0.00  0.00    +0.000 A 
ATOM     13  C   UNL     1      -1.531   9.997  17.289  0.00  0.00    +0.000 A 
ATOM     14  C   UNL     1      -0.798  11.047  17.868  0.00  0.00    +0.000 A 
ENDROOT
BRANCH  10  15
ATOM     15  C   UNL     1      -2.632  12.624  20.154  0.00  0.00    +0.000 C 
ATOM     16  O   UNL     1      -2.158  12.074  21.140  0.00  0.00    +0.000 OA
ATOM     17  N   UNL     1      -3.350  13.812  20.289  0.00  0.00    +0.000 N 
ATOM     18  H   UNL     1      -3.460  14.417  19.488  0.00  0.00    +0.000 HD
BRANCH  17  19
ATOM     19  C   UNL     1      -3.682  14.332  21.615  0.00  0.00    +0.000 C 
BRANCH  19  20
ATOM     20  C   UNL     1      -4.979  13.730  22.173  0.00  0.00    +0.000 C 
BRANCH  20  21
ATOM     21  O   UNL     1      -4.738  12.483  22.812  0.00  0.00    +0.000 OA
ATOM     22  H   UNL     1      -3.804  12.254  22.662  0.00  0.00    +0.000 HD
ENDBRANCH  20  21
ENDBRANCH  19  20
ENDBRANCH  17  19
ENDBRANCH  10  15
BRANCH   1  23
ATOM     23  N   UNL     1       0.470   9.767  19.588  0.00  0.00    +0.000 N 
ATOM     24  H   UNL     1       0.432   9.985  20.582  0.00  0.00    +0.000 HD
BRANCH  23  30
ATOM     25  C   UNL     1       1.613   7.696  20.368  0.00  0.00    +0.000 A 
ATOM     26  C   UNL     1       2.373   6.560  20.046  0.00  0.00    +0.000 A 
ATOM     27  C   UNL     1       2.970   6.437  18.794  0.00  0.00    +0.000 A 
ATOM     28  C   UNL     1       2.780   7.426  17.834  0.00  0.00    +0.000 A 
ATOM     29  C   UNL     1       1.987   8.544  18.137  0.00  0.00    +0.000 A 
ATOM     30  C   UNL     1       1.404   8.707  19.409  0.00  0.00    +0.000 A 
BRANCH  25  32
ATOM     31  C   UNL     1       1.500   8.990  22.348  0.00  0.00    +0.000 C 
ATOM     32  O   UNL     1       1.028   7.864  21.598  0.00  0.00    +0.000 OA
ENDBRANCH  25  32
BRANCH  27  33
ATOM     33  N   UNL     1       3.744   5.270  18.512  0.00  0.00    +0.000 N 
ATOM     34  H   UNL     1       4.560   5.422  17.919  0.00  0.00    +0.000 HD
BRANCH  33  35
ATOM     35  S   UNL     1       2.933   3.895  17.961  0.00  0.00    +0.000 S 
ATOM     36  C   UNL     1       2.791   2.915  19.440  0.00  0.00    +0.000 C 
ATOM     37  O   UNL     1       1.610   4.247  17.505  0.00  0.00    +0.000 OA
ATOM     38  O   UNL     1       3.869   3.228  17.078  0.00  0.00    +0.000 OA
ENDBRANCH  33  35
ENDBRANCH  27  33
ENDBRANCH  23  30
ENDBRANCH   1  23
TORSDOF 9
ENDMDL
