MODEL 1
REMARK VINA RESULT:      -5.5      0.000      0.000
REMARK  Name = 
REMARK  28 active torsions:
REMARK  status: ('A' for Active; 'I' for Inactive)
REMARK    1  A    between atoms: C_1  and  C_2
REMARK    2  A    between atoms: C_2  and  C_3
REMARK    3  A    between atoms: C_3  and  C_4
REMARK    4  A    between atoms: C_4  and  C_5
REMARK    5  A    between atoms: C_5  and  C_6
REMARK    6  A    between atoms: C_6  and  C_7
REMARK    7  A    between atoms: C_7  and  C_8
REMARK    8  A    between atoms: C_8  and  C_9
REMARK    9  A    between atoms: C_9  and  C_10
REMARK   10  A    between atoms: C_10  and  C_11
REMARK   11  A    between atoms: C_11  and  C_12
REMARK   12  A    between atoms: C_12  and  C_13
REMARK   13  A    between atoms: C_13  and  C_14
REMARK   14  A    between atoms: C_14  and  C_15
REMARK   15  A    between atoms: C_15  and  C_16
REMARK   16  A    between atoms: C_16  and  C_17
REMARK   17  A    between atoms: C_17  and  C_18
REMARK   18  A    between atoms: N_20  and  C_21
REMARK   19  A    between atoms: C_21  and  C_22
REMARK   20  A    between atoms: C_22  and  O_23
REMARK   21  A    between atoms: O_23  and  P_24
REMARK   22  A    between atoms: P_24  and  O_27
REMARK   23  A    between atoms: O_27  and  C_28
REMARK   24  A    between atoms: C_28  and  C_29
REMARK   25  A    between atoms: C_29  and  N_30
REMARK   26  A    between atoms: N_30  and  C_31
REMARK   27  A    between atoms: N_30  and  C_32
REMARK   28  A    between atoms: N_30  and  C_33
REMARK                            x       y       z     vdW  Elec       q    Type
REMARK                         _______ _______ _______ _____ _____    ______ ____
ROOT
ATOM      1  C   UNL     1      -0.002   9.549  21.720  0.00  0.00    +0.000 C 
ENDROOT
BRANCH   1   2
ATOM      2  C   UNL     1       0.212  10.932  21.159  0.00  0.00    +0.000 C 
ATOM      3  O   UNL     1       0.333  11.942  21.899  0.00  0.00    +0.000 OA
ATOM      4  N   UNL     1       0.237  10.980  19.784  0.00  0.00    +0.000 N 
ATOM      5  H   UNL     1       0.040  10.131  19.259  0.00  0.00    +0.000 HD
BRANCH   4   6
ATOM      6  C   UNL     1       0.528  12.208  19.051  0.00  0.00    +0.000 C 
BRANCH   6   7
ATOM      7  C   UNL     1      -0.649  12.790  18.207  0.00  0.00    +0.000 C 
BRANCH   7   8
ATOM      8  O   UNL     1      -1.911  12.101  18.157  0.00  0.00    +0.000 OA
BRANCH   8   9
ATOM      9  P   UNL     1      -2.217  10.782  17.236  0.00  0.00    +0.000 P 
ATOM     10  O   UNL     1      -2.625  11.285  15.867  0.00  0.00    +0.000 OA
ATOM     11  O   UNL     1      -1.169   9.704  17.387  0.00  0.00    +0.000 OA
BRANCH   9  12
ATOM     12  O   UNL     1      -3.613  10.032  17.787  0.00  0.00    +0.000 OA
BRANCH  12  13
ATOM     13  C   UNL     1      -4.657  11.037  17.778  0.00  0.00    +0.000 C 
BRANCH  13  14
ATOM     14  C   UNL     1      -5.060  11.872  18.990  0.00  0.00    +0.000 C 
BRANCH  14  15
ATOM     15  N   UNL     1      -6.545  11.807  19.367  0.00  0.00    +0.000 N 
ATOM     16  C   UNL     1      -7.445  12.533  18.361  0.00  0.00    +0.000 C 
ATOM     17  C   UNL     1      -6.972  10.370  19.542  0.00  0.00    +0.000 C 
ATOM     18  C   UNL     1      -6.728  12.526  20.723  0.00  0.00    +0.000 C 
ENDBRANCH  14  15
ENDBRANCH  13  14
ENDBRANCH  12  13
ENDBRANCH   9  12
ENDBRANCH   8   9
ENDBRANCH   7   8
ENDBRANCH   6   7
ENDBRANCH   4   6
ENDBRANCH   1   2
BRANCH   1  19
ATOM     19  C   UNL     1       0.340   8.519  20.651  0.00  0.00    +0.000 C 
BRANCH  19  20
ATOM     20  C   UNL     1       1.787   8.090  20.746  0.00  0.00    +0.000 C 
BRANCH  20  21
ATOM     21  C   UNL     1       1.975   6.799  19.966  0.00  0.00    +0.000 C 
BRANCH  21  22
ATOM     22  C   UNL     1       1.965   5.599  20.892  0.00  0.00    +0.000 C 
BRANCH  22  23
ATOM     23  C   UNL     1       1.055   4.513  20.342  0.00  0.00    +0.000 C 
BRANCH  23  24
ATOM     24  C   UNL     1       1.309   3.209  21.069  0.00  0.00    +0.000 C 
BRANCH  24  25
ATOM     25  C   UNL     1       1.702   2.123  20.089  0.00  0.00    +0.000 C 
BRANCH  25  26
ATOM     26  C   UNL     1       2.804   2.619  19.170  0.00  0.00    +0.000 C 
BRANCH  26  27
ATOM     27  C   UNL     1       2.360   2.536  17.719  0.00  0.00    +0.000 C 
BRANCH  27  28
ATOM     28  C   UNL     1       3.109   3.560  16.883  0.00  0.00    +0.000 C 
BRANCH  28  29
ATOM     29  C   UNL     1       3.952   4.447  17.782  0.00  0.00    +0.000 C 
BRANCH  29  30
ATOM     30  C   UNL     1       4.563   5.578  16.973  0.00  0.00    +0.000 C 
BRANCH  30  31
ATOM     31  C   UNL     1       5.338   6.515  17.886  0.00  0.00    +0.000 C 
BRANCH  31  32
ATOM     32  C   UNL     1       6.584   7.027  17.181  0.00  0.00    +0.000 C 
BRANCH  32  34
ATOM     33  C   UNL     1       7.763   5.799  19.009  0.00  0.00    +0.000 C 
ATOM     34  C   UNL     1       7.773   7.037  18.132  0.00  0.00    +0.000 C 
ENDBRANCH  32  34
ENDBRANCH  31  32
ENDBRANCH  30  31
ENDBRANCH  29  30
ENDBRANCH  28  29
ENDBRANCH  27  28
ENDBRANCH  26  27
ENDBRANCH  25  26
ENDBRANCH  24  25
ENDBRANCH  23  24
ENDBRANCH  22  23
ENDBRANCH  21  22
ENDBRANCH  20  21
ENDBRANCH  19  20
ENDBRANCH   1  19
TORSDOF 24
ENDMDL
MODEL 2
REMARK VINA RESULT:      -5.5      2.233      2.918
REMARK  Name = 
REMARK  28 active torsions:
REMARK  status: ('A' for Active; 'I' for Inactive)
REMARK    1  A    between atoms: C_1  and  C_2
REMARK    2  A    between atoms: C_2  and  C_3
REMARK    3  A    between atoms: C_3  and  C_4
REMARK    4  A    between atoms: C_4  and  C_5
REMARK    5  A    between atoms: C_5  and  C_6
REMARK    6  A    between atoms: C_6  and  C_7
REMARK    7  A    between atoms: C_7  and  C_8
REMARK    8  A    between atoms: C_8  and  C_9
REMARK    9  A    between atoms: C_9  and  C_10
REMARK   10  A    between atoms: C_10  and  C_11
REMARK   11  A    between atoms: C_11  and  C_12
REMARK   12  A    between atoms: C_12  and  C_13
REMARK   13  A    between atoms: C_13  and  C_14
REMARK   14  A    between atoms: C_14  and  C_15
REMARK   15  A    between atoms: C_15  and  C_16
REMARK   16  A    between atoms: C_16  and  C_17
REMARK   17  A    between atoms: C_17  and  C_18
REMARK   18  A    between atoms: N_20  and  C_21
REMARK   19  A    between atoms: C_21  and  C_22
REMARK   20  A    between atoms: C_22  and  O_23
REMARK   21  A    between atoms: O_23  and  P_24
REMARK   22  A    between atoms: P_24  and  O_27
REMARK   23  A    between atoms: O_27  and  C_28
REMARK   24  A    between atoms: C_28  and  C_29
REMARK   25  A    between atoms: C_29  and  N_30
REMARK   26  A    between atoms: N_30  and  C_31
REMARK   27  A    between atoms: N_30  and  C_32
REMARK   28  A    between atoms: N_30  and  C_33
REMARK                            x       y       z     vdW  Elec       q    Type
REMARK                         _______ _______ _______ _____ _____    ______ ____
ROOT
ATOM      1  C   UNL     1       1.149   9.959  18.902  0.00  0.00    +0.000 C 
ENDROOT
BRANCH   1   2
ATOM      2  C   UNL     1       1.729  11.324  18.632  0.00  0.00    +0.000 C 
ATOM      3  O   UNL     1       2.631  11.510  17.776  0.00  0.00    +0.000 OA
ATOM      4  N   UNL     1       1.200  12.322  19.419  0.00  0.00    +0.000 N 
ATOM      5  H   UNL     1       0.539  12.072  20.151  0.00  0.00    +0.000 HD
BRANCH   4   6
ATOM      6  C   UNL     1       1.558  13.725  19.245  0.00  0.00    +0.000 C 
BRANCH   6   7
ATOM      7  C   UNL     1       0.414  14.756  19.498  0.00  0.00    +0.000 C 
BRANCH   7   8
ATOM      8  O   UNL     1      -0.939  14.301  19.680  0.00  0.00    +0.000 OA
BRANCH   8   9
ATOM      9  P   UNL     1      -1.484  13.502  21.002  0.00  0.00    +0.000 P 
ATOM     10  O   UNL     1      -0.314  13.376  21.955  0.00  0.00    +0.000 OA
ATOM     11  O   UNL     1      -2.825  14.006  21.481  0.00  0.00    +0.000 OA
BRANCH   9  12
ATOM     12  O   UNL     1      -1.803  11.906  20.594  0.00  0.00    +0.000 OA
BRANCH  12  13
ATOM     13  C   UNL     1      -2.439  11.928  19.292  0.00  0.00    +0.000 C 
BRANCH  13  14
ATOM     14  C   UNL     1      -3.947  12.004  19.072  0.00  0.00    +0.000 C 
BRANCH  14  15
ATOM     15  N   UNL     1      -4.501  11.066  17.992  0.00  0.00    +0.000 N 
ATOM     16  C   UNL     1      -4.786  11.785  16.669  0.00  0.00    +0.000 C 
ATOM     17  C   UNL     1      -3.562   9.901  17.789  0.00  0.00    +0.000 C 
ATOM     18  C   UNL     1      -5.853  10.505  18.491  0.00  0.00    +0.000 C 
ENDBRANCH  14  15
ENDBRANCH  13  14
ENDBRANCH  12  13
ENDBRANCH   9  12
ENDBRANCH   8   9
ENDBRANCH   7   8
ENDBRANCH   6   7
ENDBRANCH   4   6
ENDBRANCH   1   2
BRANCH   1  19
ATOM     19  C   UNL     1       1.553   9.015  17.776  0.00  0.00    +0.000 C 
BRANCH  19  20
ATOM     20  C   UNL     1       2.735   8.161  18.175  0.00  0.00    +0.000 C 
BRANCH  20  21
ATOM     21  C   UNL     1       2.284   6.715  18.303  0.00  0.00    +0.000 C 
BRANCH  21  22
ATOM     22  C   UNL     1       2.699   6.133  19.639  0.00  0.00    +0.000 C 
BRANCH  22  23
ATOM     23  C   UNL     1       1.474   5.756  20.457  0.00  0.00    +0.000 C 
BRANCH  23  24
ATOM     24  C   UNL     1       1.392   4.251  20.600  0.00  0.00    +0.000 C 
BRANCH  24  25
ATOM     25  C   UNL     1       2.613   3.592  19.993  0.00  0.00    +0.000 C 
BRANCH  25  26
ATOM     26  C   UNL     1       2.195   2.572  18.949  0.00  0.00    +0.000 C 
BRANCH  26  27
ATOM     27  C   UNL     1       2.687   2.992  17.573  0.00  0.00    +0.000 C 
BRANCH  27  28
ATOM     28  C   UNL     1       4.150   3.396  17.641  0.00  0.00    +0.000 C 
BRANCH  28  29
ATOM     29  C   UNL     1       4.585   3.996  16.316  0.00  0.00    +0.000 C 
BRANCH  29  30
ATOM     30  C   UNL     1       5.216   5.359  16.542  0.00  0.00    +0.000 C 
BRANCH  30  31
ATOM     31  C   UNL     1       5.862   5.414  17.917  0.00  0.00    +0.000 C 
BRANCH  31  32
ATOM     32  C   UNL     1       7.375   5.506  17.785  0.00  0.00    +0.000 C 
BRANCH  32  34
ATOM     33  C   UNL     1       7.684   7.974  17.557  0.00  0.00    +0.000 C 
ATOM     34  C   UNL     1       7.896   6.770  18.455  0.00  0.00    +0.000 C 
ENDBRANCH  32  34
ENDBRANCH  31  32
ENDBRANCH  30  31
ENDBRANCH  29  30
ENDBRANCH  28  29
ENDBRANCH  27  28
ENDBRANCH  26  27
ENDBRANCH  25  26
ENDBRANCH  24  25
ENDBRANCH  23  24
ENDBRANCH  22  23
ENDBRANCH  21  22
ENDBRANCH  20  21
ENDBRANCH  19  20
ENDBRANCH   1  19
TORSDOF 24
ENDMDL
MODEL 3
REMARK VINA RESULT:      -5.4      3.304      5.608
REMARK  Name = 
REMARK  28 active torsions:
REMARK  status: ('A' for Active; 'I' for Inactive)
REMARK    1  A    between atoms: C_1  and  C_2
REMARK    2  A    between atoms: C_2  and  C_3
REMARK    3  A    between atoms: C_3  and  C_4
REMARK    4  A    between atoms: C_4  and  C_5
REMARK    5  A    between atoms: C_5  and  C_6
REMARK    6  A    between atoms: C_6  and  C_7
REMARK    7  A    between atoms: C_7  and  C_8
REMARK    8  A    between atoms: C_8  and  C_9
REMARK    9  A    between atoms: C_9  and  C_10
REMARK   10  A    between atoms: C_10  and  C_11
REMARK   11  A    between atoms: C_11  and  C_12
REMARK   12  A    between atoms: C_12  and  C_13
REMARK   13  A    between atoms: C_13  and  C_14
REMARK   14  A    between atoms: C_14  and  C_15
REMARK   15  A    between atoms: C_15  and  C_16
REMARK   16  A    between atoms: C_16  and  C_17
REMARK   17  A    between atoms: C_17  and  C_18
REMARK   18  A    between atoms: N_20  and  C_21
REMARK   19  A    between atoms: C_21  and  C_22
REMARK   20  A    between atoms: C_22  and  O_23
REMARK   21  A    between atoms: O_23  and  P_24
REMARK   22  A    between atoms: P_24  and  O_27
REMARK   23  A    between atoms: O_27  and  C_28
REMARK   24  A    between atoms: C_28  and  C_29
REMARK   25  A    between atoms: C_29  and  N_30
REMARK   26  A    between atoms: N_30  and  C_31
REMARK   27  A    between atoms: N_30  and  C_32
REMARK   28  A    between atoms: N_30  and  C_33
REMARK                            x       y       z     vdW  Elec       q    Type
REMARK                         _______ _______ _______ _____ _____    ______ ____
ROOT
ATOM      1  C   UNL     1       1.997   9.582  18.135  0.00  0.00    +0.000 C 
ENDROOT
BRANCH   1   2
ATOM      2  C   UNL     1       0.779  10.215  18.759  0.00  0.00    +0.000 C 
ATOM      3  O   UNL     1       0.146   9.665  19.697  0.00  0.00    +0.000 OA
ATOM      4  N   UNL     1       0.423  11.419  18.196  0.00  0.00    +0.000 N 
ATOM      5  H   UNL     1       0.933  11.750  17.380  0.00  0.00    +0.000 HD
BRANCH   4   6
ATOM      6  C   UNL     1      -0.667  12.234  18.721  0.00  0.00    +0.000 C 
BRANCH   6   7
ATOM      7  C   UNL     1      -0.360  13.756  18.883  0.00  0.00    +0.000 C 
BRANCH   7   8
ATOM      8  O   UNL     1      -0.015  14.288  20.174  0.00  0.00    +0.000 OA
BRANCH   8   9
ATOM      9  P   UNL     1       0.957  13.542  21.261  0.00  0.00    +0.000 P 
ATOM     10  O   UNL     1       1.516  14.621  22.166  0.00  0.00    +0.000 OA
ATOM     11  O   UNL     1       0.341  12.288  21.836  0.00  0.00    +0.000 OA
BRANCH   9  12
ATOM     12  O   UNL     1       2.326  12.968  20.479  0.00  0.00    +0.000 OA
BRANCH  12  13
ATOM     13  C   UNL     1       2.790  14.034  19.615  0.00  0.00    +0.000 C 
BRANCH  13  14
ATOM     14  C   UNL     1       4.058  14.849  19.857  0.00  0.00    +0.000 C 
BRANCH  14  15
ATOM     15  N   UNL     1       4.044  16.269  19.280  0.00  0.00    +0.000 N 
ATOM     16  C   UNL     1       5.414  16.953  19.350  0.00  0.00    +0.000 C 
ATOM     17  C   UNL     1       3.517  16.248  17.866  0.00  0.00    +0.000 C 
ATOM     18  C   UNL     1       3.079  17.125  20.134  0.00  0.00    +0.000 C 
ENDBRANCH  14  15
ENDBRANCH  13  14
ENDBRANCH  12  13
ENDBRANCH   9  12
ENDBRANCH   8   9
ENDBRANCH   7   8
ENDBRANCH   6   7
ENDBRANCH   4   6
ENDBRANCH   1   2
BRANCH   1  19
ATOM     19  C   UNL     1       1.770   8.080  18.012  0.00  0.00    +0.000 C 
BRANCH  19  20
ATOM     20  C   UNL     1       3.083   7.331  17.961  0.00  0.00    +0.000 C 
BRANCH  20  21
ATOM     21  C   UNL     1       3.263   6.557  19.256  0.00  0.00    +0.000 C 
BRANCH  21  22
ATOM     22  C   UNL     1       2.092   6.782  20.191  0.00  0.00    +0.000 C 
BRANCH  22  23
ATOM     23  C   UNL     1       1.350   5.477  20.435  0.00  0.00    +0.000 C 
BRANCH  23  24
ATOM     24  C   UNL     1       2.251   4.498  21.157  0.00  0.00    +0.000 C 
BRANCH  24  25
ATOM     25  C   UNL     1       1.598   3.132  21.232  0.00  0.00    +0.000 C 
BRANCH  25  26
ATOM     26  C   UNL     1       1.364   2.585  19.836  0.00  0.00    +0.000 C 
BRANCH  26  27
ATOM     27  C   UNL     1       2.682   2.459  19.089  0.00  0.00    +0.000 C 
BRANCH  27  28
ATOM     28  C   UNL     1       2.632   3.260  17.799  0.00  0.00    +0.000 C 
BRANCH  28  29
ATOM     29  C   UNL     1       3.875   2.989  16.971  0.00  0.00    +0.000 C 
BRANCH  29  30
ATOM     30  C   UNL     1       4.812   4.183  17.032  0.00  0.00    +0.000 C 
BRANCH  30  31
ATOM     31  C   UNL     1       5.706   4.209  15.802  0.00  0.00    +0.000 C 
BRANCH  31  32
ATOM     32  C   UNL     1       6.970   5.006  16.086  0.00  0.00    +0.000 C 
BRANCH  32  34
ATOM     33  C   UNL     1       7.470   6.637  17.911  0.00  0.00    +0.000 C 
ATOM     34  C   UNL     1       7.163   5.187  17.586  0.00  0.00    +0.000 C 
ENDBRANCH  32  34
ENDBRANCH  31  32
ENDBRANCH  30  31
ENDBRANCH  29  30
ENDBRANCH  28  29
ENDBRANCH  27  28
ENDBRANCH  26  27
ENDBRANCH  25  26
ENDBRANCH  24  25
ENDBRANCH  23  24
ENDBRANCH  22  23
ENDBRANCH  21  22
ENDBRANCH  20  21
ENDBRANCH  19  20
ENDBRANCH   1  19
TORSDOF 24
ENDMDL
MODEL 4
REMARK VINA RESULT:      -5.3      2.763      4.809
REMARK  Name = 
REMARK  28 active torsions:
REMARK  status: ('A' for Active; 'I' for Inactive)
REMARK    1  A    between atoms: C_1  and  C_2
REMARK    2  A    between atoms: C_2  and  C_3
REMARK    3  A    between atoms: C_3  and  C_4
REMARK    4  A    between atoms: C_4  and  C_5
REMARK    5  A    between atoms: C_5  and  C_6
REMARK    6  A    between atoms: C_6  and  C_7
REMARK    7  A    between atoms: C_7  and  C_8
REMARK    8  A    between atoms: C_8  and  C_9
REMARK    9  A    between atoms: C_9  and  C_10
REMARK   10  A    between atoms: C_10  and  C_11
REMARK   11  A    between atoms: C_11  and  C_12
REMARK   12  A    between atoms: C_12  and  C_13
REMARK   13  A    between atoms: C_13  and  C_14
REMARK   14  A    between atoms: C_14  and  C_15
REMARK   15  A    between atoms: C_15  and  C_16
REMARK   16  A    between atoms: C_16  and  C_17
REMARK   17  A    between atoms: C_17  and  C_18
REMARK   18  A    between atoms: N_20  and  C_21
REMARK   19  A    between atoms: C_21  and  C_22
REMARK   20  A    between atoms: C_22  and  O_23
REMARK   21  A    between atoms: O_23  and  P_24
REMARK   22  A    between atoms: P_24  and  O_27
REMARK   23  A    between atoms: O_27  and  C_28
REMARK   24  A    between atoms: C_28  and  C_29
REMARK   25  A    between atoms: C_29  and  N_30
REMARK   26  A    between atoms: N_30  and  C_31
REMARK   27  A    between atoms: N_30  and  C_32
REMARK   28  A    between atoms: N_30  and  C_33
REMARK                            x       y       z     vdW  Elec       q    Type
REMARK                         _______ _______ _______ _____ _____    ______ ____
ROOT
ATOM      1  C   UNL     1       0.947   7.835  21.271  0.00  0.00    +0.000 C 
ENDROOT
BRANCH   1   2
ATOM      2  C   UNL     1       0.827   8.938  22.291  0.00  0.00    +0.000 C 
ATOM      3  O   UNL     1       1.828   9.401  22.896  0.00  0.00    +0.000 OA
ATOM      4  N   UNL     1      -0.464   9.364  22.506  0.00  0.00    +0.000 N 
ATOM      5  H   UNL     1      -1.226   8.875  22.042  0.00  0.00    +0.000 HD
BRANCH   4   6
ATOM      6  C   UNL     1      -0.779  10.488  23.382  0.00  0.00    +0.000 C 
BRANCH   6   7
ATOM      7  C   UNL     1      -1.595  11.649  22.731  0.00  0.00    +0.000 C 
BRANCH   7   8
ATOM      8  O   UNL     1      -1.150  12.239  21.497  0.00  0.00    +0.000 OA
BRANCH   8   9
ATOM      9  P   UNL     1       0.334  12.891  21.256  0.00  0.00    +0.000 P 
ATOM     10  O   UNL     1       0.492  14.011  22.264  0.00  0.00    +0.000 OA
ATOM     11  O   UNL     1       1.412  11.848  21.078  0.00  0.00    +0.000 OA
BRANCH   9  12
ATOM     12  O   UNL     1       0.350  13.706  19.790  0.00  0.00    +0.000 OA
BRANCH  12  13
ATOM     13  C   UNL     1       0.189  12.706  18.755  0.00  0.00    +0.000 C 
BRANCH  13  14
ATOM     14  C   UNL     1      -0.977  12.663  17.772  0.00  0.00    +0.000 C 
BRANCH  14  15
ATOM     15  N   UNL     1      -1.950  11.492  17.959  0.00  0.00    +0.000 N 
ATOM     16  C   UNL     1      -3.119  11.833  18.890  0.00  0.00    +0.000 C 
ATOM     17  C   UNL     1      -2.444  11.011  16.617  0.00  0.00    +0.000 C 
ATOM     18  C   UNL     1      -1.179  10.330  18.626  0.00  0.00    +0.000 C 
ENDBRANCH  14  15
ENDBRANCH  13  14
ENDBRANCH  12  13
ENDBRANCH   9  12
ENDBRANCH   8   9
ENDBRANCH   7   8
ENDBRANCH   6   7
ENDBRANCH   4   6
ENDBRANCH   1   2
BRANCH   1  19
ATOM     19  C   UNL     1       1.531   8.405  19.985  0.00  0.00    +0.000 C 
BRANCH  19  20
ATOM     20  C   UNL     1       2.366   7.375  19.258  0.00  0.00    +0.000 C 
BRANCH  20  21
ATOM     21  C   UNL     1       2.329   7.667  17.767  0.00  0.00    +0.000 C 
BRANCH  21  22
ATOM     22  C   UNL     1       3.726   7.886  17.222  0.00  0.00    +0.000 C 
BRANCH  22  23
ATOM     23  C   UNL     1       4.639   6.740  17.627  0.00  0.00    +0.000 C 
BRANCH  23  24
ATOM     24  C   UNL     1       5.848   6.697  16.717  0.00  0.00    +0.000 C 
BRANCH  24  25
ATOM     25  C   UNL     1       6.382   5.282  16.610  0.00  0.00    +0.000 C 
BRANCH  25  26
ATOM     26  C   UNL     1       5.661   4.374  17.590  0.00  0.00    +0.000 C 
BRANCH  26  27
ATOM     27  C   UNL     1       4.692   3.464  16.853  0.00  0.00    +0.000 C 
BRANCH  27  28
ATOM     28  C   UNL     1       3.459   3.214  17.703  0.00  0.00    +0.000 C 
BRANCH  28  29
ATOM     29  C   UNL     1       2.301   4.057  17.199  0.00  0.00    +0.000 C 
BRANCH  29  30
ATOM     30  C   UNL     1       1.051   3.765  18.011  0.00  0.00    +0.000 C 
BRANCH  30  31
ATOM     31  C   UNL     1       1.388   2.854  19.180  0.00  0.00    +0.000 C 
BRANCH  31  32
ATOM     32  C   UNL     1       0.858   3.444  20.478  0.00  0.00    +0.000 C 
BRANCH  32  34
ATOM     33  C   UNL     1       3.092   2.689  21.299  0.00  0.00    +0.000 C 
ATOM     34  C   UNL     1       2.000   3.732  21.442  0.00  0.00    +0.000 C 
ENDBRANCH  32  34
ENDBRANCH  31  32
ENDBRANCH  30  31
ENDBRANCH  29  30
ENDBRANCH  28  29
ENDBRANCH  27  28
ENDBRANCH  26  27
ENDBRANCH  25  26
ENDBRANCH  24  25
ENDBRANCH  23  24
ENDBRANCH  22  23
ENDBRANCH  21  22
ENDBRANCH  20  21
ENDBRANCH  19  20
ENDBRANCH   1  19
TORSDOF 24
ENDMDL
MODEL 5
REMARK VINA RESULT:      -5.3      5.277     10.638
REMARK  Name = 
REMARK  28 active torsions:
REMARK  status: ('A' for Active; 'I' for Inactive)
REMARK    1  A    between atoms: C_1  and  C_2
REMARK    2  A    between atoms: C_2  and  C_3
REMARK    3  A    between atoms: C_3  and  C_4
REMARK    4  A    between atoms: C_4  and  C_5
REMARK    5  A    between atoms: C_5  and  C_6
REMARK    6  A    between atoms: C_6  and  C_7
REMARK    7  A    between atoms: C_7  and  C_8
REMARK    8  A    between atoms: C_8  and  C_9
REMARK    9  A    between atoms: C_9  and  C_10
REMARK   10  A    between atoms: C_10  and  C_11
REMARK   11  A    between atoms: C_11  and  C_12
REMARK   12  A    between atoms: C_12  and  C_13
REMARK   13  A    between atoms: C_13  and  C_14
REMARK   14  A    between atoms: C_14  and  C_15
REMARK   15  A    between atoms: C_15  and  C_16
REMARK   16  A    between atoms: C_16  and  C_17
REMARK   17  A    between atoms: C_17  and  C_18
REMARK   18  A    between atoms: N_20  and  C_21
REMARK   19  A    between atoms: C_21  and  C_22
REMARK   20  A    between atoms: C_22  and  O_23
REMARK   21  A    between atoms: O_23  and  P_24
REMARK   22  A    between atoms: P_24  and  O_27
REMARK   23  A    between atoms: O_27  and  C_28
REMARK   24  A    between atoms: C_28  and  C_29
REMARK   25  A    between atoms: C_29  and  N_30
REMARK   26  A    between atoms: N_30  and  C_31
REMARK   27  A    between atoms: N_30  and  C_32
REMARK   28  A    between atoms: N_30  and  C_33
REMARK                            x       y       z     vdW  Elec       q    Type
REMARK                         _______ _______ _______ _____ _____    ______ ____
ROOT
ATOM      1  C   UNL     1       3.259   1.904  18.408  0.00  0.00    +0.000 C 
ENDROOT
BRANCH   1   2
ATOM      2  C   UNL     1       4.217   2.765  19.192  0.00  0.00    +0.000 C 
ATOM      3  O   UNL     1       4.866   2.319  20.174  0.00  0.00    +0.000 OA
ATOM      4  N   UNL     1       4.292   4.066  18.750  0.00  0.00    +0.000 N 
ATOM      5  H   UNL     1       3.665   4.369  18.007  0.00  0.00    +0.000 HD
BRANCH   4   6
ATOM      6  C   UNL     1       5.231   5.029  19.313  0.00  0.00    +0.000 C 
BRANCH   6   7
ATOM      7  C   UNL     1       6.664   5.024  18.694  0.00  0.00    +0.000 C 
BRANCH   7   8
ATOM      8  O   UNL     1       6.851   4.667  17.313  0.00  0.00    +0.000 OA
BRANCH   8   9
ATOM      9  P   UNL     1       6.663   5.693  16.051  0.00  0.00    +0.000 P 
ATOM     10  O   UNL     1       6.169   7.007  16.620  0.00  0.00    +0.000 OA
ATOM     11  O   UNL     1       7.823   5.653  15.083  0.00  0.00    +0.000 OA
BRANCH   9  12
ATOM     12  O   UNL     1       5.368   5.186  15.111  0.00  0.00    +0.000 OA
BRANCH  12  13
ATOM     13  C   UNL     1       5.859   4.114  14.269  0.00  0.00    +0.000 C 
BRANCH  13  14
ATOM     14  C   UNL     1       4.984   3.285  13.334  0.00  0.00    +0.000 C 
BRANCH  14  15
ATOM     15  N   UNL     1       5.528   3.111  11.910  0.00  0.00    +0.000 N 
ATOM     16  C   UNL     1       5.922   1.664  11.596  0.00  0.00    +0.000 C 
ATOM     17  C   UNL     1       4.527   3.633  10.908  0.00  0.00    +0.000 C 
ATOM     18  C   UNL     1       6.815   3.958  11.781  0.00  0.00    +0.000 C 
ENDBRANCH  14  15
ENDBRANCH  13  14
ENDBRANCH  12  13
ENDBRANCH   9  12
ENDBRANCH   8   9
ENDBRANCH   7   8
ENDBRANCH   6   7
ENDBRANCH   4   6
ENDBRANCH   1   2
BRANCH   1  19
ATOM     19  C   UNL     1       1.986   2.695  18.138  0.00  0.00    +0.000 C 
BRANCH  19  20
ATOM     20  C   UNL     1       0.919   2.384  19.163  0.00  0.00    +0.000 C 
BRANCH  20  21
ATOM     21  C   UNL     1       1.042   3.362  20.320  0.00  0.00    +0.000 C 
BRANCH  21  22
ATOM     22  C   UNL     1       1.137   4.789  19.817  0.00  0.00    +0.000 C 
BRANCH  22  23
ATOM     23  C   UNL     1       1.849   5.664  20.836  0.00  0.00    +0.000 C 
BRANCH  23  24
ATOM     24  C   UNL     1       1.888   7.097  20.350  0.00  0.00    +0.000 C 
BRANCH  24  25
ATOM     25  C   UNL     1       1.139   8.003  21.306  0.00  0.00    +0.000 C 
BRANCH  25  26
ATOM     26  C   UNL     1       1.022   9.399  20.723  0.00  0.00    +0.000 C 
BRANCH  26  27
ATOM     27  C   UNL     1       0.683   9.327  19.243  0.00  0.00    +0.000 C 
BRANCH  27  28
ATOM     28  C   UNL     1       0.726  10.716  18.628  0.00  0.00    +0.000 C 
BRANCH  28  29
ATOM     29  C   UNL     1      -0.659  11.337  18.653  0.00  0.00    +0.000 C 
BRANCH  29  30
ATOM     30  C   UNL     1      -1.569  10.623  17.669  0.00  0.00    +0.000 C 
BRANCH  30  31
ATOM     31  C   UNL     1      -3.025  10.918  17.993  0.00  0.00    +0.000 C 
BRANCH  31  32
ATOM     32  C   UNL     1      -3.795  11.232  16.720  0.00  0.00    +0.000 C 
BRANCH  32  34
ATOM     33  C   UNL     1      -5.849  10.982  18.118  0.00  0.00    +0.000 C 
ATOM     34  C   UNL     1      -5.163  11.812  17.050  0.00  0.00    +0.000 C 
ENDBRANCH  32  34
ENDBRANCH  31  32
ENDBRANCH  30  31
ENDBRANCH  29  30
ENDBRANCH  28  29
ENDBRANCH  27  28
ENDBRANCH  26  27
ENDBRANCH  25  26
ENDBRANCH  24  25
ENDBRANCH  23  24
ENDBRANCH  22  23
ENDBRANCH  21  22
ENDBRANCH  20  21
ENDBRANCH  19  20
ENDBRANCH   1  19
TORSDOF 24
ENDMDL
MODEL 6
REMARK VINA RESULT:      -5.3      3.431      5.510
REMARK  Name = 
REMARK  28 active torsions:
REMARK  status: ('A' for Active; 'I' for Inactive)
REMARK    1  A    between atoms: C_1  and  C_2
REMARK    2  A    between atoms: C_2  and  C_3
REMARK    3  A    between atoms: C_3  and  C_4
REMARK    4  A    between atoms: C_4  and  C_5
REMARK    5  A    between atoms: C_5  and  C_6
REMARK    6  A    between atoms: C_6  and  C_7
REMARK    7  A    between atoms: C_7  and  C_8
REMARK    8  A    between atoms: C_8  and  C_9
REMARK    9  A    between atoms: C_9  and  C_10
REMARK   10  A    between atoms: C_10  and  C_11
REMARK   11  A    between atoms: C_11  and  C_12
REMARK   12  A    between atoms: C_12  and  C_13
REMARK   13  A    between atoms: C_13  and  C_14
REMARK   14  A    between atoms: C_14  and  C_15
REMARK   15  A    between atoms: C_15  and  C_16
REMARK   16  A    between atoms: C_16  and  C_17
REMARK   17  A    between atoms: C_17  and  C_18
REMARK   18  A    between atoms: N_20  and  C_21
REMARK   19  A    between atoms: C_21  and  C_22
REMARK   20  A    between atoms: C_22  and  O_23
REMARK   21  A    between atoms: O_23  and  P_24
REMARK   22  A    between atoms: P_24  and  O_27
REMARK   23  A    between atoms: O_27  and  C_28
REMARK   24  A    between atoms: C_28  and  C_29
REMARK   25  A    between atoms: C_29  and  N_30
REMARK   26  A    between atoms: N_30  and  C_31
REMARK   27  A    between atoms: N_30  and  C_32
REMARK   28  A    between atoms: N_30  and  C_33
REMARK                            x       y       z     vdW  Elec       q    Type
REMARK                         _______ _______ _______ _____ _____    ______ ____
ROOT
ATOM      1  C   UNL     1       2.434   6.662  20.409  0.00  0.00    +0.000 C 
ENDROOT
BRANCH   1   2
ATOM      2  C   UNL     1       1.687   7.971  20.415  0.00  0.00    +0.000 C 
ATOM      3  O   UNL     1       1.408   8.587  19.354  0.00  0.00    +0.000 OA
ATOM      4  N   UNL     1       1.368   8.427  21.673  0.00  0.00    +0.000 N 
ATOM      5  H   UNL     1       1.710   7.915  22.483  0.00  0.00    +0.000 HD
BRANCH   4   6
ATOM      6  C   UNL     1       0.562   9.625  21.888  0.00  0.00    +0.000 C 
BRANCH   6   7
ATOM      7  C   UNL     1      -0.264   9.659  23.212  0.00  0.00    +0.000 C 
BRANCH   7   8
ATOM      8  O   UNL     1      -1.442  10.480  23.306  0.00  0.00    +0.000 OA
BRANCH   8   9
ATOM      9  P   UNL     1      -1.559  12.011  22.736  0.00  0.00    +0.000 P 
ATOM     10  O   UNL     1      -0.321  12.750  23.200  0.00  0.00    +0.000 OA
ATOM     11  O   UNL     1      -2.004  12.069  21.294  0.00  0.00    +0.000 OA
BRANCH   9  12
ATOM     12  O   UNL     1      -2.793  12.811  23.545  0.00  0.00    +0.000 OA
BRANCH  12  13
ATOM     13  C   UNL     1      -3.961  12.748  22.690  0.00  0.00    +0.000 C 
BRANCH  13  14
ATOM     14  C   UNL     1      -5.353  13.221  23.098  0.00  0.00    +0.000 C 
BRANCH  14  15
ATOM     15  N   UNL     1      -5.794  14.560  22.495  0.00  0.00    +0.000 N 
ATOM     16  C   UNL     1      -6.846  14.398  21.392  0.00  0.00    +0.000 C 
ATOM     17  C   UNL     1      -6.284  15.482  23.585  0.00  0.00    +0.000 C 
ATOM     18  C   UNL     1      -4.560  15.219  21.835  0.00  0.00    +0.000 C 
ENDBRANCH  14  15
ENDBRANCH  13  14
ENDBRANCH  12  13
ENDBRANCH   9  12
ENDBRANCH   8   9
ENDBRANCH   7   8
ENDBRANCH   6   7
ENDBRANCH   4   6
ENDBRANCH   1   2
BRANCH   1  19
ATOM     19  C   UNL     1       1.432   5.515  20.374  0.00  0.00    +0.000 C 
BRANCH  19  20
ATOM     20  C   UNL     1       1.870   4.433  19.414  0.00  0.00    +0.000 C 
BRANCH  20  21
ATOM     21  C   UNL     1       2.303   5.075  18.106  0.00  0.00    +0.000 C 
BRANCH  21  22
ATOM     22  C   UNL     1       3.689   4.610  17.706  0.00  0.00    +0.000 C 
BRANCH  22  23
ATOM     23  C   UNL     1       4.707   5.008  18.763  0.00  0.00    +0.000 C 
BRANCH  23  24
ATOM     24  C   UNL     1       5.673   6.026  18.195  0.00  0.00    +0.000 C 
BRANCH  24  25
ATOM     25  C   UNL     1       7.103   5.619  18.483  0.00  0.00    +0.000 C 
BRANCH  25  26
ATOM     26  C   UNL     1       7.537   4.517  17.533  0.00  0.00    +0.000 C 
BRANCH  26  27
ATOM     27  C   UNL     1       7.305   4.940  16.091  0.00  0.00    +0.000 C 
BRANCH  27  28
ATOM     28  C   UNL     1       6.384   3.952  15.397  0.00  0.00    +0.000 C 
BRANCH  28  29
ATOM     29  C   UNL     1       6.465   4.137  13.892  0.00  0.00    +0.000 C 
BRANCH  29  30
ATOM     30  C   UNL     1       5.115   3.848  13.258  0.00  0.00    +0.000 C 
BRANCH  30  31
ATOM     31  C   UNL     1       5.305   3.250  11.873  0.00  0.00    +0.000 C 
BRANCH  31  32
ATOM     32  C   UNL     1       3.960   3.093  11.179  0.00  0.00    +0.000 C 
BRANCH  32  34
ATOM     33  C   UNL     1       2.524   4.156   9.433  0.00  0.00    +0.000 C 
ATOM     34  C   UNL     1       3.948   3.847   9.857  0.00  0.00    +0.000 C 
ENDBRANCH  32  34
ENDBRANCH  31  32
ENDBRANCH  30  31
ENDBRANCH  29  30
ENDBRANCH  28  29
ENDBRANCH  27  28
ENDBRANCH  26  27
ENDBRANCH  25  26
ENDBRANCH  24  25
ENDBRANCH  23  24
ENDBRANCH  22  23
ENDBRANCH  21  22
ENDBRANCH  20  21
ENDBRANCH  19  20
ENDBRANCH   1  19
TORSDOF 24
ENDMDL
MODEL 7
REMARK VINA RESULT:      -5.2      4.300      6.429
REMARK  Name = 
REMARK  28 active torsions:
REMARK  status: ('A' for Active; 'I' for Inactive)
REMARK    1  A    between atoms: C_1  and  C_2
REMARK    2  A    between atoms: C_2  and  C_3
REMARK    3  A    between atoms: C_3  and  C_4
REMARK    4  A    between atoms: C_4  and  C_5
REMARK    5  A    between atoms: C_5  and  C_6
REMARK    6  A    between atoms: C_6  and  C_7
REMARK    7  A    between atoms: C_7  and  C_8
REMARK    8  A    between atoms: C_8  and  C_9
REMARK    9  A    between atoms: C_9  and  C_10
REMARK   10  A    between atoms: C_10  and  C_11
REMARK   11  A    between atoms: C_11  and  C_12
REMARK   12  A    between atoms: C_12  and  C_13
REMARK   13  A    between atoms: C_13  and  C_14
REMARK   14  A    between atoms: C_14  and  C_15
REMARK   15  A    between atoms: C_15  and  C_16
REMARK   16  A    between atoms: C_16  and  C_17
REMARK   17  A    between atoms: C_17  and  C_18
REMARK   18  A    between atoms: N_20  and  C_21
REMARK   19  A    between atoms: C_21  and  C_22
REMARK   20  A    between atoms: C_22  and  O_23
REMARK   21  A    between atoms: O_23  and  P_24
REMARK   22  A    between atoms: P_24  and  O_27
REMARK   23  A    between atoms: O_27  and  C_28
REMARK   24  A    between atoms: C_28  and  C_29
REMARK   25  A    between atoms: C_29  and  N_30
REMARK   26  A    between atoms: N_30  and  C_31
REMARK   27  A    between atoms: N_30  and  C_32
REMARK   28  A    between atoms: N_30  and  C_33
REMARK                            x       y       z     vdW  Elec       q    Type
REMARK                         _______ _______ _______ _____ _____    ______ ____
ROOT
ATOM      1  C   UNL     1       2.887   6.350  20.104  0.00  0.00    +0.000 C 
ENDROOT
BRANCH   1   2
ATOM      2  C   UNL     1       2.011   7.481  19.631  0.00  0.00    +0.000 C 
ATOM      3  O   UNL     1       1.147   8.014  20.374  0.00  0.00    +0.000 OA
ATOM      4  N   UNL     1       2.229   7.848  18.322  0.00  0.00    +0.000 N 
ATOM      5  H   UNL     1       2.882   7.305  17.762  0.00  0.00    +0.000 HD
BRANCH   4   6
ATOM      6  C   UNL     1       1.551   8.984  17.707  0.00  0.00    +0.000 C 
BRANCH   6   7
ATOM      7  C   UNL     1       1.944  10.391  18.258  0.00  0.00    +0.000 C 
BRANCH   7   8
ATOM      8  O   UNL     1       1.003  11.149  19.038  0.00  0.00    +0.000 OA
BRANCH   8   9
ATOM      9  P   UNL     1       0.932  12.785  19.083  0.00  0.00    +0.000 P 
ATOM     10  O   UNL     1      -0.217  13.201  18.188  0.00  0.00    +0.000 OA
ATOM     11  O   UNL     1       1.069  13.341  20.481  0.00  0.00    +0.000 OA
BRANCH   9  12
ATOM     12  O   UNL     1       2.268  13.420  18.291  0.00  0.00    +0.000 OA
BRANCH  12  13
ATOM     13  C   UNL     1       2.743  14.527  19.096  0.00  0.00    +0.000 C 
BRANCH  13  14
ATOM     14  C   UNL     1       4.119  14.586  19.753  0.00  0.00    +0.000 C 
BRANCH  14  15
ATOM     15  N   UNL     1       5.104  15.579  19.123  0.00  0.00    +0.000 N 
ATOM     16  C   UNL     1       5.939  16.331  20.165  0.00  0.00    +0.000 C 
ATOM     17  C   UNL     1       5.987  14.869  18.126  0.00  0.00    +0.000 C 
ATOM     18  C   UNL     1       4.286  16.646  18.358  0.00  0.00    +0.000 C 
ENDBRANCH  14  15
ENDBRANCH  13  14
ENDBRANCH  12  13
ENDBRANCH   9  12
ENDBRANCH   8   9
ENDBRANCH   7   8
ENDBRANCH   6   7
ENDBRANCH   4   6
ENDBRANCH   1   2
BRANCH   1  19
ATOM     19  C   UNL     1       2.113   5.506  21.109  0.00  0.00    +0.000 C 
BRANCH  19  20
ATOM     20  C   UNL     1       2.112   4.046  20.713  0.00  0.00    +0.000 C 
BRANCH  20  21
ATOM     21  C   UNL     1       0.716   3.655  20.257  0.00  0.00    +0.000 C 
BRANCH  21  22
ATOM     22  C   UNL     1       0.755   2.994  18.894  0.00  0.00    +0.000 C 
BRANCH  22  23
ATOM     23  C   UNL     1       1.739   1.836  18.895  0.00  0.00    +0.000 C 
BRANCH  23  24
ATOM     24  C   UNL     1       2.702   1.974  17.734  0.00  0.00    +0.000 C 
BRANCH  24  25
ATOM     25  C   UNL     1       3.946   2.725  18.163  0.00  0.00    +0.000 C 
BRANCH  25  26
ATOM     26  C   UNL     1       4.014   4.071  17.464  0.00  0.00    +0.000 C 
BRANCH  26  27
ATOM     27  C   UNL     1       5.317   4.777  17.803  0.00  0.00    +0.000 C 
BRANCH  27  28
ATOM     28  C   UNL     1       5.315   6.183  17.226  0.00  0.00    +0.000 C 
BRANCH  28  29
ATOM     29  C   UNL     1       5.570   6.130  15.730  0.00  0.00    +0.000 C 
BRANCH  29  30
ATOM     30  C   UNL     1       6.663   5.121  15.423  0.00  0.00    +0.000 C 
BRANCH  30  31
ATOM     31  C   UNL     1       6.684   4.809  13.935  0.00  0.00    +0.000 C 
BRANCH  31  32
ATOM     32  C   UNL     1       5.788   3.617  13.634  0.00  0.00    +0.000 C 
BRANCH  32  34
ATOM     33  C   UNL     1       4.506   3.219  11.528  0.00  0.00    +0.000 C 
ATOM     34  C   UNL     1       5.883   3.233  12.164  0.00  0.00    +0.000 C 
ENDBRANCH  32  34
ENDBRANCH  31  32
ENDBRANCH  30  31
ENDBRANCH  29  30
ENDBRANCH  28  29
ENDBRANCH  27  28
ENDBRANCH  26  27
ENDBRANCH  25  26
ENDBRANCH  24  25
ENDBRANCH  23  24
ENDBRANCH  22  23
ENDBRANCH  21  22
ENDBRANCH  20  21
ENDBRANCH  19  20
ENDBRANCH   1  19
TORSDOF 24
ENDMDL
MODEL 8
REMARK VINA RESULT:      -5.2      2.972      4.237
REMARK  Name = 
REMARK  28 active torsions:
REMARK  status: ('A' for Active; 'I' for Inactive)
REMARK    1  A    between atoms: C_1  and  C_2
REMARK    2  A    between atoms: C_2  and  C_3
REMARK    3  A    between atoms: C_3  and  C_4
REMARK    4  A    between atoms: C_4  and  C_5
REMARK    5  A    between atoms: C_5  and  C_6
REMARK    6  A    between atoms: C_6  and  C_7
REMARK    7  A    between atoms: C_7  and  C_8
REMARK    8  A    between atoms: C_8  and  C_9
REMARK    9  A    between atoms: C_9  and  C_10
REMARK   10  A    between atoms: C_10  and  C_11
REMARK   11  A    between atoms: C_11  and  C_12
REMARK   12  A    between atoms: C_12  and  C_13
REMARK   13  A    between atoms: C_13  and  C_14
REMARK   14  A    between atoms: C_14  and  C_15
REMARK   15  A    between atoms: C_15  and  C_16
REMARK   16  A    between atoms: C_16  and  C_17
REMARK   17  A    between atoms: C_17  and  C_18
REMARK   18  A    between atoms: N_20  and  C_21
REMARK   19  A    between atoms: C_21  and  C_22
REMARK   20  A    between atoms: C_22  and  O_23
REMARK   21  A    between atoms: O_23  and  P_24
REMARK   22  A    between atoms: P_24  and  O_27
REMARK   23  A    between atoms: O_27  and  C_28
REMARK   24  A    between atoms: C_28  and  C_29
REMARK   25  A    between atoms: C_29  and  N_30
REMARK   26  A    between atoms: N_30  and  C_31
REMARK   27  A    between atoms: N_30  and  C_32
REMARK   28  A    between atoms: N_30  and  C_33
REMARK                            x       y       z     vdW  Elec       q    Type
REMARK                         _______ _______ _______ _____ _____    ______ ____
ROOT
ATOM      1  C   UNL     1       1.438  10.046  18.221  0.00  0.00    +0.000 C 
ENDROOT
BRANCH   1   2
ATOM      2  C   UNL     1      -0.027  10.040  18.575  0.00  0.00    +0.000 C 
ATOM      3  O   UNL     1      -0.429   9.907  19.760  0.00  0.00    +0.000 OA
ATOM      4  N   UNL     1      -0.865  10.169  17.491  0.00  0.00    +0.000 N 
ATOM      5  H   UNL     1      -0.462  10.180  16.556  0.00  0.00    +0.000 HD
BRANCH   4   6
ATOM      6  C   UNL     1      -2.313  10.283  17.632  0.00  0.00    +0.000 C 
BRANCH   6   7
ATOM      7  C   UNL     1      -2.847  11.688  18.052  0.00  0.00    +0.000 C 
BRANCH   7   8
ATOM      8  O   UNL     1      -3.146  11.963  19.432  0.00  0.00    +0.000 OA
BRANCH   8   9
ATOM      9  P   UNL     1      -2.253  12.931  20.406  0.00  0.00    +0.000 P 
ATOM     10  O   UNL     1      -2.347  12.357  21.804  0.00  0.00    +0.000 OA
ATOM     11  O   UNL     1      -0.916  13.295  19.805  0.00  0.00    +0.000 OA
BRANCH   9  12
ATOM     12  O   UNL     1      -3.015  14.417  20.563  0.00  0.00    +0.000 OA
BRANCH  12  13
ATOM     13  C   UNL     1      -4.272  14.171  21.240  0.00  0.00    +0.000 C 
BRANCH  13  14
ATOM     14  C   UNL     1      -5.091  15.243  21.954  0.00  0.00    +0.000 C 
BRANCH  14  15
ATOM     15  N   UNL     1      -5.371  14.975  23.437  0.00  0.00    +0.000 N 
ATOM     16  C   UNL     1      -6.638  15.676  23.939  0.00  0.00    +0.000 C 
ATOM     17  C   UNL     1      -5.434  13.489  23.691  0.00  0.00    +0.000 C 
ATOM     18  C   UNL     1      -4.194  15.548  24.260  0.00  0.00    +0.000 C 
ENDBRANCH  14  15
ENDBRANCH  13  14
ENDBRANCH  12  13
ENDBRANCH   9  12
ENDBRANCH   8   9
ENDBRANCH   7   8
ENDBRANCH   6   7
ENDBRANCH   4   6
ENDBRANCH   1   2
BRANCH   1  19
ATOM     19  C   UNL     1       2.039   8.688  18.562  0.00  0.00    +0.000 C 
BRANCH  19  20
ATOM     20  C   UNL     1       2.760   8.094  17.373  0.00  0.00    +0.000 C 
BRANCH  20  21
ATOM     21  C   UNL     1       3.455   6.813  17.802  0.00  0.00    +0.000 C 
BRANCH  21  22
ATOM     22  C   UNL     1       2.504   5.909  18.562  0.00  0.00    +0.000 C 
BRANCH  22  23
ATOM     23  C   UNL     1       2.204   4.657  17.753  0.00  0.00    +0.000 C 
BRANCH  23  24
ATOM     24  C   UNL     1       3.410   3.741  17.750  0.00  0.00    +0.000 C 
BRANCH  24  25
ATOM     25  C   UNL     1       4.009   3.648  19.138  0.00  0.00    +0.000 C 
BRANCH  25  26
ATOM     26  C   UNL     1       5.518   3.795  19.069  0.00  0.00    +0.000 C 
BRANCH  26  27
ATOM     27  C   UNL     1       5.920   5.240  19.318  0.00  0.00    +0.000 C 
BRANCH  27  28
ATOM     28  C   UNL     1       7.267   5.527  18.677  0.00  0.00    +0.000 C 
BRANCH  28  29
ATOM     29  C   UNL     1       7.068   6.115  17.291  0.00  0.00    +0.000 C 
BRANCH  29  30
ATOM     30  C   UNL     1       7.088   5.011  16.249  0.00  0.00    +0.000 C 
BRANCH  30  31
ATOM     31  C   UNL     1       6.118   5.337  15.124  0.00  0.00    +0.000 C 
BRANCH  31  32
ATOM     32  C   UNL     1       5.626   4.057  14.466  0.00  0.00    +0.000 C 
BRANCH  32  34
ATOM     33  C   UNL     1       5.311   3.223  12.132  0.00  0.00    +0.000 C 
ATOM     34  C   UNL     1       6.281   3.867  13.105  0.00  0.00    +0.000 C 
ENDBRANCH  32  34
ENDBRANCH  31  32
ENDBRANCH  30  31
ENDBRANCH  29  30
ENDBRANCH  28  29
ENDBRANCH  27  28
ENDBRANCH  26  27
ENDBRANCH  25  26
ENDBRANCH  24  25
ENDBRANCH  23  24
ENDBRANCH  22  23
ENDBRANCH  21  22
ENDBRANCH  20  21
ENDBRANCH  19  20
ENDBRANCH   1  19
TORSDOF 24
ENDMDL
MODEL 9
REMARK VINA RESULT:      -5.2      2.766      5.519
REMARK  Name = 
REMARK  28 active torsions:
REMARK  status: ('A' for Active; 'I' for Inactive)
REMARK    1  A    between atoms: C_1  and  C_2
REMARK    2  A    between atoms: C_2  and  C_3
REMARK    3  A    between atoms: C_3  and  C_4
REMARK    4  A    between atoms: C_4  and  C_5
REMARK    5  A    between atoms: C_5  and  C_6
REMARK    6  A    between atoms: C_6  and  C_7
REMARK    7  A    between atoms: C_7  and  C_8
REMARK    8  A    between atoms: C_8  and  C_9
REMARK    9  A    between atoms: C_9  and  C_10
REMARK   10  A    between atoms: C_10  and  C_11
REMARK   11  A    between atoms: C_11  and  C_12
REMARK   12  A    between atoms: C_12  and  C_13
REMARK   13  A    between atoms: C_13  and  C_14
REMARK   14  A    between atoms: C_14  and  C_15
REMARK   15  A    between atoms: C_15  and  C_16
REMARK   16  A    between atoms: C_16  and  C_17
REMARK   17  A    between atoms: C_17  and  C_18
REMARK   18  A    between atoms: N_20  and  C_21
REMARK   19  A    between atoms: C_21  and  C_22
REMARK   20  A    between atoms: C_22  and  O_23
REMARK   21  A    between atoms: O_23  and  P_24
REMARK   22  A    between atoms: P_24  and  O_27
REMARK   23  A    between atoms: O_27  and  C_28
REMARK   24  A    between atoms: C_28  and  C_29
REMARK   25  A    between atoms: C_29  and  N_30
REMARK   26  A    between atoms: N_30  and  C_31
REMARK   27  A    between atoms: N_30  and  C_32
REMARK   28  A    between atoms: N_30  and  C_33
REMARK                            x       y       z     vdW  Elec       q    Type
REMARK                         _______ _______ _______ _____ _____    ______ ____
ROOT
ATOM      1  C   UNL     1      -0.773   9.645  17.423  0.00  0.00    +0.000 C 
ENDROOT
BRANCH   1   2
ATOM      2  C   UNL     1      -1.935  10.368  18.056  0.00  0.00    +0.000 C 
ATOM      3  O   UNL     1      -3.126  10.002  17.882  0.00  0.00    +0.000 OA
ATOM      4  N   UNL     1      -1.570  11.461  18.809  0.00  0.00    +0.000 N 
ATOM      5  H   UNL     1      -0.592  11.743  18.825  0.00  0.00    +0.000 HD
BRANCH   4   6
ATOM      6  C   UNL     1      -2.537  12.234  19.581  0.00  0.00    +0.000 C 
BRANCH   6   7
ATOM      7  C   UNL     1      -2.036  12.766  20.960  0.00  0.00    +0.000 C 
BRANCH   7   8
ATOM      8  O   UNL     1      -1.322  14.013  21.036  0.00  0.00    +0.000 OA
BRANCH   8   9
ATOM      9  P   UNL     1       0.077  14.238  21.858  0.00  0.00    +0.000 P 
ATOM     10  O   UNL     1      -0.300  14.653  23.265  0.00  0.00    +0.000 OA
ATOM     11  O   UNL     1       1.084  13.138  21.616  0.00  0.00    +0.000 OA
BRANCH   9  12
ATOM     12  O   UNL     1       0.856  15.601  21.265  0.00  0.00    +0.000 OA
BRANCH  12  13
ATOM     13  C   UNL     1       0.972  15.424  19.832  0.00  0.00    +0.000 C 
BRANCH  13  14
ATOM     14  C   UNL     1       2.166  15.885  19.001  0.00  0.00    +0.000 C 
BRANCH  14  15
ATOM     15  N   UNL     1       3.293  14.856  18.845  0.00  0.00    +0.000 N 
ATOM     16  C   UNL     1       4.255  15.196  17.702  0.00  0.00    +0.000 C 
ATOM     17  C   UNL     1       4.032  14.698  20.152  0.00  0.00    +0.000 C 
ATOM     18  C   UNL     1       2.653  13.493  18.494  0.00  0.00    +0.000 C 
ENDBRANCH  14  15
ENDBRANCH  13  14
ENDBRANCH  12  13
ENDBRANCH   9  12
ENDBRANCH   8   9
ENDBRANCH   7   8
ENDBRANCH   6   7
ENDBRANCH   4   6
ENDBRANCH   1   2
BRANCH   1  19
ATOM     19  C   UNL     1       0.456   9.805  18.307  0.00  0.00    +0.000 C 
BRANCH  19  20
ATOM     20  C   UNL     1       1.553   8.848  17.900  0.00  0.00    +0.000 C 
BRANCH  20  21
ATOM     21  C   UNL     1       2.065   8.124  19.135  0.00  0.00    +0.000 C 
BRANCH  21  22
ATOM     22  C   UNL     1       2.421   6.687  18.812  0.00  0.00    +0.000 C 
BRANCH  22  23
ATOM     23  C   UNL     1       2.531   5.868  20.089  0.00  0.00    +0.000 C 
BRANCH  23  24
ATOM     24  C   UNL     1       1.212   5.186  20.382  0.00  0.00    +0.000 C 
BRANCH  24  25
ATOM     25  C   UNL     1       1.344   3.685  20.224  0.00  0.00    +0.000 C 
BRANCH  25  26
ATOM     26  C   UNL     1       1.191   3.295  18.765  0.00  0.00    +0.000 C 
BRANCH  26  27
ATOM     27  C   UNL     1       2.108   2.129  18.431  0.00  0.00    +0.000 C 
BRANCH  27  28
ATOM     28  C   UNL     1       3.522   2.424  18.900  0.00  0.00    +0.000 C 
BRANCH  28  29
ATOM     29  C   UNL     1       4.204   3.371  17.929  0.00  0.00    +0.000 C 
BRANCH  29  30
ATOM     30  C   UNL     1       5.325   4.119  18.630  0.00  0.00    +0.000 C 
BRANCH  30  31
ATOM     31  C   UNL     1       6.210   4.814  17.608  0.00  0.00    +0.000 C 
BRANCH  31  32
ATOM     32  C   UNL     1       5.820   6.279  17.482  0.00  0.00    +0.000 C 
BRANCH  32  34
ATOM     33  C   UNL     1       5.529   5.470  15.137  0.00  0.00    +0.000 C 
ATOM     34  C   UNL     1       5.148   6.541  16.141  0.00  0.00    +0.000 C 
ENDBRANCH  32  34
ENDBRANCH  31  32
ENDBRANCH  30  31
ENDBRANCH  29  30
ENDBRANCH  28  29
ENDBRANCH  27  28
ENDBRANCH  26  27
ENDBRANCH  25  26
ENDBRANCH  24  25
ENDBRANCH  23  24
ENDBRANCH  22  23
ENDBRANCH  21  22
ENDBRANCH  20  21
ENDBRANCH  19  20
ENDBRANCH   1  19
TORSDOF 24
ENDMDL
