MODEL 1
REMARK VINA RESULT:      -7.7      0.000      0.000
REMARK  Name = 
REMARK  5 active torsions:
REMARK  status: ('A' for Active; 'I' for Inactive)
REMARK    1  A    between atoms: C_1  and  C_2
REMARK    2  A    between atoms: C_2  and  C_3
REMARK    3  A    between atoms: C_10  and  C_11
REMARK    4  A    between atoms: N_15  and  S_16
REMARK    5  A    between atoms: S_16  and  C_17
REMARK                            x       y       z     vdW  Elec       q    Type
REMARK                         _______ _______ _______ _____ _____    ______ ____
ROOT
ATOM      1  C   UNL     1      -0.628   9.054  22.279  0.00  0.00    +0.000 C 
ATOM      2  C   UNL     1       0.458   9.332  21.217  0.00  0.00    +0.000 C 
ATOM      3  C   UNL     1       1.101  10.703  21.514  0.00  0.00    +0.000 C 
ATOM      4  C   UNL     1      -0.242   9.380  19.839  0.00  0.00    +0.000 C 
ATOM      5  N   UNL     1       0.593   9.919  18.790  0.00  0.00    +0.000 N 
ATOM      6  C   UNL     1       1.704   9.331  18.237  0.00  0.00    +0.000 C 
ATOM      7  O   UNL     1       2.259   9.882  17.284  0.00  0.00    +0.000 OA
ATOM      8  C   UNL     1       2.124   8.049  18.785  0.00  0.00    +0.000 A 
ATOM      9  N   UNL     1       2.659   7.050  17.990  0.00  0.00    +0.000 NA
ATOM     10  C   UNL     1       2.762   5.991  18.762  0.00  0.00    +0.000 A 
ATOM     11  N   UNL     1       2.438   6.305  20.056  0.00  0.00    +0.000 N 
ATOM     12  C   UNL     1       2.001   7.600  20.092  0.00  0.00    +0.000 A 
ATOM     13  C   UNL     1       1.543   8.232  21.355  0.00  0.00    +0.000 C 
ATOM     14  H   UNL     1       0.324  10.772  18.316  0.00  0.00    +0.000 HD
ATOM     15  H   UNL     1       2.446   5.643  20.828  0.00  0.00    +0.000 HD
ENDROOT
BRANCH  10  16
ATOM     16  C   UNL     1       3.086   4.598  18.308  0.00  0.00    +0.000 C 
ATOM     17  C   UNL     1       3.882   3.840  19.382  0.00  0.00    +0.000 C 
ATOM     18  C   UNL     1       5.286   4.416  19.565  0.00  0.00    +0.000 C 
ATOM     19  C   UNL     1       6.042   4.557  18.243  0.00  0.00    +0.000 C 
ATOM     20  N   UNL     1       5.209   5.225  17.203  0.00  0.00    +0.000 NA
ATOM     21  C   UNL     1       3.867   4.597  16.991  0.00  0.00    +0.000 C 
BRANCH  20  22
ATOM     22  S   UNL     1       6.004   5.778  15.808  0.00  0.00    +0.000 S 
ATOM     23  C   UNL     1       6.050   4.320  14.787  0.00  0.00    +0.000 C 
ATOM     24  O   UNL     1       5.155   6.760  15.172  0.00  0.00    +0.000 OA
ATOM     25  O   UNL     1       7.359   6.103  16.196  0.00  0.00    +0.000 OA
ENDBRANCH  20  22
ENDBRANCH  10  16
TORSDOF 2
ENDMDL
MODEL 2
REMARK VINA RESULT:      -7.6      1.549      1.878
REMARK  Name = 
REMARK  5 active torsions:
REMARK  status: ('A' for Active; 'I' for Inactive)
REMARK    1  A    between atoms: C_1  and  C_2
REMARK    2  A    between atoms: C_2  and  C_3
REMARK    3  A    between atoms: C_10  and  C_11
REMARK    4  A    between atoms: N_15  and  S_16
REMARK    5  A    between atoms: S_16  and  C_17
REMARK                            x       y       z     vdW  Elec       q    Type
REMARK                         _______ _______ _______ _____ _____    ______ ____
ROOT
ATOM      1  C   UNL     1      -0.722   8.679  22.027  0.00  0.00    +0.000 C 
ATOM      2  C   UNL     1       0.404   9.189  21.102  0.00  0.00    +0.000 C 
ATOM      3  C   UNL     1       0.991  10.483  21.705  0.00  0.00    +0.000 C 
ATOM      4  C   UNL     1      -0.231   9.506  19.728  0.00  0.00    +0.000 C 
ATOM      5  N   UNL     1       0.636  10.264  18.856  0.00  0.00    +0.000 N 
ATOM      6  C   UNL     1       1.789   9.823  18.254  0.00  0.00    +0.000 C 
ATOM      7  O   UNL     1       2.372  10.568  17.464  0.00  0.00    +0.000 OA
ATOM      8  C   UNL     1       2.220   8.464  18.550  0.00  0.00    +0.000 A 
ATOM      9  N   UNL     1       2.821   7.660  17.597  0.00  0.00    +0.000 NA
ATOM     10  C   UNL     1       2.919   6.467  18.142  0.00  0.00    +0.000 A 
ATOM     11  N   UNL     1       2.525   6.503  19.454  0.00  0.00    +0.000 N 
ATOM     12  C   UNL     1       2.048   7.755  19.730  0.00  0.00    +0.000 A 
ATOM     13  C   UNL     1       1.513   8.105  21.070  0.00  0.00    +0.000 C 
ATOM     14  H   UNL     1       0.365  11.190  18.553  0.00  0.00    +0.000 HD
ATOM     15  H   UNL     1       2.516   5.697  20.074  0.00  0.00    +0.000 HD
ENDROOT
BRANCH  10  16
ATOM     16  C   UNL     1       3.305   5.203  17.431  0.00  0.00    +0.000 C 
ATOM     17  C   UNL     1       2.769   3.969  18.174  0.00  0.00    +0.000 C 
ATOM     18  C   UNL     1       3.466   3.765  19.519  0.00  0.00    +0.000 C 
ATOM     19  C   UNL     1       4.991   3.784  19.402  0.00  0.00    +0.000 C 
ATOM     20  N   UNL     1       5.467   4.952  18.607  0.00  0.00    +0.000 NA
ATOM     21  C   UNL     1       4.822   5.087  17.264  0.00  0.00    +0.000 C 
BRANCH  20  22
ATOM     22  S   UNL     1       7.123   5.319  18.683  0.00  0.00    +0.000 S 
ATOM     23  C   UNL     1       7.216   6.861  17.797  0.00  0.00    +0.000 C 
ATOM     24  O   UNL     1       7.461   5.562  20.068  0.00  0.00    +0.000 OA
ATOM     25  O   UNL     1       7.815   4.310  17.913  0.00  0.00    +0.000 OA
ENDBRANCH  20  22
ENDBRANCH  10  16
TORSDOF 2
ENDMDL
MODEL 3
REMARK VINA RESULT:      -7.5      2.911      4.434
REMARK  Name = 
REMARK  5 active torsions:
REMARK  status: ('A' for Active; 'I' for Inactive)
REMARK    1  A    between atoms: C_1  and  C_2
REMARK    2  A    between atoms: C_2  and  C_3
REMARK    3  A    between atoms: C_10  and  C_11
REMARK    4  A    between atoms: N_15  and  S_16
REMARK    5  A    between atoms: S_16  and  C_17
REMARK                            x       y       z     vdW  Elec       q    Type
REMARK                         _______ _______ _______ _____ _____    ______ ____
ROOT
ATOM      1  C   UNL     1       1.179   1.723  18.571  0.00  0.00    +0.000 C 
ATOM      2  C   UNL     1       1.650   3.023  19.257  0.00  0.00    +0.000 C 
ATOM      3  C   UNL     1       0.719   3.315  20.454  0.00  0.00    +0.000 C 
ATOM      4  C   UNL     1       1.528   4.165  18.222  0.00  0.00    +0.000 C 
ATOM      5  N   UNL     1       1.652   5.483  18.804  0.00  0.00    +0.000 N 
ATOM      6  C   UNL     1       2.787   6.045  19.335  0.00  0.00    +0.000 C 
ATOM      7  O   UNL     1       2.751   7.217  19.714  0.00  0.00    +0.000 OA
ATOM      8  C   UNL     1       3.990   5.225  19.362  0.00  0.00    +0.000 A 
ATOM      9  N   UNL     1       5.250   5.761  19.155  0.00  0.00    +0.000 NA
ATOM     10  C   UNL     1       6.069   4.736  19.075  0.00  0.00    +0.000 A 
ATOM     11  N   UNL     1       5.408   3.568  19.353  0.00  0.00    +0.000 N 
ATOM     12  C   UNL     1       4.078   3.848  19.510  0.00  0.00    +0.000 A 
ATOM     13  C   UNL     1       3.086   2.780  19.790  0.00  0.00    +0.000 C 
ATOM     14  H   UNL     1       0.877   6.131  18.759  0.00  0.00    +0.000 HD
ATOM     15  H   UNL     1       5.840   2.648  19.350  0.00  0.00    +0.000 HD
ENDROOT
BRANCH  10  16
ATOM     16  C   UNL     1       7.505   4.788  18.644  0.00  0.00    +0.000 C 
ATOM     17  C   UNL     1       8.147   6.130  19.030  0.00  0.00    +0.000 C 
ATOM     18  C   UNL     1       7.565   7.294  18.229  0.00  0.00    +0.000 C 
ATOM     19  C   UNL     1       7.573   7.033  16.721  0.00  0.00    +0.000 C 
ATOM     20  N   UNL     1       7.016   5.690  16.393  0.00  0.00    +0.000 NA
ATOM     21  C   UNL     1       7.654   4.559  17.137  0.00  0.00    +0.000 C 
BRANCH  20  22
ATOM     22  S   UNL     1       6.623   5.389  14.769  0.00  0.00    +0.000 S 
ATOM     23  C   UNL     1       6.179   3.665  14.793  0.00  0.00    +0.000 C 
ATOM     24  O   UNL     1       5.445   6.164  14.446  0.00  0.00    +0.000 OA
ATOM     25  O   UNL     1       7.842   5.533  14.005  0.00  0.00    +0.000 OA
ENDBRANCH  20  22
ENDBRANCH  10  16
TORSDOF 2
ENDMDL
MODEL 4
REMARK VINA RESULT:      -7.5      1.003      1.461
REMARK  Name = 
REMARK  5 active torsions:
REMARK  status: ('A' for Active; 'I' for Inactive)
REMARK    1  A    between atoms: C_1  and  C_2
REMARK    2  A    between atoms: C_2  and  C_3
REMARK    3  A    between atoms: C_10  and  C_11
REMARK    4  A    between atoms: N_15  and  S_16
REMARK    5  A    between atoms: S_16  and  C_17
REMARK                            x       y       z     vdW  Elec       q    Type
REMARK                         _______ _______ _______ _____ _____    ______ ____
ROOT
ATOM      1  C   UNL     1      -0.696   8.844  22.229  0.00  0.00    +0.000 C 
ATOM      2  C   UNL     1       0.397   9.283  21.232  0.00  0.00    +0.000 C 
ATOM      3  C   UNL     1       1.046  10.584  21.751  0.00  0.00    +0.000 C 
ATOM      4  C   UNL     1      -0.295   9.559  19.876  0.00  0.00    +0.000 C 
ATOM      5  N   UNL     1       0.550  10.256  18.933  0.00  0.00    +0.000 N 
ATOM      6  C   UNL     1       1.661   9.758  18.298  0.00  0.00    +0.000 C 
ATOM      7  O   UNL     1       2.224  10.452  17.450  0.00  0.00    +0.000 OA
ATOM      8  C   UNL     1       2.070   8.401  18.632  0.00  0.00    +0.000 A 
ATOM      9  N   UNL     1       2.604   7.541  17.688  0.00  0.00    +0.000 NA
ATOM     10  C   UNL     1       2.696   6.370  18.278  0.00  0.00    +0.000 A 
ATOM     11  N   UNL     1       2.366   6.472  19.605  0.00  0.00    +0.000 N 
ATOM     12  C   UNL     1       1.936   7.747  19.848  0.00  0.00    +0.000 A 
ATOM     13  C   UNL     1       1.475   8.168  21.195  0.00  0.00    +0.000 C 
ATOM     14  H   UNL     1       0.289  11.176  18.603  0.00  0.00    +0.000 HD
ATOM     15  H   UNL     1       2.366   5.693  20.258  0.00  0.00    +0.000 HD
ENDROOT
BRANCH  10  16
ATOM     16  C   UNL     1       3.015   5.066  17.605  0.00  0.00    +0.000 C 
ATOM     17  C   UNL     1       2.971   3.904  18.610  0.00  0.00    +0.000 C 
ATOM     18  C   UNL     1       4.108   3.986  19.629  0.00  0.00    +0.000 C 
ATOM     19  C   UNL     1       5.477   4.163  18.970  0.00  0.00    +0.000 C 
ATOM     20  N   UNL     1       5.459   5.246  17.946  0.00  0.00    +0.000 NA
ATOM     21  C   UNL     1       4.382   5.103  16.917  0.00  0.00    +0.000 C 
BRANCH  20  22
ATOM     22  S   UNL     1       6.959   5.810  17.385  0.00  0.00    +0.000 S 
ATOM     23  C   UNL     1       7.826   6.168  18.898  0.00  0.00    +0.000 C 
ATOM     24  O   UNL     1       7.625   4.712  16.720  0.00  0.00    +0.000 OA
ATOM     25  O   UNL     1       6.711   7.057  16.697  0.00  0.00    +0.000 OA
ENDBRANCH  20  22
ENDBRANCH  10  16
TORSDOF 2
ENDMDL
MODEL 5
REMARK VINA RESULT:      -6.9      2.840      3.752
REMARK  Name = 
REMARK  5 active torsions:
REMARK  status: ('A' for Active; 'I' for Inactive)
REMARK    1  A    between atoms: C_1  and  C_2
REMARK    2  A    between atoms: C_2  and  C_3
REMARK    3  A    between atoms: C_10  and  C_11
REMARK    4  A    between atoms: N_15  and  S_16
REMARK    5  A    between atoms: S_16  and  C_17
REMARK                            x       y       z     vdW  Elec       q    Type
REMARK                         _______ _______ _______ _____ _____    ______ ____
ROOT
ATOM      1  C   UNL     1       1.376  11.744  18.581  0.00  0.00    +0.000 C 
ATOM      2  C   UNL     1       1.023  10.281  18.925  0.00  0.00    +0.000 C 
ATOM      3  C   UNL     1      -0.506  10.103  18.818  0.00  0.00    +0.000 C 
ATOM      4  C   UNL     1       1.469  10.026  20.383  0.00  0.00    +0.000 C 
ATOM      5  N   UNL     1       0.942   8.800  20.939  0.00  0.00    +0.000 N 
ATOM      6  C   UNL     1       1.285   7.520  20.579  0.00  0.00    +0.000 C 
ATOM      7  O   UNL     1       0.808   6.575  21.212  0.00  0.00    +0.000 OA
ATOM      8  C   UNL     1       2.245   7.363  19.496  0.00  0.00    +0.000 A 
ATOM      9  N   UNL     1       3.189   6.350  19.492  0.00  0.00    +0.000 NA
ATOM     10  C   UNL     1       3.986   6.604  18.479  0.00  0.00    +0.000 A 
ATOM     11  N   UNL     1       3.517   7.667  17.751  0.00  0.00    +0.000 N 
ATOM     12  C   UNL     1       2.427   8.185  18.394  0.00  0.00    +0.000 A 
ATOM     13  C   UNL     1       1.706   9.372  17.869  0.00  0.00    +0.000 C 
ATOM     14  H   UNL     1       0.323   8.831  21.738  0.00  0.00    +0.000 HD
ATOM     15  H   UNL     1       3.971   8.042  16.923  0.00  0.00    +0.000 HD
ENDROOT
BRANCH  10  16
ATOM     16  C   UNL     1       5.288   5.916  18.188  0.00  0.00    +0.000 C 
ATOM     17  C   UNL     1       5.474   5.708  16.676  0.00  0.00    +0.000 C 
ATOM     18  C   UNL     1       4.481   4.691  16.113  0.00  0.00    +0.000 C 
ATOM     19  C   UNL     1       4.464   3.383  16.905  0.00  0.00    +0.000 C 
ATOM     20  N   UNL     1       4.363   3.629  18.372  0.00  0.00    +0.000 NA
ATOM     21  C   UNL     1       5.393   4.571  18.911  0.00  0.00    +0.000 C 
BRANCH  20  22
ATOM     22  S   UNL     1       3.974   2.302  19.356  0.00  0.00    +0.000 S 
ATOM     23  C   UNL     1       2.528   2.875  20.222  0.00  0.00    +0.000 C 
ATOM     24  O   UNL     1       3.592   1.206  18.494  0.00  0.00    +0.000 OA
ATOM     25  O   UNL     1       5.049   2.157  20.314  0.00  0.00    +0.000 OA
ENDBRANCH  20  22
ENDBRANCH  10  16
TORSDOF 2
ENDMDL
MODEL 6
REMARK VINA RESULT:      -6.8      3.016      4.582
REMARK  Name = 
REMARK  5 active torsions:
REMARK  status: ('A' for Active; 'I' for Inactive)
REMARK    1  A    between atoms: C_1  and  C_2
REMARK    2  A    between atoms: C_2  and  C_3
REMARK    3  A    between atoms: C_10  and  C_11
REMARK    4  A    between atoms: N_15  and  S_16
REMARK    5  A    between atoms: S_16  and  C_17
REMARK                            x       y       z     vdW  Elec       q    Type
REMARK                         _______ _______ _______ _____ _____    ______ ____
ROOT
ATOM      1  C   UNL     1       1.341   1.547  18.843  0.00  0.00    +0.000 C 
ATOM      2  C   UNL     1       1.776   2.874  19.502  0.00  0.00    +0.000 C 
ATOM      3  C   UNL     1       0.904   3.113  20.753  0.00  0.00    +0.000 C 
ATOM      4  C   UNL     1       1.526   4.005  18.478  0.00  0.00    +0.000 C 
ATOM      5  N   UNL     1       1.609   5.328  19.053  0.00  0.00    +0.000 N 
ATOM      6  C   UNL     1       2.739   5.956  19.515  0.00  0.00    +0.000 C 
ATOM      7  O   UNL     1       2.658   7.125  19.897  0.00  0.00    +0.000 OA
ATOM      8  C   UNL     1       3.987   5.207  19.469  0.00  0.00    +0.000 A 
ATOM      9  N   UNL     1       5.199   5.815  19.187  0.00  0.00    +0.000 NA
ATOM     10  C   UNL     1       6.070   4.839  19.057  0.00  0.00    +0.000 A 
ATOM     11  N   UNL     1       5.495   3.635  19.372  0.00  0.00    +0.000 N 
ATOM     12  C   UNL     1       4.164   3.838  19.609  0.00  0.00    +0.000 A 
ATOM     13  C   UNL     1       3.253   2.715  19.947  0.00  0.00    +0.000 C 
ATOM     14  H   UNL     1       0.796   5.931  19.056  0.00  0.00    +0.000 HD
ATOM     15  H   UNL     1       5.979   2.741  19.342  0.00  0.00    +0.000 HD
ENDROOT
BRANCH  10  16
ATOM     16  C   UNL     1       7.472   4.973  18.539  0.00  0.00    +0.000 C 
ATOM     17  C   UNL     1       7.968   6.422  18.664  0.00  0.00    +0.000 C 
ATOM     18  C   UNL     1       7.222   7.364  17.719  0.00  0.00    +0.000 C 
ATOM     19  C   UNL     1       7.201   6.856  16.276  0.00  0.00    +0.000 C 
ATOM     20  N   UNL     1       6.792   5.424  16.204  0.00  0.00    +0.000 NA
ATOM     21  C   UNL     1       7.586   4.511  17.084  0.00  0.00    +0.000 C 
BRANCH  20  22
ATOM     22  S   UNL     1       6.373   4.813  14.676  0.00  0.00    +0.000 S 
ATOM     23  C   UNL     1       7.772   5.279  13.678  0.00  0.00    +0.000 C 
ATOM     24  O   UNL     1       6.333   3.371  14.770  0.00  0.00    +0.000 OA
ATOM     25  O   UNL     1       5.222   5.563  14.223  0.00  0.00    +0.000 OA
ENDBRANCH  20  22
ENDBRANCH  10  16
TORSDOF 2
ENDMDL
MODEL 7
REMARK VINA RESULT:      -6.7      3.134      4.093
REMARK  Name = 
REMARK  5 active torsions:
REMARK  status: ('A' for Active; 'I' for Inactive)
REMARK    1  A    between atoms: C_1  and  C_2
REMARK    2  A    between atoms: C_2  and  C_3
REMARK    3  A    between atoms: C_10  and  C_11
REMARK    4  A    between atoms: N_15  and  S_16
REMARK    5  A    between atoms: S_16  and  C_17
REMARK                            x       y       z     vdW  Elec       q    Type
REMARK                         _______ _______ _______ _____ _____    ______ ____
ROOT
ATOM      1  C   UNL     1       1.441  12.207  18.233  0.00  0.00    +0.000 C 
ATOM      2  C   UNL     1       0.756  10.959  18.832  0.00  0.00    +0.000 C 
ATOM      3  C   UNL     1      -0.764  11.064  18.587  0.00  0.00    +0.000 C 
ATOM      4  C   UNL     1       1.032  10.964  20.354  0.00  0.00    +0.000 C 
ATOM      5  N   UNL     1       0.214  10.025  21.088  0.00  0.00    +0.000 N 
ATOM      6  C   UNL     1       0.295   8.655  21.047  0.00  0.00    +0.000 C 
ATOM      7  O   UNL     1      -0.418   7.993  21.804  0.00  0.00    +0.000 OA
ATOM      8  C   UNL     1       1.273   8.069  20.141  0.00  0.00    +0.000 A 
ATOM      9  N   UNL     1       1.972   6.917  20.460  0.00  0.00    +0.000 NA
ATOM     10  C   UNL     1       2.876   6.771  19.516  0.00  0.00    +0.000 A 
ATOM     11  N   UNL     1       2.700   7.710  18.532  0.00  0.00    +0.000 N 
ATOM     12  C   UNL     1       1.706   8.565  18.920  0.00  0.00    +0.000 A 
ATOM     13  C   UNL     1       1.298   9.717  18.078  0.00  0.00    +0.000 C 
ATOM     14  H   UNL     1      -0.438  10.359  21.785  0.00  0.00    +0.000 HD
ATOM     15  H   UNL     1       3.282   7.789  17.703  0.00  0.00    +0.000 HD
ENDROOT
BRANCH  10  16
ATOM     16  C   UNL     1       4.015   5.794  19.530  0.00  0.00    +0.000 C 
ATOM     17  C   UNL     1       4.757   5.796  18.184  0.00  0.00    +0.000 C 
ATOM     18  C   UNL     1       3.899   5.221  17.057  0.00  0.00    +0.000 C 
ATOM     19  C   UNL     1       3.297   3.860  17.412  0.00  0.00    +0.000 C 
ATOM     20  N   UNL     1       2.655   3.877  18.757  0.00  0.00    +0.000 NA
ATOM     21  C   UNL     1       3.540   4.375  19.856  0.00  0.00    +0.000 C 
BRANCH  20  22
ATOM     22  S   UNL     1       1.639   2.574  19.148  0.00  0.00    +0.000 S 
ATOM     23  C   UNL     1       1.217   2.911  20.845  0.00  0.00    +0.000 C 
ATOM     24  O   UNL     1       0.443   2.687  18.344  0.00  0.00    +0.000 OA
ATOM     25  O   UNL     1       2.452   1.379  19.111  0.00  0.00    +0.000 OA
ENDBRANCH  20  22
ENDBRANCH  10  16
TORSDOF 2
ENDMDL
MODEL 8
REMARK VINA RESULT:      -6.7      3.996      4.822
REMARK  Name = 
REMARK  5 active torsions:
REMARK  status: ('A' for Active; 'I' for Inactive)
REMARK    1  A    between atoms: C_1  and  C_2
REMARK    2  A    between atoms: C_2  and  C_3
REMARK    3  A    between atoms: C_10  and  C_11
REMARK    4  A    between atoms: N_15  and  S_16
REMARK    5  A    between atoms: S_16  and  C_17
REMARK                            x       y       z     vdW  Elec       q    Type
REMARK                         _______ _______ _______ _____ _____    ______ ____
ROOT
ATOM      1  C   UNL     1       1.671   2.466  22.059  0.00  0.00    +0.000 C 
ATOM      2  C   UNL     1       1.734   3.047  20.630  0.00  0.00    +0.000 C 
ATOM      3  C   UNL     1       0.372   3.693  20.298  0.00  0.00    +0.000 C 
ATOM      4  C   UNL     1       1.994   1.870  19.661  0.00  0.00    +0.000 C 
ATOM      5  N   UNL     1       1.786   2.213  18.273  0.00  0.00    +0.000 N 
ATOM      6  C   UNL     1       2.559   3.051  17.507  0.00  0.00    +0.000 C 
ATOM      7  O   UNL     1       2.299   3.173  16.308  0.00  0.00    +0.000 OA
ATOM      8  C   UNL     1       3.683   3.706  18.160  0.00  0.00    +0.000 A 
ATOM      9  N   UNL     1       4.880   3.939  17.504  0.00  0.00    +0.000 NA
ATOM     10  C   UNL     1       5.715   4.378  18.420  0.00  0.00    +0.000 A 
ATOM     11  N   UNL     1       5.066   4.562  19.613  0.00  0.00    +0.000 N 
ATOM     12  C   UNL     1       3.780   4.115  19.483  0.00  0.00    +0.000 A 
ATOM     13  C   UNL     1       2.825   4.149  20.618  0.00  0.00    +0.000 C 
ATOM     14  H   UNL     1       1.066   1.745  17.738  0.00  0.00    +0.000 HD
ATOM     15  H   UNL     1       5.511   4.895  20.464  0.00  0.00    +0.000 HD
ENDROOT
BRANCH  10  16
ATOM     16  C   UNL     1       7.194   4.564  18.248  0.00  0.00    +0.000 C 
ATOM     17  C   UNL     1       7.649   5.912  18.827  0.00  0.00    +0.000 C 
ATOM     18  C   UNL     1       7.115   7.093  18.016  0.00  0.00    +0.000 C 
ATOM     19  C   UNL     1       7.397   6.953  16.519  0.00  0.00    +0.000 C 
ATOM     20  N   UNL     1       7.015   5.605  16.011  0.00  0.00    +0.000 NA
ATOM     21  C   UNL     1       7.611   4.466  16.778  0.00  0.00    +0.000 C 
BRANCH  20  22
ATOM     22  S   UNL     1       6.926   5.407  14.327  0.00  0.00    +0.000 S 
ATOM     23  C   UNL     1       6.528   3.679  14.163  0.00  0.00    +0.000 C 
ATOM     24  O   UNL     1       5.807   6.186  13.847  0.00  0.00    +0.000 OA
ATOM     25  O   UNL     1       8.259   5.617  13.806  0.00  0.00    +0.000 OA
ENDBRANCH  20  22
ENDBRANCH  10  16
TORSDOF 2
ENDMDL
MODEL 9
REMARK VINA RESULT:      -6.6      3.407      7.258
REMARK  Name = 
REMARK  5 active torsions:
REMARK  status: ('A' for Active; 'I' for Inactive)
REMARK    1  A    between atoms: C_1  and  C_2
REMARK    2  A    between atoms: C_2  and  C_3
REMARK    3  A    between atoms: C_10  and  C_11
REMARK    4  A    between atoms: N_15  and  S_16
REMARK    5  A    between atoms: S_16  and  C_17
REMARK                            x       y       z     vdW  Elec       q    Type
REMARK                         _______ _______ _______ _____ _____    ______ ____
ROOT
ATOM      1  C   UNL     1       5.118   5.222  15.561  0.00  0.00    +0.000 C 
ATOM      2  C   UNL     1       4.788   5.450  17.052  0.00  0.00    +0.000 C 
ATOM      3  C   UNL     1       6.001   5.009  17.899  0.00  0.00    +0.000 C 
ATOM      4  C   UNL     1       3.570   4.563  17.399  0.00  0.00    +0.000 C 
ATOM      5  N   UNL     1       3.331   4.447  18.819  0.00  0.00    +0.000 N 
ATOM      6  C   UNL     1       2.889   5.436  19.663  0.00  0.00    +0.000 C 
ATOM      7  O   UNL     1       2.649   5.154  20.839  0.00  0.00    +0.000 OA
ATOM      8  C   UNL     1       2.676   6.758  19.091  0.00  0.00    +0.000 A 
ATOM      9  N   UNL     1       1.643   7.581  19.507  0.00  0.00    +0.000 NA
ATOM     10  C   UNL     1       1.639   8.602  18.678  0.00  0.00    +0.000 A 
ATOM     11  N   UNL     1       2.710   8.534  17.825  0.00  0.00    +0.000 N 
ATOM     12  C   UNL     1       3.368   7.356  18.048  0.00  0.00    +0.000 A 
ATOM     13  C   UNL     1       4.563   6.971  17.256  0.00  0.00    +0.000 C 
ATOM     14  H   UNL     1       3.393   3.545  19.272  0.00  0.00    +0.000 HD
ATOM     15  H   UNL     1       2.910   9.216  17.098  0.00  0.00    +0.000 HD
ENDROOT
BRANCH  10  16
ATOM     16  C   UNL     1       0.573   9.654  18.581  0.00  0.00    +0.000 C 
ATOM     17  C   UNL     1       1.191  11.042  18.352  0.00  0.00    +0.000 C 
ATOM     18  C   UNL     1       1.967  11.532  19.574  0.00  0.00    +0.000 C 
ATOM     19  C   UNL     1       1.151  11.440  20.865  0.00  0.00    +0.000 C 
ATOM     20  N   UNL     1       0.503  10.106  21.012  0.00  0.00    +0.000 NA
ATOM     21  C   UNL     1      -0.311   9.682  19.831  0.00  0.00    +0.000 C 
BRANCH  20  22
ATOM     22  S   UNL     1      -0.133   9.716  22.537  0.00  0.00    +0.000 S 
ATOM     23  C   UNL     1      -1.187  11.109  22.882  0.00  0.00    +0.000 C 
ATOM     24  O   UNL     1      -0.959   8.539  22.387  0.00  0.00    +0.000 OA
ATOM     25  O   UNL     1       0.969   9.738  23.473  0.00  0.00    +0.000 OA
ENDBRANCH  20  22
ENDBRANCH  10  16
TORSDOF 2
ENDMDL
