MODEL 1
REMARK VINA RESULT:      -6.8      0.000      0.000
REMARK  Name = 
REMARK  4 active torsions:
REMARK  status: ('A' for Active; 'I' for Inactive)
REMARK    1  A    between atoms: C_1  and  C_2
REMARK    2  A    between atoms: C_3  and  C_4
REMARK    3  A    between atoms: C_4  and  N_5
REMARK    4  A    between atoms: C_11  and  N_12
REMARK                            x       y       z     vdW  Elec       q    Type
REMARK                         _______ _______ _______ _____ _____    ______ ____
ROOT
ATOM      1  N   UNL     1       2.342   7.691  18.579  0.00  0.00    +0.000 N 
ATOM      2  C   UNL     1       1.995   7.038  19.790  0.00  0.00    +0.000 A 
ATOM      3  N   UNL     1       2.261   5.676  19.914  0.00  0.00    +0.000 N 
ATOM      4  C   UNL     1       3.609   5.115  19.911  0.00  0.00    +0.000 C 
ATOM      5  C   UNL     1       3.641   3.899  18.981  0.00  0.00    +0.000 C 
ATOM      6  C   UNL     1       2.568   2.865  19.339  0.00  0.00    +0.000 C 
ATOM      7  C   UNL     1       1.180   3.489  19.590  0.00  0.00    +0.000 C 
ATOM      8  C   UNL     1       1.261   4.756  20.486  0.00  0.00    +0.000 C 
ATOM      9  N   UNL     1       1.390   7.653  20.782  0.00  0.00    +0.000 NA
ATOM     10  C   UNL     1       1.102   9.002  20.576  0.00  0.00    +0.000 A 
ATOM     11  C   UNL     1       0.436   9.912  21.409  0.00  0.00    +0.000 A 
ATOM     12 BR   UNL     1      -0.263   9.539  23.104  0.00  0.00    +0.000 Br
ATOM     13  C   UNL     1       0.383  11.124  20.749  0.00  0.00    +0.000 A 
ATOM     14  N   UNL     1       1.006  10.959  19.535  0.00  0.00    +0.000 N 
ATOM     15  C   UNL     1       1.437   9.664  19.433  0.00  0.00    +0.000 A 
ATOM     16  C   UNL     1       2.096   9.042  18.345  0.00  0.00    +0.000 A 
ATOM     17  O   UNL     1       2.389   9.652  17.322  0.00  0.00    +0.000 OA
ATOM     18  H   UNL     1       1.120  11.665  18.815  0.00  0.00    +0.000 HD
ENDROOT
BRANCH   7  19
ATOM     19  N   UNL     1       0.229   2.468  20.046  0.00  0.00    +0.000 NA
ATOM     20  H   UNL     1       0.271   1.658  19.434  0.00  0.00    +0.000 HD
ATOM     21  H   UNL     1      -0.719   2.841  19.951  0.00  0.00    +0.000 HD
ENDBRANCH   7  19
BRANCH   1  22
ATOM     22  C   UNL     1       2.797   6.944  17.427  0.00  0.00    +0.000 C 
BRANCH  22  25
ATOM     23  C   UNL     1       7.137   7.008  17.251  0.00  0.00    +0.000 C 
ATOM     24  C   UNL     1       5.618   6.985  17.312  0.00  0.00    +0.000 C 
ATOM     25  C   UNL     1       4.315   6.966  17.365  0.00  0.00    +0.000 C 
ENDBRANCH  22  25
ENDBRANCH   1  22
TORSDOF 3
ENDMDL
MODEL 2
REMARK VINA RESULT:      -6.6      4.589      6.718
REMARK  Name = 
REMARK  4 active torsions:
REMARK  status: ('A' for Active; 'I' for Inactive)
REMARK    1  A    between atoms: C_1  and  C_2
REMARK    2  A    between atoms: C_3  and  C_4
REMARK    3  A    between atoms: C_4  and  N_5
REMARK    4  A    between atoms: C_11  and  N_12
REMARK                            x       y       z     vdW  Elec       q    Type
REMARK                         _______ _______ _______ _____ _____    ______ ____
ROOT
ATOM      1  N   UNL     1       5.462   5.253  17.496  0.00  0.00    +0.000 N 
ATOM      2  C   UNL     1       4.356   4.730  16.779  0.00  0.00    +0.000 A 
ATOM      3  N   UNL     1       3.158   4.517  17.460  0.00  0.00    +0.000 N 
ATOM      4  C   UNL     1       2.365   5.594  18.047  0.00  0.00    +0.000 C 
ATOM      5  C   UNL     1       1.948   5.190  19.465  0.00  0.00    +0.000 C 
ATOM      6  C   UNL     1       1.230   3.836  19.496  0.00  0.00    +0.000 C 
ATOM      7  C   UNL     1       1.941   2.750  18.664  0.00  0.00    +0.000 C 
ATOM      8  C   UNL     1       2.386   3.276  17.271  0.00  0.00    +0.000 C 
ATOM      9  N   UNL     1       4.424   4.391  15.511  0.00  0.00    +0.000 NA
ATOM     10  C   UNL     1       5.664   4.576  14.898  0.00  0.00    +0.000 A 
ATOM     11  C   UNL     1       6.069   4.277  13.589  0.00  0.00    +0.000 A 
ATOM     12 BR   UNL     1       4.995   3.528  12.253  0.00  0.00    +0.000 Br
ATOM     13  C   UNL     1       7.399   4.626  13.472  0.00  0.00    +0.000 A 
ATOM     14  N   UNL     1       7.802   5.129  14.687  0.00  0.00    +0.000 N 
ATOM     15  C   UNL     1       6.742   5.092  15.552  0.00  0.00    +0.000 A 
ATOM     16  C   UNL     1       6.708   5.477  16.914  0.00  0.00    +0.000 A 
ATOM     17  O   UNL     1       7.690   5.938  17.489  0.00  0.00    +0.000 OA
ATOM     18  H   UNL     1       8.731   5.463  14.923  0.00  0.00    +0.000 HD
ENDROOT
BRANCH   7  19
ATOM     19  N   UNL     1       1.143   1.518  18.633  0.00  0.00    +0.000 NA
ATOM     20  H   UNL     1       0.199   1.725  18.319  0.00  0.00    +0.000 HD
ATOM     21  H   UNL     1       1.048   1.169  19.591  0.00  0.00    +0.000 HD
ENDBRANCH   7  19
BRANCH   1  22
ATOM     22  C   UNL     1       5.424   5.401  18.934  0.00  0.00    +0.000 C 
BRANCH  22  25
ATOM     23  C   UNL     1       4.805   1.527  20.799  0.00  0.00    +0.000 C 
ATOM     24  C   UNL     1       5.022   2.883  20.146  0.00  0.00    +0.000 C 
ATOM     25  C   UNL     1       5.207   4.046  19.586  0.00  0.00    +0.000 C 
ENDBRANCH  22  25
ENDBRANCH   1  22
TORSDOF 3
ENDMDL
MODEL 3
REMARK VINA RESULT:      -6.3      6.640      8.962
REMARK  Name = 
REMARK  4 active torsions:
REMARK  status: ('A' for Active; 'I' for Inactive)
REMARK    1  A    between atoms: C_1  and  C_2
REMARK    2  A    between atoms: C_3  and  C_4
REMARK    3  A    between atoms: C_4  and  N_5
REMARK    4  A    between atoms: C_11  and  N_12
REMARK                            x       y       z     vdW  Elec       q    Type
REMARK                         _______ _______ _______ _____ _____    ______ ____
ROOT
ATOM      1  N   UNL     1      -1.973  12.866  20.236  0.00  0.00    +0.000 N 
ATOM      2  C   UNL     1      -3.302  13.039  20.700  0.00  0.00    +0.000 A 
ATOM      3  N   UNL     1      -3.501  13.557  21.979  0.00  0.00    +0.000 N 
ATOM      4  C   UNL     1      -3.109  14.908  22.369  0.00  0.00    +0.000 C 
ATOM      5  C   UNL     1      -2.388  14.848  23.719  0.00  0.00    +0.000 C 
ATOM      6  C   UNL     1      -3.219  14.136  24.791  0.00  0.00    +0.000 C 
ATOM      7  C   UNL     1      -3.847  12.816  24.300  0.00  0.00    +0.000 C 
ATOM      8  C   UNL     1      -4.492  12.962  22.893  0.00  0.00    +0.000 C 
ATOM      9  N   UNL     1      -4.354  12.686  19.995  0.00  0.00    +0.000 NA
ATOM     10  C   UNL     1      -4.088  12.123  18.747  0.00  0.00    +0.000 A 
ATOM     11  C   UNL     1      -4.975  11.614  17.788  0.00  0.00    +0.000 A 
ATOM     12 BR   UNL     1      -6.839  11.565  17.935  0.00  0.00    +0.000 Br
ATOM     13  C   UNL     1      -4.224  11.148  16.727  0.00  0.00    +0.000 A 
ATOM     14  N   UNL     1      -2.902  11.370  17.030  0.00  0.00    +0.000 N 
ATOM     15  C   UNL     1      -2.825  11.960  18.262  0.00  0.00    +0.000 A 
ATOM     16  C   UNL     1      -1.666  12.333  18.986  0.00  0.00    +0.000 A 
ATOM     17  O   UNL     1      -0.535  12.177  18.536  0.00  0.00    +0.000 OA
ATOM     18  H   UNL     1      -2.102  11.128  16.454  0.00  0.00    +0.000 HD
ENDROOT
BRANCH   7  19
ATOM     19  N   UNL     1      -4.727  12.248  25.328  0.00  0.00    +0.000 NA
ATOM     20  H   UNL     1      -4.241  11.510  25.831  0.00  0.00    +0.000 HD
ATOM     21  H   UNL     1      -5.519  11.794  24.864  0.00  0.00    +0.000 HD
ENDBRANCH   7  19
BRANCH   1  22
ATOM     22  C   UNL     1      -0.840  13.049  21.117  0.00  0.00    +0.000 C 
BRANCH  22  25
ATOM     23  C   UNL     1      -0.129   9.410  23.379  0.00  0.00    +0.000 C 
ATOM     24  C   UNL     1      -0.378  10.683  22.588  0.00  0.00    +0.000 C 
ATOM     25  C   UNL     1      -0.591  11.776  21.908  0.00  0.00    +0.000 C 
ENDBRANCH  22  25
ENDBRANCH   1  22
TORSDOF 3
ENDMDL
MODEL 4
REMARK VINA RESULT:      -6.1      5.050      7.207
REMARK  Name = 
REMARK  4 active torsions:
REMARK  status: ('A' for Active; 'I' for Inactive)
REMARK    1  A    between atoms: C_1  and  C_2
REMARK    2  A    between atoms: C_3  and  C_4
REMARK    3  A    between atoms: C_4  and  N_5
REMARK    4  A    between atoms: C_11  and  N_12
REMARK                            x       y       z     vdW  Elec       q    Type
REMARK                         _______ _______ _______ _____ _____    ______ ____
ROOT
ATOM      1  N   UNL     1       6.218   4.779  16.201  0.00  0.00    +0.000 N 
ATOM      2  C   UNL     1       4.885   4.403  15.899  0.00  0.00    +0.000 A 
ATOM      3  N   UNL     1       3.949   4.371  16.931  0.00  0.00    +0.000 N 
ATOM      4  C   UNL     1       3.527   5.557  17.672  0.00  0.00    +0.000 C 
ATOM      5  C   UNL     1       3.534   5.239  19.170  0.00  0.00    +0.000 C 
ATOM      6  C   UNL     1       2.698   3.999  19.504  0.00  0.00    +0.000 C 
ATOM      7  C   UNL     1       2.963   2.810  18.558  0.00  0.00    +0.000 C 
ATOM      8  C   UNL     1       3.006   3.247  17.067  0.00  0.00    +0.000 C 
ATOM      9  N   UNL     1       4.503   4.038  14.695  0.00  0.00    +0.000 NA
ATOM     10  C   UNL     1       5.497   4.038  13.716  0.00  0.00    +0.000 A 
ATOM     11  C   UNL     1       5.424   3.665  12.366  0.00  0.00    +0.000 A 
ATOM     12 BR   UNL     1       3.895   3.051  11.479  0.00  0.00    +0.000 Br
ATOM     13  C   UNL     1       6.681   3.823  11.819  0.00  0.00    +0.000 A 
ATOM     14  N   UNL     1       7.508   4.285  12.814  0.00  0.00    +0.000 N 
ATOM     15  C   UNL     1       6.783   4.410  13.968  0.00  0.00    +0.000 A 
ATOM     16  C   UNL     1       7.233   4.818  15.247  0.00  0.00    +0.000 A 
ATOM     17  O   UNL     1       8.396   5.148  15.458  0.00  0.00    +0.000 OA
ATOM     18  H   UNL     1       8.499   4.490  12.728  0.00  0.00    +0.000 HD
ENDROOT
BRANCH   7  19
ATOM     19  N   UNL     1       2.048   1.701  18.852  0.00  0.00    +0.000 NA
ATOM     20  H   UNL     1       2.164   1.402  19.817  0.00  0.00    +0.000 HD
ATOM     21  H   UNL     1       2.315   0.898  18.277  0.00  0.00    +0.000 HD
ENDBRANCH   7  19
BRANCH   1  22
ATOM     22  C   UNL     1       6.658   4.955  17.568  0.00  0.00    +0.000 C 
BRANCH  22  25
ATOM     23  C   UNL     1       8.272   8.954  18.091  0.00  0.00    +0.000 C 
ATOM     24  C   UNL     1       7.707   7.555  17.908  0.00  0.00    +0.000 C 
ATOM     25  C   UNL     1       7.222   6.355  17.751  0.00  0.00    +0.000 C 
ENDBRANCH  22  25
ENDBRANCH   1  22
TORSDOF 3
ENDMDL
MODEL 5
REMARK VINA RESULT:      -6.0      7.794     10.191
REMARK  Name = 
REMARK  4 active torsions:
REMARK  status: ('A' for Active; 'I' for Inactive)
REMARK    1  A    between atoms: C_1  and  C_2
REMARK    2  A    between atoms: C_3  and  C_4
REMARK    3  A    between atoms: C_4  and  N_5
REMARK    4  A    between atoms: C_11  and  N_12
REMARK                            x       y       z     vdW  Elec       q    Type
REMARK                         _______ _______ _______ _____ _____    ______ ____
ROOT
ATOM      1  N   UNL     1       8.993  12.485  20.859  0.00  0.00    +0.000 N 
ATOM      2  C   UNL     1       8.795  13.733  20.216  0.00  0.00    +0.000 A 
ATOM      3  N   UNL     1       9.476  13.987  19.027  0.00  0.00    +0.000 N 
ATOM      4  C   UNL     1       9.255  13.233  17.796  0.00  0.00    +0.000 C 
ATOM      5  C   UNL     1      10.611  12.860  17.189  0.00  0.00    +0.000 C 
ATOM      6  C   UNL     1      11.512  14.083  16.985  0.00  0.00    +0.000 C 
ATOM      7  C   UNL     1      11.553  15.022  18.207  0.00  0.00    +0.000 C 
ATOM      8  C   UNL     1      10.137  15.283  18.792  0.00  0.00    +0.000 C 
ATOM      9  N   UNL     1       8.035  14.680  20.718  0.00  0.00    +0.000 NA
ATOM     10  C   UNL     1       7.423  14.387  21.937  0.00  0.00    +0.000 A 
ATOM     11  C   UNL     1       6.600  15.188  22.741  0.00  0.00    +0.000 A 
ATOM     12 BR   UNL     1       6.068  16.942  22.363  0.00  0.00    +0.000 Br
ATOM     13  C   UNL     1       6.263  14.453  23.860  0.00  0.00    +0.000 A 
ATOM     14  N   UNL     1       6.869  13.225  23.744  0.00  0.00    +0.000 N 
ATOM     15  C   UNL     1       7.577  13.192  22.574  0.00  0.00    +0.000 A 
ATOM     16  C   UNL     1       8.380  12.143  22.063  0.00  0.00    +0.000 A 
ATOM     17  O   UNL     1       8.510  11.073  22.650  0.00  0.00    +0.000 OA
ATOM     18  H   UNL     1       6.821  12.463  24.413  0.00  0.00    +0.000 HD
ENDROOT
BRANCH   7  19
ATOM     19  N   UNL     1      12.330  16.230  17.904  0.00  0.00    +0.000 NA
ATOM     20  H   UNL     1      12.624  16.678  18.769  0.00  0.00    +0.000 HD
ATOM     21  H   UNL     1      11.716  16.903  17.437  0.00  0.00    +0.000 HD
ENDBRANCH   7  19
BRANCH   1  22
ATOM     22  C   UNL     1      10.006  11.557  20.405  0.00  0.00    +0.000 C 
BRANCH  22  25
ATOM     23  C   UNL     1       8.186   8.493  17.921  0.00  0.00    +0.000 C 
ATOM     24  C   UNL     1       8.823   9.565  18.791  0.00  0.00    +0.000 C 
ATOM     25  C   UNL     1       9.369  10.484  19.536  0.00  0.00    +0.000 C 
ENDBRANCH  22  25
ENDBRANCH   1  22
TORSDOF 3
ENDMDL
MODEL 6
REMARK VINA RESULT:      -5.9      8.207     10.256
REMARK  Name = 
REMARK  4 active torsions:
REMARK  status: ('A' for Active; 'I' for Inactive)
REMARK    1  A    between atoms: C_1  and  C_2
REMARK    2  A    between atoms: C_3  and  C_4
REMARK    3  A    between atoms: C_4  and  N_5
REMARK    4  A    between atoms: C_11  and  N_12
REMARK                            x       y       z     vdW  Elec       q    Type
REMARK                         _______ _______ _______ _____ _____    ______ ____
ROOT
ATOM      1  N   UNL     1      10.069  12.763  19.942  0.00  0.00    +0.000 N 
ATOM      2  C   UNL     1       9.339  13.846  20.496  0.00  0.00    +0.000 A 
ATOM      3  N   UNL     1       8.656  13.648  21.695  0.00  0.00    +0.000 N 
ATOM      4  C   UNL     1       9.323  13.352  22.960  0.00  0.00    +0.000 C 
ATOM      5  C   UNL     1       8.595  12.192  23.648  0.00  0.00    +0.000 C 
ATOM      6  C   UNL     1       7.096  12.464  23.813  0.00  0.00    +0.000 C 
ATOM      7  C   UNL     1       6.432  13.018  22.536  0.00  0.00    +0.000 C 
ATOM      8  C   UNL     1       7.280  14.141  21.875  0.00  0.00    +0.000 C 
ATOM      9  N   UNL     1       9.238  15.014  19.902  0.00  0.00    +0.000 NA
ATOM     10  C   UNL     1       9.898  15.134  18.679  0.00  0.00    +0.000 A 
ATOM     11  C   UNL     1       9.948  16.218  17.791  0.00  0.00    +0.000 A 
ATOM     12 BR   UNL     1       9.112  17.874  18.034  0.00  0.00    +0.000 Br
ATOM     13  C   UNL     1      10.714  15.838  16.707  0.00  0.00    +0.000 A 
ATOM     14  N   UNL     1      11.126  14.545  16.928  0.00  0.00    +0.000 N 
ATOM     15  C   UNL     1      10.623  14.121  18.127  0.00  0.00    +0.000 A 
ATOM     16  C   UNL     1      10.763  12.850  18.737  0.00  0.00    +0.000 A 
ATOM     17  O   UNL     1      11.418  11.947  18.225  0.00  0.00    +0.000 OA
ATOM     18  H   UNL     1      11.697  13.980  16.307  0.00  0.00    +0.000 HD
ENDROOT
BRANCH   7  19
ATOM     19  N   UNL     1       5.031  13.372  22.795  0.00  0.00    +0.000 NA
ATOM     20  H   UNL     1       4.493  13.307  21.934  0.00  0.00    +0.000 HD
ATOM     21  H   UNL     1       4.990  14.356  23.074  0.00  0.00    +0.000 HD
ENDBRANCH   7  19
BRANCH   1  22
ATOM     22  C   UNL     1       9.975  11.431  20.498  0.00  0.00    +0.000 C 
BRANCH  22  25
ATOM     23  C   UNL     1       8.008   8.791  17.664  0.00  0.00    +0.000 C 
ATOM     24  C   UNL     1       8.697   9.714  18.656  0.00  0.00    +0.000 C 
ATOM     25  C   UNL     1       9.287  10.507  19.507  0.00  0.00    +0.000 C 
ENDBRANCH  22  25
ENDBRANCH   1  22
TORSDOF 3
ENDMDL
MODEL 7
REMARK VINA RESULT:      -5.7      6.523      8.584
REMARK  Name = 
REMARK  4 active torsions:
REMARK  status: ('A' for Active; 'I' for Inactive)
REMARK    1  A    between atoms: C_1  and  C_2
REMARK    2  A    between atoms: C_3  and  C_4
REMARK    3  A    between atoms: C_4  and  N_5
REMARK    4  A    between atoms: C_11  and  N_12
REMARK                            x       y       z     vdW  Elec       q    Type
REMARK                         _______ _______ _______ _____ _____    ______ ____
ROOT
ATOM      1  N   UNL     1      -1.119  12.311  20.580  0.00  0.00    +0.000 N 
ATOM      2  C   UNL     1      -2.488  12.655  20.722  0.00  0.00    +0.000 A 
ATOM      3  N   UNL     1      -2.914  13.219  21.923  0.00  0.00    +0.000 N 
ATOM      4  C   UNL     1      -2.459  14.519  22.407  0.00  0.00    +0.000 C 
ATOM      5  C   UNL     1      -2.085  14.398  23.888  0.00  0.00    +0.000 C 
ATOM      6  C   UNL     1      -3.226  13.814  24.729  0.00  0.00    +0.000 C 
ATOM      7  C   UNL     1      -3.880  12.572  24.092  0.00  0.00    +0.000 C 
ATOM      8  C   UNL     1      -4.156  12.769  22.575  0.00  0.00    +0.000 C 
ATOM      9  N   UNL     1      -3.382  12.421  19.787  0.00  0.00    +0.000 NA
ATOM     10  C   UNL     1      -2.904  11.805  18.630  0.00  0.00    +0.000 A 
ATOM     11  C   UNL     1      -3.600  11.390  17.485  0.00  0.00    +0.000 A 
ATOM     12 BR   UNL     1      -5.438  11.574  17.192  0.00  0.00    +0.000 Br
ATOM     13  C   UNL     1      -2.686  10.815  16.625  0.00  0.00    +0.000 A 
ATOM     14  N   UNL     1      -1.454  10.878  17.231  0.00  0.00    +0.000 N 
ATOM     15  C   UNL     1      -1.594  11.478  18.453  0.00  0.00    +0.000 A 
ATOM     16  C   UNL     1      -0.598  11.720  19.430  0.00  0.00    +0.000 A 
ATOM     17  O   UNL     1       0.578  11.416  19.256  0.00  0.00    +0.000 OA
ATOM     18  H   UNL     1      -0.578  10.528  16.855  0.00  0.00    +0.000 HD
ENDROOT
BRANCH   7  19
ATOM     19  N   UNL     1      -5.040  12.137  24.880  0.00  0.00    +0.000 NA
ATOM     20  H   UNL     1      -5.521  11.382  24.400  0.00  0.00    +0.000 HD
ATOM     21  H   UNL     1      -5.710  12.910  24.926  0.00  0.00    +0.000 HD
ENDBRANCH   7  19
BRANCH   1  22
ATOM     22  C   UNL     1      -0.209  12.371  21.702  0.00  0.00    +0.000 C 
BRANCH  22  25
ATOM     23  C   UNL     1       2.387  15.831  21.310  0.00  0.00    +0.000 C 
ATOM     24  C   UNL     1       1.479  14.620  21.447  0.00  0.00    +0.000 C 
ATOM     25  C   UNL     1       0.700  13.581  21.565  0.00  0.00    +0.000 C 
ENDBRANCH  22  25
ENDBRANCH   1  22
TORSDOF 3
ENDMDL
MODEL 8
REMARK VINA RESULT:      -5.7      7.114      9.546
REMARK  Name = 
REMARK  4 active torsions:
REMARK  status: ('A' for Active; 'I' for Inactive)
REMARK    1  A    between atoms: C_1  and  C_2
REMARK    2  A    between atoms: C_3  and  C_4
REMARK    3  A    between atoms: C_4  and  N_5
REMARK    4  A    between atoms: C_11  and  N_12
REMARK                            x       y       z     vdW  Elec       q    Type
REMARK                         _______ _______ _______ _____ _____    ______ ____
ROOT
ATOM      1  N   UNL     1      -2.933  13.851  23.104  0.00  0.00    +0.000 N 
ATOM      2  C   UNL     1      -3.268  12.872  22.135  0.00  0.00    +0.000 A 
ATOM      3  N   UNL     1      -2.257  12.364  21.320  0.00  0.00    +0.000 N 
ATOM      4  C   UNL     1      -1.129  11.587  21.827  0.00  0.00    +0.000 C 
ATOM      5  C   UNL     1       0.164  12.115  21.199  0.00  0.00    +0.000 C 
ATOM      6  C   UNL     1       0.098  12.141  19.668  0.00  0.00    +0.000 C 
ATOM      7  C   UNL     1      -1.214  12.742  19.124  0.00  0.00    +0.000 C 
ATOM      8  C   UNL     1      -2.462  12.196  19.871  0.00  0.00    +0.000 C 
ATOM      9  N   UNL     1      -4.499  12.456  21.939  0.00  0.00    +0.000 NA
ATOM     10  C   UNL     1      -5.474  13.040  22.748  0.00  0.00    +0.000 A 
ATOM     11  C   UNL     1      -6.863  12.847  22.757  0.00  0.00    +0.000 A 
ATOM     12 BR   UNL     1      -7.816  11.688  21.640  0.00  0.00    +0.000 Br
ATOM     13  C   UNL     1      -7.395  13.671  23.728  0.00  0.00    +0.000 A 
ATOM     14  N   UNL     1      -6.351  14.355  24.304  0.00  0.00    +0.000 N 
ATOM     15  C   UNL     1      -5.185  13.970  23.700  0.00  0.00    +0.000 A 
ATOM     16  C   UNL     1      -3.872  14.439  23.949  0.00  0.00    +0.000 A 
ATOM     17  O   UNL     1      -3.629  15.280  24.809  0.00  0.00    +0.000 OA
ATOM     18  H   UNL     1      -6.418  15.047  25.045  0.00  0.00    +0.000 HD
ENDROOT
BRANCH   7  19
ATOM     19  N   UNL     1      -1.268  12.625  17.662  0.00  0.00    +0.000 NA
ATOM     20  H   UNL     1      -2.185  12.909  17.325  0.00  0.00    +0.000 HD
ATOM     21  H   UNL     1      -1.172  11.638  17.410  0.00  0.00    +0.000 HD
ENDBRANCH   7  19
BRANCH   1  22
ATOM     22  C   UNL     1      -1.617  14.452  23.142  0.00  0.00    +0.000 C 
BRANCH  22  25
ATOM     23  C   UNL     1      -1.084  17.047  19.699  0.00  0.00    +0.000 C 
ATOM     24  C   UNL     1      -1.271  16.139  20.904  0.00  0.00    +0.000 C 
ATOM     25  C   UNL     1      -1.430  15.360  21.937  0.00  0.00    +0.000 C 
ENDBRANCH  22  25
ENDBRANCH   1  22
TORSDOF 3
ENDMDL
MODEL 9
REMARK VINA RESULT:      -5.6      4.305      6.574
REMARK  Name = 
REMARK  4 active torsions:
REMARK  status: ('A' for Active; 'I' for Inactive)
REMARK    1  A    between atoms: C_1  and  C_2
REMARK    2  A    between atoms: C_3  and  C_4
REMARK    3  A    between atoms: C_4  and  N_5
REMARK    4  A    between atoms: C_11  and  N_12
REMARK                            x       y       z     vdW  Elec       q    Type
REMARK                         _______ _______ _______ _____ _____    ______ ____
ROOT
ATOM      1  N   UNL     1      -2.494  10.888  18.682  0.00  0.00    +0.000 N 
ATOM      2  C   UNL     1      -1.418  11.367  19.472  0.00  0.00    +0.000 A 
ATOM      3  N   UNL     1      -0.211  10.671  19.449  0.00  0.00    +0.000 N 
ATOM      4  C   UNL     1       0.623  10.544  18.257  0.00  0.00    +0.000 C 
ATOM      5  C   UNL     1       1.063   9.085  18.108  0.00  0.00    +0.000 C 
ATOM      6  C   UNL     1       1.747   8.553  19.372  0.00  0.00    +0.000 C 
ATOM      7  C   UNL     1       0.990   8.903  20.669  0.00  0.00    +0.000 C 
ATOM      8  C   UNL     1       0.525  10.386  20.694  0.00  0.00    +0.000 C 
ATOM      9  N   UNL     1      -1.525  12.412  20.262  0.00  0.00    +0.000 NA
ATOM     10  C   UNL     1      -2.774  13.034  20.282  0.00  0.00    +0.000 A 
ATOM     11  C   UNL     1      -3.217  14.127  21.040  0.00  0.00    +0.000 A 
ATOM     12 BR   UNL     1      -2.194  15.095  22.272  0.00  0.00    +0.000 Br
ATOM     13  C   UNL     1      -4.540  14.351  20.719  0.00  0.00    +0.000 A 
ATOM     14  N   UNL     1      -4.901  13.413  19.781  0.00  0.00    +0.000 N 
ATOM     15  C   UNL     1      -3.823  12.611  19.523  0.00  0.00    +0.000 A 
ATOM     16  C   UNL     1      -3.748  11.496  18.653  0.00  0.00    +0.000 A 
ATOM     17  O   UNL     1      -4.703  11.126  17.978  0.00  0.00    +0.000 OA
ATOM     18  H   UNL     1      -5.816  13.309  19.353  0.00  0.00    +0.000 HD
ENDROOT
BRANCH   7  19
ATOM     19  N   UNL     1       1.755   8.475  21.846  0.00  0.00    +0.000 NA
ATOM     20  H   UNL     1       1.801   7.460  21.880  0.00  0.00    +0.000 HD
ATOM     21  H   UNL     1       1.245   8.759  22.687  0.00  0.00    +0.000 HD
ENDBRANCH   7  19
BRANCH   1  22
ATOM     22  C   UNL     1      -2.418   9.613  18.002  0.00  0.00    +0.000 C 
BRANCH  22  25
ATOM     23  C   UNL     1      -3.216  10.153  13.766  0.00  0.00    +0.000 C 
ATOM     24  C   UNL     1      -2.938   9.964  15.248  0.00  0.00    +0.000 C 
ATOM     25  C   UNL     1      -2.698   9.803  16.520  0.00  0.00    +0.000 C 
ENDBRANCH  22  25
ENDBRANCH   1  22
TORSDOF 3
ENDMDL
