MODEL 1
REMARK VINA RESULT:      -9.0      0.000      0.000
REMARK  Name = 
REMARK  6 active torsions:
REMARK  status: ('A' for Active; 'I' for Inactive)
REMARK    1  A    between atoms: C_1  and  C_2
REMARK    2  A    between atoms: C_2  and  N_4
REMARK    3  A    between atoms: N_4  and  C_5
REMARK    4  A    between atoms: C_5  and  C_6
REMARK    5  A    between atoms: N_8  and  C_9
REMARK    6  A    between atoms: C_12  and  C_13
REMARK                            x       y       z     vdW  Elec       q    Type
REMARK                         _______ _______ _______ _____ _____    ______ ____
ROOT
ATOM      1  C   UNL     1       0.597   9.728  20.624  0.00  0.00    +0.000 A 
ATOM      2  C   UNL     1       1.022   8.528  21.199  0.00  0.00    +0.000 A 
ATOM      3  C   UNL     1       1.719   7.565  20.464  0.00  0.00    +0.000 A 
ATOM      4  C   UNL     1       2.060   7.764  19.120  0.00  0.00    +0.000 A 
ATOM      5  C   UNL     1       1.631   8.976  18.552  0.00  0.00    +0.000 A 
ATOM      6  F   UNL     1       1.915   9.265  17.272  0.00  0.00    +0.000 F 
ATOM      7  C   UNL     1       0.907   9.939  19.277  0.00  0.00    +0.000 A 
ENDROOT
BRANCH   4   8
ATOM      8  C   UNL     1       2.828   6.733  18.382  0.00  0.00    +0.000 A 
ATOM      9  C   UNL     1       2.393   5.389  18.348  0.00  0.00    +0.000 A 
ATOM     10  C   UNL     1       3.087   4.404  17.640  0.00  0.00    +0.000 A 
ATOM     11  C   UNL     1       4.259   4.730  16.974  0.00  0.00    +0.000 A 
ATOM     12  C   UNL     1       4.713   6.048  16.987  0.00  0.00    +0.000 A 
ATOM     13  C   UNL     1       4.000   7.042  17.668  0.00  0.00    +0.000 A 
ATOM     14  N   UNL     1       5.875   6.390  16.298  0.00  0.00    +0.000 N 
ATOM     15  C   UNL     1       6.653   5.441  15.702  0.00  0.00    +0.000 C 
ATOM     16  O   UNL     1       7.671   5.744  15.081  0.00  0.00    +0.000 OA
ATOM     17  C   UNL     1       6.222   3.995  15.940  0.00  0.00    +0.000 C 
ATOM     18  O   UNL     1       4.876   3.718  16.293  0.00  0.00    +0.000 OA
ATOM     19  H   UNL     1       6.183   7.350  16.227  0.00  0.00    +0.000 HD
ENDBRANCH   4   8
BRANCH   1  22
ATOM     20  C   UNL     1      -1.806  12.182  21.928  0.00  0.00    +0.000 C 
ATOM     21  C   UNL     1      -0.840  11.792  20.827  0.00  0.00    +0.000 C 
ATOM     22  N   UNL     1      -0.157  10.661  21.381  0.00  0.00    +0.000 N 
ATOM     23  C   UNL     1      -0.360  10.618  22.752  0.00  0.00    +0.000 C 
ATOM     24  O   UNL     1       0.186   9.917  23.588  0.00  0.00    +0.000 OA
ATOM     25  O   UNL     1      -1.316  11.525  23.108  0.00  0.00    +0.000 OA
BRANCH  20  26
ATOM     26  C   UNL     1      -1.870  13.677  22.242  0.00  0.00    +0.000 C 
BRANCH  26  27
ATOM     27  N   UNL     1      -1.465  13.929  23.632  0.00  0.00    +0.000 N 
ATOM     28  H   UNL     1      -0.513  13.668  23.874  0.00  0.00    +0.000 HD
BRANCH  27  30
ATOM     29  C   UNL     1      -3.644  14.690  24.341  0.00  0.00    +0.000 C 
ATOM     30  C   UNL     1      -2.146  14.697  24.553  0.00  0.00    +0.000 C 
ATOM     31  S   UNL     1      -1.452  15.579  25.789  0.00  0.00    +0.000 S 
ENDBRANCH  27  30
ENDBRANCH  26  27
ENDBRANCH  20  26
ENDBRANCH   1  22
TORSDOF 5
ENDMDL
MODEL 2
REMARK VINA RESULT:      -8.9      2.193      2.567
REMARK  Name = 
REMARK  6 active torsions:
REMARK  status: ('A' for Active; 'I' for Inactive)
REMARK    1  A    between atoms: C_1  and  C_2
REMARK    2  A    between atoms: C_2  and  N_4
REMARK    3  A    between atoms: N_4  and  C_5
REMARK    4  A    between atoms: C_5  and  C_6
REMARK    5  A    between atoms: N_8  and  C_9
REMARK    6  A    between atoms: C_12  and  C_13
REMARK                            x       y       z     vdW  Elec       q    Type
REMARK                         _______ _______ _______ _____ _____    ______ ____
ROOT
ATOM      1  C   UNL     1       0.655  10.193  19.728  0.00  0.00    +0.000 A 
ATOM      2  C   UNL     1       1.116  10.209  18.409  0.00  0.00    +0.000 A 
ATOM      3  C   UNL     1       1.864   9.154  17.877  0.00  0.00    +0.000 A 
ATOM      4  C   UNL     1       2.163   8.009  18.626  0.00  0.00    +0.000 A 
ATOM      5  C   UNL     1       1.691   8.001  19.949  0.00  0.00    +0.000 A 
ATOM      6  F   UNL     1       1.920   6.945  20.746  0.00  0.00    +0.000 F 
ATOM      7  C   UNL     1       0.961   9.069  20.501  0.00  0.00    +0.000 A 
ENDROOT
BRANCH   4   8
ATOM      8  C   UNL     1       2.931   6.896  18.016  0.00  0.00    +0.000 A 
ATOM      9  C   UNL     1       2.489   5.560  18.133  0.00  0.00    +0.000 A 
ATOM     10  C   UNL     1       3.182   4.497  17.547  0.00  0.00    +0.000 A 
ATOM     11  C   UNL     1       4.361   4.739  16.857  0.00  0.00    +0.000 A 
ATOM     12  C   UNL     1       4.823   6.048  16.723  0.00  0.00    +0.000 A 
ATOM     13  C   UNL     1       4.110   7.116  17.282  0.00  0.00    +0.000 A 
ATOM     14  N   UNL     1       5.991   6.302  16.010  0.00  0.00    +0.000 N 
ATOM     15  C   UNL     1       6.769   5.288  15.532  0.00  0.00    +0.000 C 
ATOM     16  O   UNL     1       7.792   5.514  14.889  0.00  0.00    +0.000 OA
ATOM     17  C   UNL     1       6.327   3.881  15.930  0.00  0.00    +0.000 C 
ATOM     18  O   UNL     1       4.977   3.653  16.302  0.00  0.00    +0.000 OA
ATOM     19  H   UNL     1       6.305   7.247  15.833  0.00  0.00    +0.000 HD
ENDBRANCH   4   8
BRANCH   1  22
ATOM     20  C   UNL     1      -1.782  12.548  21.148  0.00  0.00    +0.000 C 
ATOM     21  C   UNL     1      -1.455  11.535  20.068  0.00  0.00    +0.000 C 
ATOM     22  N   UNL     1      -0.053  11.302  20.256  0.00  0.00    +0.000 N 
ATOM     23  C   UNL     1       0.487  12.312  21.038  0.00  0.00    +0.000 C 
ATOM     24  O   UNL     1       1.658  12.556  21.275  0.00  0.00    +0.000 OA
ATOM     25  O   UNL     1      -0.512  13.079  21.561  0.00  0.00    +0.000 OA
BRANCH  20  26
ATOM     26  C   UNL     1      -2.637  13.731  20.696  0.00  0.00    +0.000 C 
BRANCH  26  27
ATOM     27  N   UNL     1      -3.849  13.258  20.012  0.00  0.00    +0.000 N 
ATOM     28  H   UNL     1      -3.717  12.893  19.073  0.00  0.00    +0.000 HD
BRANCH  27  30
ATOM     29  C   UNL     1      -6.123  12.551  19.612  0.00  0.00    +0.000 C 
ATOM     30  C   UNL     1      -5.079  13.033  20.594  0.00  0.00    +0.000 C 
ATOM     31  S   UNL     1      -5.448  13.260  22.206  0.00  0.00    +0.000 S 
ENDBRANCH  27  30
ENDBRANCH  26  27
ENDBRANCH  20  26
ENDBRANCH   1  22
TORSDOF 5
ENDMDL
MODEL 3
REMARK VINA RESULT:      -8.9      1.842      2.243
REMARK  Name = 
REMARK  6 active torsions:
REMARK  status: ('A' for Active; 'I' for Inactive)
REMARK    1  A    between atoms: C_1  and  C_2
REMARK    2  A    between atoms: C_2  and  N_4
REMARK    3  A    between atoms: N_4  and  C_5
REMARK    4  A    between atoms: C_5  and  C_6
REMARK    5  A    between atoms: N_8  and  C_9
REMARK    6  A    between atoms: C_12  and  C_13
REMARK                            x       y       z     vdW  Elec       q    Type
REMARK                         _______ _______ _______ _____ _____    ______ ____
ROOT
ATOM      1  C   UNL     1       0.660  10.097  19.698  0.00  0.00    +0.000 A 
ATOM      2  C   UNL     1       1.130  10.119  18.382  0.00  0.00    +0.000 A 
ATOM      3  C   UNL     1       1.892   9.072  17.854  0.00  0.00    +0.000 A 
ATOM      4  C   UNL     1       2.199   7.930  18.604  0.00  0.00    +0.000 A 
ATOM      5  C   UNL     1       1.718   7.916  19.924  0.00  0.00    +0.000 A 
ATOM      6  F   UNL     1       1.953   6.861  20.721  0.00  0.00    +0.000 F 
ATOM      7  C   UNL     1       0.973   8.975  20.472  0.00  0.00    +0.000 A 
ENDROOT
BRANCH   4   8
ATOM      8  C   UNL     1       2.983   6.826  17.998  0.00  0.00    +0.000 A 
ATOM      9  C   UNL     1       2.575   5.481  18.146  0.00  0.00    +0.000 A 
ATOM     10  C   UNL     1       3.284   4.425  17.565  0.00  0.00    +0.000 A 
ATOM     11  C   UNL     1       4.443   4.684  16.849  0.00  0.00    +0.000 A 
ATOM     12  C   UNL     1       4.870   6.001  16.684  0.00  0.00    +0.000 A 
ATOM     13  C   UNL     1       4.142   7.061  17.238  0.00  0.00    +0.000 A 
ATOM     14  N   UNL     1       6.018   6.272  15.945  0.00  0.00    +0.000 N 
ATOM     15  C   UNL     1       6.812   5.269  15.470  0.00  0.00    +0.000 C 
ATOM     16  O   UNL     1       7.817   5.508  14.804  0.00  0.00    +0.000 OA
ATOM     17  C   UNL     1       6.412   3.858  15.899  0.00  0.00    +0.000 C 
ATOM     18  O   UNL     1       5.075   3.604  16.300  0.00  0.00    +0.000 OA
ATOM     19  H   UNL     1       6.306   7.221  15.746  0.00  0.00    +0.000 HD
ENDBRANCH   4   8
BRANCH   1  22
ATOM     20  C   UNL     1      -0.509  13.154  21.365  0.00  0.00    +0.000 C 
ATOM     21  C   UNL     1       0.215  11.827  21.479  0.00  0.00    +0.000 C 
ATOM     22  N   UNL     1      -0.063  11.198  20.222  0.00  0.00    +0.000 N 
ATOM     23  C   UNL     1      -1.127  11.838  19.604  0.00  0.00    +0.000 C 
ATOM     24  O   UNL     1      -1.760  11.499  18.618  0.00  0.00    +0.000 OA
ATOM     25  O   UNL     1      -1.428  12.988  20.273  0.00  0.00    +0.000 OA
BRANCH  20  26
ATOM     26  C   UNL     1      -1.334  13.555  22.587  0.00  0.00    +0.000 C 
BRANCH  26  27
ATOM     27  N   UNL     1      -2.249  12.471  22.970  0.00  0.00    +0.000 N 
ATOM     28  H   UNL     1      -1.813  11.611  23.291  0.00  0.00    +0.000 HD
BRANCH  27  30
ATOM     29  C   UNL     1      -4.390  12.748  21.886  0.00  0.00    +0.000 C 
ATOM     30  C   UNL     1      -3.609  12.585  23.172  0.00  0.00    +0.000 C 
ATOM     31  S   UNL     1      -4.377  12.566  24.653  0.00  0.00    +0.000 S 
ENDBRANCH  27  30
ENDBRANCH  26  27
ENDBRANCH  20  26
ENDBRANCH   1  22
TORSDOF 5
ENDMDL
MODEL 4
REMARK VINA RESULT:      -8.8      1.949      2.180
REMARK  Name = 
REMARK  6 active torsions:
REMARK  status: ('A' for Active; 'I' for Inactive)
REMARK    1  A    between atoms: C_1  and  C_2
REMARK    2  A    between atoms: C_2  and  N_4
REMARK    3  A    between atoms: N_4  and  C_5
REMARK    4  A    between atoms: C_5  and  C_6
REMARK    5  A    between atoms: N_8  and  C_9
REMARK    6  A    between atoms: C_12  and  C_13
REMARK                            x       y       z     vdW  Elec       q    Type
REMARK                         _______ _______ _______ _____ _____    ______ ____
ROOT
ATOM      1  C   UNL     1       0.754  10.090  19.863  0.00  0.00    +0.000 A 
ATOM      2  C   UNL     1       1.201  10.137  18.540  0.00  0.00    +0.000 A 
ATOM      3  C   UNL     1       1.935   9.091  17.973  0.00  0.00    +0.000 A 
ATOM      4  C   UNL     1       2.234   7.925  18.689  0.00  0.00    +0.000 A 
ATOM      5  C   UNL     1       1.777   7.886  20.016  0.00  0.00    +0.000 A 
ATOM      6  F   UNL     1       2.006   6.808  20.783  0.00  0.00    +0.000 F 
ATOM      7  C   UNL     1       1.060   8.944  20.603  0.00  0.00    +0.000 A 
ENDROOT
BRANCH   4   8
ATOM      8  C   UNL     1       2.988   6.823  18.042  0.00  0.00    +0.000 A 
ATOM      9  C   UNL     1       2.546   5.485  18.142  0.00  0.00    +0.000 A 
ATOM     10  C   UNL     1       3.225   4.433  17.522  0.00  0.00    +0.000 A 
ATOM     11  C   UNL     1       4.390   4.686  16.813  0.00  0.00    +0.000 A 
ATOM     12  C   UNL     1       4.851   5.997  16.695  0.00  0.00    +0.000 A 
ATOM     13  C   UNL     1       4.152   7.055  17.288  0.00  0.00    +0.000 A 
ATOM     14  N   UNL     1       6.005   6.264  15.963  0.00  0.00    +0.000 N 
ATOM     15  C   UNL     1       6.771   5.258  15.450  0.00  0.00    +0.000 C 
ATOM     16  O   UNL     1       7.782   5.494  14.791  0.00  0.00    +0.000 OA
ATOM     17  C   UNL     1       6.335   3.844  15.830  0.00  0.00    +0.000 C 
ATOM     18  O   UNL     1       4.992   3.610  16.225  0.00  0.00    +0.000 OA
ATOM     19  H   UNL     1       6.318   7.211  15.797  0.00  0.00    +0.000 HD
ENDBRANCH   4   8
BRANCH   1  22
ATOM     20  C   UNL     1      -1.605  12.395  21.482  0.00  0.00    +0.000 C 
ATOM     21  C   UNL     1      -1.366  11.342  20.418  0.00  0.00    +0.000 C 
ATOM     22  N   UNL     1       0.059  11.190  20.427  0.00  0.00    +0.000 N 
ATOM     23  C   UNL     1       0.639  12.267  21.080  0.00  0.00    +0.000 C 
ATOM     24  O   UNL     1       1.816  12.583  21.145  0.00  0.00    +0.000 OA
ATOM     25  O   UNL     1      -0.325  13.011  21.694  0.00  0.00    +0.000 OA
BRANCH  20  26
ATOM     26  C   UNL     1      -2.578  13.507  21.092  0.00  0.00    +0.000 C 
BRANCH  26  27
ATOM     27  N   UNL     1      -3.385  13.915  22.251  0.00  0.00    +0.000 N 
ATOM     28  H   UNL     1      -3.260  14.873  22.566  0.00  0.00    +0.000 HD
BRANCH  27  30
ATOM     29  C   UNL     1      -4.198  12.729  24.191  0.00  0.00    +0.000 C 
ATOM     30  C   UNL     1      -4.453  13.225  22.785  0.00  0.00    +0.000 C 
ATOM     31  S   UNL     1      -5.899  12.919  22.009  0.00  0.00    +0.000 S 
ENDBRANCH  27  30
ENDBRANCH  26  27
ENDBRANCH  20  26
ENDBRANCH   1  22
TORSDOF 5
ENDMDL
MODEL 5
REMARK VINA RESULT:      -8.7      0.943      1.010
REMARK  Name = 
REMARK  6 active torsions:
REMARK  status: ('A' for Active; 'I' for Inactive)
REMARK    1  A    between atoms: C_1  and  C_2
REMARK    2  A    between atoms: C_2  and  N_4
REMARK    3  A    between atoms: N_4  and  C_5
REMARK    4  A    between atoms: C_5  and  C_6
REMARK    5  A    between atoms: N_8  and  C_9
REMARK    6  A    between atoms: C_12  and  C_13
REMARK                            x       y       z     vdW  Elec       q    Type
REMARK                         _______ _______ _______ _____ _____    ______ ____
ROOT
ATOM      1  C   UNL     1       0.778   9.457  20.625  0.00  0.00    +0.000 A 
ATOM      2  C   UNL     1       1.189   8.231  21.155  0.00  0.00    +0.000 A 
ATOM      3  C   UNL     1       1.878   7.290  20.384  0.00  0.00    +0.000 A 
ATOM      4  C   UNL     1       2.224   7.537  19.049  0.00  0.00    +0.000 A 
ATOM      5  C   UNL     1       1.809   8.775  18.528  0.00  0.00    +0.000 A 
ATOM      6  F   UNL     1       2.098   9.110  17.260  0.00  0.00    +0.000 F 
ATOM      7  C   UNL     1       1.093   9.716  19.288  0.00  0.00    +0.000 A 
ENDROOT
BRANCH   4   8
ATOM      8  C   UNL     1       2.984   6.527  18.273  0.00  0.00    +0.000 A 
ATOM      9  C   UNL     1       2.573   5.176  18.244  0.00  0.00    +0.000 A 
ATOM     10  C   UNL     1       3.259   4.210  17.502  0.00  0.00    +0.000 A 
ATOM     11  C   UNL     1       4.398   4.564  16.795  0.00  0.00    +0.000 A 
ATOM     12  C   UNL     1       4.828   5.891  16.802  0.00  0.00    +0.000 A 
ATOM     13  C   UNL     1       4.121   6.865  17.519  0.00  0.00    +0.000 A 
ATOM     14  N   UNL     1       5.955   6.260  16.073  0.00  0.00    +0.000 N 
ATOM     15  C   UNL     1       6.729   5.332  15.441  0.00  0.00    +0.000 C 
ATOM     16  O   UNL     1       7.716   5.660  14.785  0.00  0.00    +0.000 OA
ATOM     17  C   UNL     1       6.334   3.876  15.681  0.00  0.00    +0.000 C 
ATOM     18  O   UNL     1       5.008   3.570  16.083  0.00  0.00    +0.000 OA
ATOM     19  H   UNL     1       6.242   7.227  16.000  0.00  0.00    +0.000 HD
ENDBRANCH   4   8
BRANCH   1  22
ATOM     20  C   UNL     1      -1.646  11.824  22.046  0.00  0.00    +0.000 C 
ATOM     21  C   UNL     1      -0.734  11.460  20.891  0.00  0.00    +0.000 C 
ATOM     22  N   UNL     1       0.032  10.368  21.415  0.00  0.00    +0.000 N 
ATOM     23  C   UNL     1      -0.084  10.338  22.797  0.00  0.00    +0.000 C 
ATOM     24  O   UNL     1       0.544   9.674  23.606  0.00  0.00    +0.000 OA
ATOM     25  O   UNL     1      -1.054  11.207  23.201  0.00  0.00    +0.000 OA
BRANCH  20  26
ATOM     26  C   UNL     1      -1.756  13.319  22.344  0.00  0.00    +0.000 C 
BRANCH  26  27
ATOM     27  N   UNL     1      -3.142  13.677  22.678  0.00  0.00    +0.000 N 
ATOM     28  H   UNL     1      -3.849  12.982  22.453  0.00  0.00    +0.000 HD
BRANCH  27  30
ATOM     29  C   UNL     1      -2.391  15.419  24.172  0.00  0.00    +0.000 C 
ATOM     30  C   UNL     1      -3.543  14.729  23.475  0.00  0.00    +0.000 C 
ATOM     31  S   UNL     1      -5.118  15.231  23.704  0.00  0.00    +0.000 S 
ENDBRANCH  27  30
ENDBRANCH  26  27
ENDBRANCH  20  26
ENDBRANCH   1  22
TORSDOF 5
ENDMDL
MODEL 6
REMARK VINA RESULT:      -8.7      1.493      1.636
REMARK  Name = 
REMARK  6 active torsions:
REMARK  status: ('A' for Active; 'I' for Inactive)
REMARK    1  A    between atoms: C_1  and  C_2
REMARK    2  A    between atoms: C_2  and  N_4
REMARK    3  A    between atoms: N_4  and  C_5
REMARK    4  A    between atoms: C_5  and  C_6
REMARK    5  A    between atoms: N_8  and  C_9
REMARK    6  A    between atoms: C_12  and  C_13
REMARK                            x       y       z     vdW  Elec       q    Type
REMARK                         _______ _______ _______ _____ _____    ______ ____
ROOT
ATOM      1  C   UNL     1       0.743   9.493  20.654  0.00  0.00    +0.000 A 
ATOM      2  C   UNL     1       1.159   8.268  21.182  0.00  0.00    +0.000 A 
ATOM      3  C   UNL     1       1.848   7.328  20.409  0.00  0.00    +0.000 A 
ATOM      4  C   UNL     1       2.186   7.576  19.072  0.00  0.00    +0.000 A 
ATOM      5  C   UNL     1       1.766   8.812  18.552  0.00  0.00    +0.000 A 
ATOM      6  F   UNL     1       2.049   9.146  17.283  0.00  0.00    +0.000 F 
ATOM      7  C   UNL     1       1.051   9.752  19.315  0.00  0.00    +0.000 A 
ENDROOT
BRANCH   4   8
ATOM      8  C   UNL     1       2.945   6.567  18.294  0.00  0.00    +0.000 A 
ATOM      9  C   UNL     1       2.513   5.223  18.232  0.00  0.00    +0.000 A 
ATOM     10  C   UNL     1       3.198   4.260  17.486  0.00  0.00    +0.000 A 
ATOM     11  C   UNL     1       4.357   4.607  16.808  0.00  0.00    +0.000 A 
ATOM     12  C   UNL     1       4.807   5.926  16.849  0.00  0.00    +0.000 A 
ATOM     13  C   UNL     1       4.103   6.898  17.569  0.00  0.00    +0.000 A 
ATOM     14  N   UNL     1       5.955   6.289  16.149  0.00  0.00    +0.000 N 
ATOM     15  C   UNL     1       6.726   5.359  15.515  0.00  0.00    +0.000 C 
ATOM     16  O   UNL     1       7.732   5.683  14.885  0.00  0.00    +0.000 OA
ATOM     17  C   UNL     1       6.303   3.906  15.722  0.00  0.00    +0.000 C 
ATOM     18  O   UNL     1       4.964   3.616  16.091  0.00  0.00    +0.000 OA
ATOM     19  H   UNL     1       6.260   7.252  16.099  0.00  0.00    +0.000 HD
ENDBRANCH   4   8
BRANCH   1  22
ATOM     20  C   UNL     1      -1.663  11.880  22.072  0.00  0.00    +0.000 C 
ATOM     21  C   UNL     1      -0.734  11.521  20.929  0.00  0.00    +0.000 C 
ATOM     22  N   UNL     1      -0.002  10.402  21.447  0.00  0.00    +0.000 N 
ATOM     23  C   UNL     1      -0.149  10.346  22.825  0.00  0.00    +0.000 C 
ATOM     24  O   UNL     1       0.447   9.653  23.633  0.00  0.00    +0.000 OA
ATOM     25  O   UNL     1      -1.110  11.227  23.226  0.00  0.00    +0.000 OA
BRANCH  20  26
ATOM     26  C   UNL     1      -1.749  13.370  22.399  0.00  0.00    +0.000 C 
BRANCH  26  27
ATOM     27  N   UNL     1      -0.736  14.122  21.646  0.00  0.00    +0.000 N 
ATOM     28  H   UNL     1       0.169  13.671  21.543  0.00  0.00    +0.000 HD
BRANCH  27  30
ATOM     29  C   UNL     1      -1.906  16.230  21.510  0.00  0.00    +0.000 C 
ATOM     30  C   UNL     1      -0.960  15.239  20.869  0.00  0.00    +0.000 C 
ATOM     31  S   UNL     1      -0.301  15.525  19.362  0.00  0.00    +0.000 S 
ENDBRANCH  27  30
ENDBRANCH  26  27
ENDBRANCH  20  26
ENDBRANCH   1  22
TORSDOF 5
ENDMDL
MODEL 7
REMARK VINA RESULT:      -8.7      1.556      1.794
REMARK  Name = 
REMARK  6 active torsions:
REMARK  status: ('A' for Active; 'I' for Inactive)
REMARK    1  A    between atoms: C_1  and  C_2
REMARK    2  A    between atoms: C_2  and  N_4
REMARK    3  A    between atoms: N_4  and  C_5
REMARK    4  A    between atoms: C_5  and  C_6
REMARK    5  A    between atoms: N_8  and  C_9
REMARK    6  A    between atoms: C_12  and  C_13
REMARK                            x       y       z     vdW  Elec       q    Type
REMARK                         _______ _______ _______ _____ _____    ______ ____
ROOT
ATOM      1  C   UNL     1       0.714   9.343  20.575  0.00  0.00    +0.000 A 
ATOM      2  C   UNL     1       1.121   9.591  19.261  0.00  0.00    +0.000 A 
ATOM      3  C   UNL     1       1.868   8.660  18.532  0.00  0.00    +0.000 A 
ATOM      4  C   UNL     1       2.221   7.415  19.067  0.00  0.00    +0.000 A 
ATOM      5  C   UNL     1       1.804   7.174  20.387  0.00  0.00    +0.000 A 
ATOM      6  F   UNL     1       2.087   6.006  20.987  0.00  0.00    +0.000 F 
ATOM      7  C   UNL     1       1.075   8.114  21.136  0.00  0.00    +0.000 A 
ENDROOT
BRANCH   4   8
ATOM      8  C   UNL     1       2.987   6.441  18.252  0.00  0.00    +0.000 A 
ATOM      9  C   UNL     1       2.552   5.103  18.123  0.00  0.00    +0.000 A 
ATOM     10  C   UNL     1       3.243   4.172  17.341  0.00  0.00    +0.000 A 
ATOM     11  C   UNL     1       4.412   4.547  16.695  0.00  0.00    +0.000 A 
ATOM     12  C   UNL     1       4.865   5.861  16.802  0.00  0.00    +0.000 A 
ATOM     13  C   UNL     1       4.155   6.802  17.558  0.00  0.00    +0.000 A 
ATOM     14  N   UNL     1       6.023   6.253  16.134  0.00  0.00    +0.000 N 
ATOM     15  C   UNL     1       6.799   5.351  15.467  0.00  0.00    +0.000 C 
ATOM     16  O   UNL     1       7.814   5.699  14.865  0.00  0.00    +0.000 OA
ATOM     17  C   UNL     1       6.370   3.891  15.600  0.00  0.00    +0.000 C 
ATOM     18  O   UNL     1       5.025   3.588  15.939  0.00  0.00    +0.000 OA
ATOM     19  H   UNL     1       6.331   7.216  16.132  0.00  0.00    +0.000 HD
ENDBRANCH   4   8
BRANCH   1  22
ATOM     20  C   UNL     1      -1.600  11.903  21.835  0.00  0.00    +0.000 C 
ATOM     21  C   UNL     1      -0.687  11.437  20.718  0.00  0.00    +0.000 C 
ATOM     22  N   UNL     1       0.005  10.328  21.307  0.00  0.00    +0.000 N 
ATOM     23  C   UNL     1      -0.140  10.367  22.686  0.00  0.00    +0.000 C 
ATOM     24  O   UNL     1       0.432   9.706  23.537  0.00  0.00    +0.000 OA
ATOM     25  O   UNL     1      -1.067  11.306  23.029  0.00  0.00    +0.000 OA
BRANCH  20  26
ATOM     26  C   UNL     1      -1.630  13.414  22.065  0.00  0.00    +0.000 C 
BRANCH  26  27
ATOM     27  N   UNL     1      -2.663  13.764  23.049  0.00  0.00    +0.000 N 
ATOM     28  H   UNL     1      -2.328  14.125  23.938  0.00  0.00    +0.000 HD
BRANCH  27  30
ATOM     29  C   UNL     1      -4.875  13.309  23.906  0.00  0.00    +0.000 C 
ATOM     30  C   UNL     1      -4.015  13.887  22.804  0.00  0.00    +0.000 C 
ATOM     31  S   UNL     1      -4.699  14.577  21.446  0.00  0.00    +0.000 S 
ENDBRANCH  27  30
ENDBRANCH  26  27
ENDBRANCH  20  26
ENDBRANCH   1  22
TORSDOF 5
ENDMDL
MODEL 8
REMARK VINA RESULT:      -8.6      2.264      2.531
REMARK  Name = 
REMARK  6 active torsions:
REMARK  status: ('A' for Active; 'I' for Inactive)
REMARK    1  A    between atoms: C_1  and  C_2
REMARK    2  A    between atoms: C_2  and  N_4
REMARK    3  A    between atoms: N_4  and  C_5
REMARK    4  A    between atoms: C_5  and  C_6
REMARK    5  A    between atoms: N_8  and  C_9
REMARK    6  A    between atoms: C_12  and  C_13
REMARK                            x       y       z     vdW  Elec       q    Type
REMARK                         _______ _______ _______ _____ _____    ______ ____
ROOT
ATOM      1  C   UNL     1       0.797   9.998  19.708  0.00  0.00    +0.000 A 
ATOM      2  C   UNL     1       1.204  10.019  18.372  0.00  0.00    +0.000 A 
ATOM      3  C   UNL     1       1.950   8.978  17.812  0.00  0.00    +0.000 A 
ATOM      4  C   UNL     1       2.304   7.842  18.551  0.00  0.00    +0.000 A 
ATOM      5  C   UNL     1       1.887   7.829  19.893  0.00  0.00    +0.000 A 
ATOM      6  F   UNL     1       2.170   6.781  20.683  0.00  0.00    +0.000 F 
ATOM      7  C   UNL     1       1.159   8.883  20.471  0.00  0.00    +0.000 A 
ENDROOT
BRANCH   4   8
ATOM      8  C   UNL     1       3.069   6.743  17.914  0.00  0.00    +0.000 A 
ATOM      9  C   UNL     1       2.651   5.399  18.040  0.00  0.00    +0.000 A 
ATOM     10  C   UNL     1       3.341   4.349  17.429  0.00  0.00    +0.000 A 
ATOM     11  C   UNL     1       4.494   4.611  16.703  0.00  0.00    +0.000 A 
ATOM     12  C   UNL     1       4.931   5.927  16.559  0.00  0.00    +0.000 A 
ATOM     13  C   UNL     1       4.220   6.982  17.144  0.00  0.00    +0.000 A 
ATOM     14  N   UNL     1       6.072   6.202  15.810  0.00  0.00    +0.000 N 
ATOM     15  C   UNL     1       6.850   5.201  15.305  0.00  0.00    +0.000 C 
ATOM     16  O   UNL     1       7.849   5.444  14.630  0.00  0.00    +0.000 OA
ATOM     17  C   UNL     1       6.442   3.786  15.711  0.00  0.00    +0.000 C 
ATOM     18  O   UNL     1       5.108   3.536  16.124  0.00  0.00    +0.000 OA
ATOM     19  H   UNL     1       6.367   7.151  15.626  0.00  0.00    +0.000 HD
ENDBRANCH   4   8
BRANCH   1  22
ATOM     20  C   UNL     1      -1.644  12.323  21.170  0.00  0.00    +0.000 C 
ATOM     21  C   UNL     1      -1.309  11.343  20.063  0.00  0.00    +0.000 C 
ATOM     22  N   UNL     1       0.089  11.094  20.262  0.00  0.00    +0.000 N 
ATOM     23  C   UNL     1       0.625  12.076  21.083  0.00  0.00    +0.000 C 
ATOM     24  O   UNL     1       1.795  12.306  21.342  0.00  0.00    +0.000 OA
ATOM     25  O   UNL     1      -0.377  12.833  21.616  0.00  0.00    +0.000 OA
BRANCH  20  26
ATOM     26  C   UNL     1      -2.486  13.525  20.745  0.00  0.00    +0.000 C 
BRANCH  26  27
ATOM     27  N   UNL     1      -1.815  14.270  19.671  0.00  0.00    +0.000 N 
ATOM     28  H   UNL     1      -2.176  14.123  18.733  0.00  0.00    +0.000 HD
BRANCH  27  30
ATOM     29  C   UNL     1      -1.471  16.419  20.718  0.00  0.00    +0.000 C 
ATOM     30  C   UNL     1      -0.931  15.316  19.834  0.00  0.00    +0.000 C 
ATOM     31  S   UNL     1       0.586  15.425  19.146  0.00  0.00    +0.000 S 
ENDBRANCH  27  30
ENDBRANCH  26  27
ENDBRANCH  20  26
ENDBRANCH   1  22
TORSDOF 5
ENDMDL
MODEL 9
REMARK VINA RESULT:      -8.6      1.705      2.259
REMARK  Name = 
REMARK  6 active torsions:
REMARK  status: ('A' for Active; 'I' for Inactive)
REMARK    1  A    between atoms: C_1  and  C_2
REMARK    2  A    between atoms: C_2  and  N_4
REMARK    3  A    between atoms: N_4  and  C_5
REMARK    4  A    between atoms: C_5  and  C_6
REMARK    5  A    between atoms: N_8  and  C_9
REMARK    6  A    between atoms: C_12  and  C_13
REMARK                            x       y       z     vdW  Elec       q    Type
REMARK                         _______ _______ _______ _____ _____    ______ ____
ROOT
ATOM      1  C   UNL     1       0.676   9.455  20.476  0.00  0.00    +0.000 A 
ATOM      2  C   UNL     1       1.125   9.683  19.172  0.00  0.00    +0.000 A 
ATOM      3  C   UNL     1       1.879   8.733  18.476  0.00  0.00    +0.000 A 
ATOM      4  C   UNL     1       2.200   7.490  19.035  0.00  0.00    +0.000 A 
ATOM      5  C   UNL     1       1.742   7.270  20.345  0.00  0.00    +0.000 A 
ATOM      6  F   UNL     1       1.991   6.105  20.966  0.00  0.00    +0.000 F 
ATOM      7  C   UNL     1       1.004   8.228  21.062  0.00  0.00    +0.000 A 
ENDROOT
BRANCH   4   8
ATOM      8  C   UNL     1       2.975   6.496  18.254  0.00  0.00    +0.000 A 
ATOM      9  C   UNL     1       2.558   5.148  18.176  0.00  0.00    +0.000 A 
ATOM     10  C   UNL     1       3.259   4.199  17.428  0.00  0.00    +0.000 A 
ATOM     11  C   UNL     1       4.419   4.564  16.762  0.00  0.00    +0.000 A 
ATOM     12  C   UNL     1       4.856   5.887  16.818  0.00  0.00    +0.000 A 
ATOM     13  C   UNL     1       4.136   6.846  17.541  0.00  0.00    +0.000 A 
ATOM     14  N   UNL     1       6.006   6.269  16.131  0.00  0.00    +0.000 N 
ATOM     15  C   UNL     1       6.791   5.353  15.495  0.00  0.00    +0.000 C 
ATOM     16  O   UNL     1       7.799   5.692  14.876  0.00  0.00    +0.000 OA
ATOM     17  C   UNL     1       6.382   3.893  15.685  0.00  0.00    +0.000 C 
ATOM     18  O   UNL     1       5.043   3.586  16.041  0.00  0.00    +0.000 OA
ATOM     19  H   UNL     1       6.301   7.235  16.092  0.00  0.00    +0.000 HD
ENDBRANCH   4   8
BRANCH   1  22
ATOM     20  C   UNL     1      -1.646  12.051  21.646  0.00  0.00    +0.000 C 
ATOM     21  C   UNL     1      -0.718  11.557  20.553  0.00  0.00    +0.000 C 
ATOM     22  N   UNL     1      -0.040  10.459  21.176  0.00  0.00    +0.000 N 
ATOM     23  C   UNL     1      -0.206  10.527  22.551  0.00  0.00    +0.000 C 
ATOM     24  O   UNL     1       0.350   9.882  23.425  0.00  0.00    +0.000 OA
ATOM     25  O   UNL     1      -1.135  11.477  22.860  0.00  0.00    +0.000 OA
BRANCH  20  26
ATOM     26  C   UNL     1      -1.674  13.566  21.843  0.00  0.00    +0.000 C 
BRANCH  26  27
ATOM     27  N   UNL     1      -1.779  14.252  20.548  0.00  0.00    +0.000 N 
ATOM     28  H   UNL     1      -2.619  14.063  20.009  0.00  0.00    +0.000 HD
BRANCH  27  30
ATOM     29  C   UNL     1      -0.200  14.965  18.865  0.00  0.00    +0.000 C 
ATOM     30  C   UNL     1      -0.989  15.296  20.112  0.00  0.00    +0.000 C 
ATOM     31  S   UNL     1      -0.860  16.790  20.846  0.00  0.00    +0.000 S 
ENDBRANCH  27  30
ENDBRANCH  26  27
ENDBRANCH  20  26
ENDBRANCH   1  22
TORSDOF 5
ENDMDL
