MODEL 1
REMARK VINA RESULT:      -8.4      0.000      0.000
REMARK  Name = 
REMARK  7 active torsions:
REMARK  status: ('A' for Active; 'I' for Inactive)
REMARK    1  A    between atoms: C_2  and  C_3
REMARK    2  A    between atoms: C_3  and  C_4
REMARK    3  A    between atoms: C_4  and  C_5
REMARK    4  A    between atoms: C_14  and  O_15
REMARK    5  A    between atoms: N_19  and  C_20
REMARK    6  A    between atoms: C_25  and  C_26
REMARK    7  A    between atoms: C_26  and  O_28
REMARK                            x       y       z     vdW  Elec       q    Type
REMARK                         _______ _______ _______ _____ _____    ______ ____
ROOT
ATOM      1  C   UNL     1       1.988   2.533  20.333  0.00  0.00    +0.000 C 
ENDROOT
BRANCH   1   2
ATOM      2  C   UNL     1       2.570   2.760  18.987  0.00  0.00    +0.000 A 
ATOM      3  N   UNL     1       1.893   2.457  17.833  0.00  0.00    +0.000 NA
ATOM      4  N   UNL     1       2.638   2.839  16.797  0.00  0.00    +0.000 NA
ATOM      5  N   UNL     1       3.773   3.389  17.283  0.00  0.00    +0.000 N 
ATOM      6  C   UNL     1       3.769   3.355  18.664  0.00  0.00    +0.000 A 
ATOM      7  C   UNL     1       4.862   3.901  19.376  0.00  0.00    +0.000 A 
ATOM      8  C   UNL     1       5.895   4.433  18.706  0.00  0.00    +0.000 A 
ATOM      9  C   UNL     1       5.909   4.459  17.233  0.00  0.00    +0.000 A 
ATOM     10  C   UNL     1       6.989   5.007  16.538  0.00  0.00    +0.000 A 
ATOM     11  C   UNL     1       6.969   5.019  15.146  0.00  0.00    +0.000 A 
ATOM     12  C   UNL     1       5.887   4.497  14.435  0.00  0.00    +0.000 A 
ATOM     13  C   UNL     1       4.798   3.946  15.115  0.00  0.00    +0.000 A 
ATOM     14  C   UNL     1       4.821   3.929  16.511  0.00  0.00    +0.000 A 
BRANCH  11  15
ATOM     15  O   UNL     1       8.008   5.546  14.434  0.00  0.00    +0.000 OA
ATOM     16  H   UNL     1       7.689   5.811  13.556  0.00  0.00    +0.000 HD
ENDBRANCH  11  15
ENDBRANCH   1   2
BRANCH   1  17
ATOM     17  C   UNL     1       2.220   3.661  21.342  0.00  0.00    +0.000 C 
BRANCH  17  19
ATOM     18  O   UNL     1       0.387   4.880  20.411  0.00  0.00    +0.000 OA
ATOM     19  C   UNL     1       1.546   4.920  20.819  0.00  0.00    +0.000 C 
ATOM     20  N   UNL     1       2.343   6.055  20.821  0.00  0.00    +0.000 N 
ATOM     21  H   UNL     1       3.355   5.914  20.857  0.00  0.00    +0.000 HD
BRANCH  20  22
ATOM     22  C   UNL     1       1.900   7.356  20.434  0.00  0.00    +0.000 A 
ATOM     23  C   UNL     1       1.309   8.223  21.366  0.00  0.00    +0.000 A 
ATOM     24  C   UNL     1       0.784   9.461  20.987  0.00  0.00    +0.000 A 
ATOM     25  C   UNL     1       0.850   9.868  19.664  0.00  0.00    +0.000 A 
ATOM     26  C   UNL     1       1.484   9.056  18.725  0.00  0.00    +0.000 A 
ATOM     27  C   UNL     1       2.044   7.818  19.108  0.00  0.00    +0.000 A 
BRANCH  27  28
ATOM     28  C   UNL     1       2.731   6.988  18.087  0.00  0.00    +0.000 C 
ATOM     29  O   UNL     1       2.212   6.015  17.568  0.00  0.00    +0.000 OA
BRANCH  28  30
ATOM     30  O   UNL     1       4.006   7.361  17.837  0.00  0.00    +0.000 OA
ATOM     31  H   UNL     1       4.687   6.919  18.376  0.00  0.00    +0.000 HD
ENDBRANCH  28  30
ENDBRANCH  27  28
ENDBRANCH  20  22
ENDBRANCH  17  19
ENDBRANCH   1  17
TORSDOF 7
ENDMDL
MODEL 2
REMARK VINA RESULT:      -8.3      1.263      2.115
REMARK  Name = 
REMARK  7 active torsions:
REMARK  status: ('A' for Active; 'I' for Inactive)
REMARK    1  A    between atoms: C_2  and  C_3
REMARK    2  A    between atoms: C_3  and  C_4
REMARK    3  A    between atoms: C_4  and  C_5
REMARK    4  A    between atoms: C_14  and  O_15
REMARK    5  A    between atoms: N_19  and  C_20
REMARK    6  A    between atoms: C_25  and  C_26
REMARK    7  A    between atoms: C_26  and  O_28
REMARK                            x       y       z     vdW  Elec       q    Type
REMARK                         _______ _______ _______ _____ _____    ______ ____
ROOT
ATOM      1  C   UNL     1       2.519   2.941  20.880  0.00  0.00    +0.000 C 
ENDROOT
BRANCH   1   2
ATOM      2  C   UNL     1       3.008   3.024  19.483  0.00  0.00    +0.000 A 
ATOM      3  N   UNL     1       2.300   2.515  18.424  0.00  0.00    +0.000 NA
ATOM      4  N   UNL     1       2.956   2.806  17.301  0.00  0.00    +0.000 NA
ATOM      5  N   UNL     1       4.064   3.502  17.637  0.00  0.00    +0.000 N 
ATOM      6  C   UNL     1       4.135   3.659  19.008  0.00  0.00    +0.000 A 
ATOM      7  C   UNL     1       5.214   4.379  19.570  0.00  0.00    +0.000 A 
ATOM      8  C   UNL     1       6.163   4.890  18.771  0.00  0.00    +0.000 A 
ATOM      9  C   UNL     1       6.097   4.714  17.310  0.00  0.00    +0.000 A 
ATOM     10  C   UNL     1       7.089   5.242  16.482  0.00  0.00    +0.000 A 
ATOM     11  C   UNL     1       6.995   5.060  15.104  0.00  0.00    +0.000 A 
ATOM     12  C   UNL     1       5.926   4.364  14.539  0.00  0.00    +0.000 A 
ATOM     13  C   UNL     1       4.924   3.831  15.354  0.00  0.00    +0.000 A 
ATOM     14  C   UNL     1       5.021   4.008  16.736  0.00  0.00    +0.000 A 
BRANCH  11  15
ATOM     15  O   UNL     1       7.948   5.561  14.264  0.00  0.00    +0.000 OA
ATOM     16  H   UNL     1       7.935   5.058  13.434  0.00  0.00    +0.000 HD
ENDBRANCH  11  15
ENDBRANCH   1   2
BRANCH   1  17
ATOM     17  C   UNL     1       2.375   4.285  21.602  0.00  0.00    +0.000 C 
BRANCH  17  19
ATOM     18  O   UNL     1       0.724   5.006  20.030  0.00  0.00    +0.000 OA
ATOM     19  C   UNL     1       1.758   5.284  20.636  0.00  0.00    +0.000 C 
ATOM     20  N   UNL     1       2.460   6.470  20.492  0.00  0.00    +0.000 N 
ATOM     21  H   UNL     1       3.446   6.466  20.767  0.00  0.00    +0.000 HD
BRANCH  20  22
ATOM     22  C   UNL     1       2.035   7.573  19.690  0.00  0.00    +0.000 A 
ATOM     23  C   UNL     1       2.408   7.669  18.341  0.00  0.00    +0.000 A 
ATOM     24  C   UNL     1       2.083   8.786  17.567  0.00  0.00    +0.000 A 
ATOM     25  C   UNL     1       1.363   9.832  18.124  0.00  0.00    +0.000 A 
ATOM     26  C   UNL     1       0.928   9.740  19.445  0.00  0.00    +0.000 A 
ATOM     27  C   UNL     1       1.226   8.601  20.222  0.00  0.00    +0.000 A 
BRANCH  27  28
ATOM     28  C   UNL     1       0.728   8.526  21.618  0.00  0.00    +0.000 C 
ATOM     29  O   UNL     1       1.416   8.818  22.582  0.00  0.00    +0.000 OA
BRANCH  28  30
ATOM     30  O   UNL     1      -0.527   8.038  21.733  0.00  0.00    +0.000 OA
ATOM     31  H   UNL     1      -0.616   7.226  22.267  0.00  0.00    +0.000 HD
ENDBRANCH  28  30
ENDBRANCH  27  28
ENDBRANCH  20  22
ENDBRANCH  17  19
ENDBRANCH   1  17
TORSDOF 7
ENDMDL
MODEL 3
REMARK VINA RESULT:      -8.3      5.611      7.498
REMARK  Name = 
REMARK  7 active torsions:
REMARK  status: ('A' for Active; 'I' for Inactive)
REMARK    1  A    between atoms: C_2  and  C_3
REMARK    2  A    between atoms: C_3  and  C_4
REMARK    3  A    between atoms: C_4  and  C_5
REMARK    4  A    between atoms: C_14  and  O_15
REMARK    5  A    between atoms: N_19  and  C_20
REMARK    6  A    between atoms: C_25  and  C_26
REMARK    7  A    between atoms: C_26  and  O_28
REMARK                            x       y       z     vdW  Elec       q    Type
REMARK                         _______ _______ _______ _____ _____    ______ ____
ROOT
ATOM      1  C   UNL     1       7.299   7.854  17.325  0.00  0.00    +0.000 C 
ENDROOT
BRANCH   1   2
ATOM      2  C   UNL     1       6.609   6.542  17.369  0.00  0.00    +0.000 A 
ATOM      3  N   UNL     1       7.285   5.351  17.279  0.00  0.00    +0.000 NA
ATOM      4  N   UNL     1       6.408   4.358  17.422  0.00  0.00    +0.000 NA
ATOM      5  N   UNL     1       5.189   4.907  17.611  0.00  0.00    +0.000 N 
ATOM      6  C   UNL     1       5.272   6.286  17.581  0.00  0.00    +0.000 A 
ATOM      7  C   UNL     1       4.104   7.058  17.779  0.00  0.00    +0.000 A 
ATOM      8  C   UNL     1       2.927   6.447  17.980  0.00  0.00    +0.000 A 
ATOM      9  C   UNL     1       2.832   4.977  18.000  0.00  0.00    +0.000 A 
ATOM     10  C   UNL     1       1.604   4.344  18.203  0.00  0.00    +0.000 A 
ATOM     11  C   UNL     1       1.549   2.952  18.219  0.00  0.00    +0.000 A 
ATOM     12  C   UNL     1       2.699   2.182  18.040  0.00  0.00    +0.000 A 
ATOM     13  C   UNL     1       3.935   2.800  17.838  0.00  0.00    +0.000 A 
ATOM     14  C   UNL     1       3.989   4.195  17.816  0.00  0.00    +0.000 A 
BRANCH  11  15
ATOM     15  O   UNL     1       0.365   2.299  18.414  0.00  0.00    +0.000 OA
ATOM     16  H   UNL     1      -0.327   2.736  17.891  0.00  0.00    +0.000 HD
ENDBRANCH  11  15
ENDBRANCH   1   2
BRANCH   1  17
ATOM     17  C   UNL     1       8.264   8.122  18.484  0.00  0.00    +0.000 C 
BRANCH  17  19
ATOM     18  O   UNL     1       8.146  10.354  17.636  0.00  0.00    +0.000 OA
ATOM     19  C   UNL     1       8.674   9.585  18.438  0.00  0.00    +0.000 C 
ATOM     20  N   UNL     1       9.677   9.941  19.326  0.00  0.00    +0.000 N 
ATOM     21  H   UNL     1      10.264   9.188  19.694  0.00  0.00    +0.000 HD
BRANCH  20  22
ATOM     22  C   UNL     1      10.174  11.269  19.500  0.00  0.00    +0.000 A 
ATOM     23  C   UNL     1      11.068  11.831  18.576  0.00  0.00    +0.000 A 
ATOM     24  C   UNL     1      11.639  13.090  18.779  0.00  0.00    +0.000 A 
ATOM     25  C   UNL     1      11.316  13.825  19.910  0.00  0.00    +0.000 A 
ATOM     26  C   UNL     1      10.387  13.319  20.817  0.00  0.00    +0.000 A 
ATOM     27  C   UNL     1       9.784  12.062  20.601  0.00  0.00    +0.000 A 
BRANCH  27  28
ATOM     28  C   UNL     1       8.781  11.564  21.576  0.00  0.00    +0.000 C 
ATOM     29  O   UNL     1       7.877  12.258  22.007  0.00  0.00    +0.000 OA
BRANCH  28  30
ATOM     30  O   UNL     1       9.001  10.298  21.998  0.00  0.00    +0.000 OA
ATOM     31  H   UNL     1       9.813  10.164  22.521  0.00  0.00    +0.000 HD
ENDBRANCH  28  30
ENDBRANCH  27  28
ENDBRANCH  20  22
ENDBRANCH  17  19
ENDBRANCH   1  17
TORSDOF 7
ENDMDL
MODEL 4
REMARK VINA RESULT:      -8.3      0.689      1.037
REMARK  Name = 
REMARK  7 active torsions:
REMARK  status: ('A' for Active; 'I' for Inactive)
REMARK    1  A    between atoms: C_2  and  C_3
REMARK    2  A    between atoms: C_3  and  C_4
REMARK    3  A    between atoms: C_4  and  C_5
REMARK    4  A    between atoms: C_14  and  O_15
REMARK    5  A    between atoms: N_19  and  C_20
REMARK    6  A    between atoms: C_25  and  C_26
REMARK    7  A    between atoms: C_26  and  O_28
REMARK                            x       y       z     vdW  Elec       q    Type
REMARK                         _______ _______ _______ _____ _____    ______ ____
ROOT
ATOM      1  C   UNL     1       3.528   3.298  20.934  0.00  0.00    +0.000 C 
ENDROOT
BRANCH   1   2
ATOM      2  C   UNL     1       3.857   3.266  19.488  0.00  0.00    +0.000 A 
ATOM      3  N   UNL     1       3.068   2.622  18.569  0.00  0.00    +0.000 NA
ATOM      4  N   UNL     1       3.579   2.832  17.356  0.00  0.00    +0.000 NA
ATOM      5  N   UNL     1       4.675   3.609  17.498  0.00  0.00    +0.000 N 
ATOM      6  C   UNL     1       4.887   3.903  18.831  0.00  0.00    +0.000 A 
ATOM      7  C   UNL     1       5.977   4.725  19.197  0.00  0.00    +0.000 A 
ATOM      8  C   UNL     1       6.802   5.199  18.251  0.00  0.00    +0.000 A 
ATOM      9  C   UNL     1       6.587   4.877  16.830  0.00  0.00    +0.000 A 
ATOM     10  C   UNL     1       7.451   5.367  15.849  0.00  0.00    +0.000 A 
ATOM     11  C   UNL     1       7.218   5.046  14.513  0.00  0.00    +0.000 A 
ATOM     12  C   UNL     1       6.135   4.248  14.141  0.00  0.00    +0.000 A 
ATOM     13  C   UNL     1       5.261   3.752  15.111  0.00  0.00    +0.000 A 
ATOM     14  C   UNL     1       5.498   4.068  16.450  0.00  0.00    +0.000 A 
BRANCH  11  15
ATOM     15  O   UNL     1       8.043   5.506  13.527  0.00  0.00    +0.000 OA
ATOM     16  H   UNL     1       8.960   5.484  13.846  0.00  0.00    +0.000 HD
ENDBRANCH  11  15
ENDBRANCH   1   2
BRANCH   1  17
ATOM     17  C   UNL     1       2.033   3.331  21.263  0.00  0.00    +0.000 C 
BRANCH  17  19
ATOM     18  O   UNL     1       0.353   4.610  20.141  0.00  0.00    +0.000 OA
ATOM     19  C   UNL     1       1.447   4.618  20.704  0.00  0.00    +0.000 C 
ATOM     20  N   UNL     1       2.245   5.741  20.859  0.00  0.00    +0.000 N 
ATOM     21  H   UNL     1       3.242   5.586  21.028  0.00  0.00    +0.000 HD
BRANCH  20  22
ATOM     22  C   UNL     1       1.870   7.063  20.469  0.00  0.00    +0.000 A 
ATOM     23  C   UNL     1       1.268   7.941  21.383  0.00  0.00    +0.000 A 
ATOM     24  C   UNL     1       0.808   9.202  20.996  0.00  0.00    +0.000 A 
ATOM     25  C   UNL     1       0.952   9.621  19.682  0.00  0.00    +0.000 A 
ATOM     26  C   UNL     1       1.598   8.795  18.763  0.00  0.00    +0.000 A 
ATOM     27  C   UNL     1       2.093   7.533  19.157  0.00  0.00    +0.000 A 
BRANCH  27  28
ATOM     28  C   UNL     1       2.795   6.689  18.158  0.00  0.00    +0.000 C 
ATOM     29  O   UNL     1       3.871   6.996  17.673  0.00  0.00    +0.000 OA
BRANCH  28  30
ATOM     30  O   UNL     1       2.106   5.589  17.780  0.00  0.00    +0.000 OA
ATOM     31  H   UNL     1       2.643   4.862  17.413  0.00  0.00    +0.000 HD
ENDBRANCH  28  30
ENDBRANCH  27  28
ENDBRANCH  20  22
ENDBRANCH  17  19
ENDBRANCH   1  17
TORSDOF 7
ENDMDL
MODEL 5
REMARK VINA RESULT:      -8.1      5.931      7.803
REMARK  Name = 
REMARK  7 active torsions:
REMARK  status: ('A' for Active; 'I' for Inactive)
REMARK    1  A    between atoms: C_2  and  C_3
REMARK    2  A    between atoms: C_3  and  C_4
REMARK    3  A    between atoms: C_4  and  C_5
REMARK    4  A    between atoms: C_14  and  O_15
REMARK    5  A    between atoms: N_19  and  C_20
REMARK    6  A    between atoms: C_25  and  C_26
REMARK    7  A    between atoms: C_26  and  O_28
REMARK                            x       y       z     vdW  Elec       q    Type
REMARK                         _______ _______ _______ _____ _____    ______ ____
ROOT
ATOM      1  C   UNL     1       8.206   7.764  17.501  0.00  0.00    +0.000 C 
ENDROOT
BRANCH   1   2
ATOM      2  C   UNL     1       7.485   6.623  18.115  0.00  0.00    +0.000 A 
ATOM      3  N   UNL     1       7.820   6.117  19.345  0.00  0.00    +0.000 NA
ATOM      4  N   UNL     1       6.951   5.155  19.654  0.00  0.00    +0.000 NA
ATOM      5  N   UNL     1       6.066   5.055  18.639  0.00  0.00    +0.000 N 
ATOM      6  C   UNL     1       6.370   5.964  17.644  0.00  0.00    +0.000 A 
ATOM      7  C   UNL     1       5.551   6.037  16.494  0.00  0.00    +0.000 A 
ATOM      8  C   UNL     1       4.497   5.217  16.374  0.00  0.00    +0.000 A 
ATOM      9  C   UNL     1       4.176   4.237  17.426  0.00  0.00    +0.000 A 
ATOM     10  C   UNL     1       3.082   3.380  17.295  0.00  0.00    +0.000 A 
ATOM     11  C   UNL     1       2.805   2.467  18.310  0.00  0.00    +0.000 A 
ATOM     12  C   UNL     1       3.599   2.398  19.456  0.00  0.00    +0.000 A 
ATOM     13  C   UNL     1       4.696   3.251  19.603  0.00  0.00    +0.000 A 
ATOM     14  C   UNL     1       4.978   4.161  18.583  0.00  0.00    +0.000 A 
BRANCH  11  15
ATOM     15  O   UNL     1       1.744   1.613  18.214  0.00  0.00    +0.000 OA
ATOM     16  H   UNL     1       1.208   1.681  19.021  0.00  0.00    +0.000 HD
ENDBRANCH  11  15
ENDBRANCH   1   2
BRANCH   1  17
ATOM     17  C   UNL     1       7.623   9.147  17.808  0.00  0.00    +0.000 C 
BRANCH  17  19
ATOM     18  O   UNL     1       9.269   9.586  19.486  0.00  0.00    +0.000 OA
ATOM     19  C   UNL     1       8.704   9.987  18.469  0.00  0.00    +0.000 C 
ATOM     20  N   UNL     1       8.955  11.206  17.858  0.00  0.00    +0.000 N 
ATOM     21  H   UNL     1       8.226  11.580  17.246  0.00  0.00    +0.000 HD
BRANCH  20  22
ATOM     22  C   UNL     1       9.968  12.126  18.267  0.00  0.00    +0.000 A 
ATOM     23  C   UNL     1      11.316  11.742  18.310  0.00  0.00    +0.000 A 
ATOM     24  C   UNL     1      12.308  12.596  18.799  0.00  0.00    +0.000 A 
ATOM     25  C   UNL     1      11.973  13.866  19.246  0.00  0.00    +0.000 A 
ATOM     26  C   UNL     1      10.651  14.298  19.161  0.00  0.00    +0.000 A 
ATOM     27  C   UNL     1       9.651  13.450  18.639  0.00  0.00    +0.000 A 
BRANCH  27  28
ATOM     28  C   UNL     1       8.256  13.951  18.543  0.00  0.00    +0.000 C 
ATOM     29  O   UNL     1       7.522  13.686  17.607  0.00  0.00    +0.000 OA
BRANCH  28  30
ATOM     30  O   UNL     1       7.897  14.785  19.545  0.00  0.00    +0.000 OA
ATOM     31  H   UNL     1       7.355  14.386  20.251  0.00  0.00    +0.000 HD
ENDBRANCH  28  30
ENDBRANCH  27  28
ENDBRANCH  20  22
ENDBRANCH  17  19
ENDBRANCH   1  17
TORSDOF 7
ENDMDL
MODEL 6
REMARK VINA RESULT:      -8.0      7.539      9.634
REMARK  Name = 
REMARK  7 active torsions:
REMARK  status: ('A' for Active; 'I' for Inactive)
REMARK    1  A    between atoms: C_2  and  C_3
REMARK    2  A    between atoms: C_3  and  C_4
REMARK    3  A    between atoms: C_4  and  C_5
REMARK    4  A    between atoms: C_14  and  O_15
REMARK    5  A    between atoms: N_19  and  C_20
REMARK    6  A    between atoms: C_25  and  C_26
REMARK    7  A    between atoms: C_26  and  O_28
REMARK                            x       y       z     vdW  Elec       q    Type
REMARK                         _______ _______ _______ _____ _____    ______ ____
ROOT
ATOM      1  C   UNL     1       8.888   9.279  18.921  0.00  0.00    +0.000 C 
ENDROOT
BRANCH   1   2
ATOM      2  C   UNL     1       9.521  10.620  18.947  0.00  0.00    +0.000 A 
ATOM      3  N   UNL     1      10.134  11.165  17.847  0.00  0.00    +0.000 NA
ATOM      4  N   UNL     1      10.538  12.396  18.158  0.00  0.00    +0.000 NA
ATOM      5  N   UNL     1      10.178  12.638  19.438  0.00  0.00    +0.000 N 
ATOM      6  C   UNL     1       9.536  11.539  19.973  0.00  0.00    +0.000 A 
ATOM      7  C   UNL     1       9.059  11.591  21.303  0.00  0.00    +0.000 A 
ATOM      8  C   UNL     1       9.246  12.699  22.035  0.00  0.00    +0.000 A 
ATOM      9  C   UNL     1       9.942  13.870  21.473  0.00  0.00    +0.000 A 
ATOM     10  C   UNL     1      10.140  15.019  22.239  0.00  0.00    +0.000 A 
ATOM     11  C   UNL     1      10.799  16.109  21.676  0.00  0.00    +0.000 A 
ATOM     12  C   UNL     1      11.260  16.072  20.359  0.00  0.00    +0.000 A 
ATOM     13  C   UNL     1      11.068  14.930  19.578  0.00  0.00    +0.000 A 
ATOM     14  C   UNL     1      10.412  13.835  20.145  0.00  0.00    +0.000 A 
BRANCH  11  15
ATOM     15  O   UNL     1      11.012  17.249  22.396  0.00  0.00    +0.000 OA
ATOM     16  H   UNL     1      10.309  17.888  22.195  0.00  0.00    +0.000 HD
ENDBRANCH  11  15
ENDBRANCH   1   2
BRANCH   1  17
ATOM     17  C   UNL     1       8.200   8.908  17.604  0.00  0.00    +0.000 C 
BRANCH  17  19
ATOM     18  O   UNL     1       7.840   6.776  18.625  0.00  0.00    +0.000 OA
ATOM     19  C   UNL     1       7.442   7.606  17.809  0.00  0.00    +0.000 C 
ATOM     20  N   UNL     1       6.327   7.444  17.001  0.00  0.00    +0.000 N 
ATOM     21  H   UNL     1       6.279   8.013  16.153  0.00  0.00    +0.000 HD
BRANCH  20  22
ATOM     22  C   UNL     1       5.432   6.332  17.066  0.00  0.00    +0.000 A 
ATOM     23  C   UNL     1       4.123   6.488  17.548  0.00  0.00    +0.000 A 
ATOM     24  C   UNL     1       3.266   5.397  17.709  0.00  0.00    +0.000 A 
ATOM     25  C   UNL     1       3.696   4.120  17.379  0.00  0.00    +0.000 A 
ATOM     26  C   UNL     1       4.970   3.941  16.843  0.00  0.00    +0.000 A 
ATOM     27  C   UNL     1       5.829   5.043  16.649  0.00  0.00    +0.000 A 
BRANCH  27  28
ATOM     28  C   UNL     1       7.171   4.819  16.056  0.00  0.00    +0.000 C 
ATOM     29  O   UNL     1       7.461   5.171  14.925  0.00  0.00    +0.000 OA
BRANCH  28  30
ATOM     30  O   UNL     1       8.018   4.126  16.849  0.00  0.00    +0.000 OA
ATOM     31  H   UNL     1       8.169   4.504  17.735  0.00  0.00    +0.000 HD
ENDBRANCH  28  30
ENDBRANCH  27  28
ENDBRANCH  20  22
ENDBRANCH  17  19
ENDBRANCH   1  17
TORSDOF 7
ENDMDL
MODEL 7
REMARK VINA RESULT:      -8.0      6.152      7.955
REMARK  Name = 
REMARK  7 active torsions:
REMARK  status: ('A' for Active; 'I' for Inactive)
REMARK    1  A    between atoms: C_2  and  C_3
REMARK    2  A    between atoms: C_3  and  C_4
REMARK    3  A    between atoms: C_4  and  C_5
REMARK    4  A    between atoms: C_14  and  O_15
REMARK    5  A    between atoms: N_19  and  C_20
REMARK    6  A    between atoms: C_25  and  C_26
REMARK    7  A    between atoms: C_26  and  O_28
REMARK                            x       y       z     vdW  Elec       q    Type
REMARK                         _______ _______ _______ _____ _____    ______ ____
ROOT
ATOM      1  C   UNL     1       7.856   8.085  17.693  0.00  0.00    +0.000 C 
ENDROOT
BRANCH   1   2
ATOM      2  C   UNL     1       7.264   6.803  18.148  0.00  0.00    +0.000 A 
ATOM      3  N   UNL     1       7.895   5.978  19.044  0.00  0.00    +0.000 NA
ATOM      4  N   UNL     1       7.089   4.952  19.310  0.00  0.00    +0.000 NA
ATOM      5  N   UNL     1       5.953   5.124  18.601  0.00  0.00    +0.000 N 
ATOM      6  C   UNL     1       6.025   6.281  17.851  0.00  0.00    +0.000 A 
ATOM      7  C   UNL     1       4.924   6.659  17.047  0.00  0.00    +0.000 A 
ATOM      8  C   UNL     1       3.830   5.885  17.009  0.00  0.00    +0.000 A 
ATOM      9  C   UNL     1       3.754   4.643  17.797  0.00  0.00    +0.000 A 
ATOM     10  C   UNL     1       2.616   3.836  17.751  0.00  0.00    +0.000 A 
ATOM     11  C   UNL     1       2.575   2.669  18.510  0.00  0.00    +0.000 A 
ATOM     12  C   UNL     1       3.650   2.296  19.319  0.00  0.00    +0.000 A 
ATOM     13  C   UNL     1       4.796   3.094  19.378  0.00  0.00    +0.000 A 
ATOM     14  C   UNL     1       4.838   4.260  18.611  0.00  0.00    +0.000 A 
BRANCH  11  15
ATOM     15  O   UNL     1       1.479   1.855  18.488  0.00  0.00    +0.000 OA
ATOM     16  H   UNL     1       0.696   2.384  18.262  0.00  0.00    +0.000 HD
ENDBRANCH  11  15
ENDBRANCH   1   2
BRANCH   1  17
ATOM     17  C   UNL     1       8.738   8.798  18.723  0.00  0.00    +0.000 C 
BRANCH  17  19
ATOM     18  O   UNL     1       8.030  10.791  17.608  0.00  0.00    +0.000 OA
ATOM     19  C   UNL     1       8.892  10.250  18.299  0.00  0.00    +0.000 C 
ATOM     20  N   UNL     1      10.060  10.864  18.724  0.00  0.00    +0.000 N 
ATOM     21  H   UNL     1      10.838  10.254  18.991  0.00  0.00    +0.000 HD
BRANCH  20  22
ATOM     22  C   UNL     1      10.385  12.236  18.497  0.00  0.00    +0.000 A 
ATOM     23  C   UNL     1      10.927  12.656  17.273  0.00  0.00    +0.000 A 
ATOM     24  C   UNL     1      11.341  13.974  17.067  0.00  0.00    +0.000 A 
ATOM     25  C   UNL     1      11.207  14.911  18.080  0.00  0.00    +0.000 A 
ATOM     26  C   UNL     1      10.618  14.539  19.287  0.00  0.00    +0.000 A 
ATOM     27  C   UNL     1      10.171  13.216  19.490  0.00  0.00    +0.000 A 
BRANCH  27  28
ATOM     28  C   UNL     1       9.528  12.860  20.780  0.00  0.00    +0.000 C 
ATOM     29  O   UNL     1       8.544  13.438  21.210  0.00  0.00    +0.000 OA
BRANCH  28  30
ATOM     30  O   UNL     1      10.170  11.890  21.470  0.00  0.00    +0.000 OA
ATOM     31  H   UNL     1      10.569  11.183  20.929  0.00  0.00    +0.000 HD
ENDBRANCH  28  30
ENDBRANCH  27  28
ENDBRANCH  20  22
ENDBRANCH  17  19
ENDBRANCH   1  17
TORSDOF 7
ENDMDL
MODEL 8
REMARK VINA RESULT:      -7.9      5.630      7.742
REMARK  Name = 
REMARK  7 active torsions:
REMARK  status: ('A' for Active; 'I' for Inactive)
REMARK    1  A    between atoms: C_2  and  C_3
REMARK    2  A    between atoms: C_3  and  C_4
REMARK    3  A    between atoms: C_4  and  C_5
REMARK    4  A    between atoms: C_14  and  O_15
REMARK    5  A    between atoms: N_19  and  C_20
REMARK    6  A    between atoms: C_25  and  C_26
REMARK    7  A    between atoms: C_26  and  O_28
REMARK                            x       y       z     vdW  Elec       q    Type
REMARK                         _______ _______ _______ _____ _____    ______ ____
ROOT
ATOM      1  C   UNL     1       7.821   7.488  17.282  0.00  0.00    +0.000 C 
ENDROOT
BRANCH   1   2
ATOM      2  C   UNL     1       7.052   6.389  17.916  0.00  0.00    +0.000 A 
ATOM      3  N   UNL     1       7.645   5.437  18.706  0.00  0.00    +0.000 NA
ATOM      4  N   UNL     1       6.694   4.638  19.187  0.00  0.00    +0.000 NA
ATOM      5  N   UNL     1       5.507   5.080  18.718  0.00  0.00    +0.000 N 
ATOM      6  C   UNL     1       5.690   6.184  17.909  0.00  0.00    +0.000 A 
ATOM      7  C   UNL     1       4.566   6.816  17.329  0.00  0.00    +0.000 A 
ATOM      8  C   UNL     1       3.337   6.332  17.559  0.00  0.00    +0.000 A 
ATOM      9  C   UNL     1       3.138   5.147  18.411  0.00  0.00    +0.000 A 
ATOM     10  C   UNL     1       1.857   4.641  18.643  0.00  0.00    +0.000 A 
ATOM     11  C   UNL     1       1.704   3.520  19.457  0.00  0.00    +0.000 A 
ATOM     12  C   UNL     1       2.806   2.899  20.045  0.00  0.00    +0.000 A 
ATOM     13  C   UNL     1       4.094   3.394  19.824  0.00  0.00    +0.000 A 
ATOM     14  C   UNL     1       4.248   4.514  19.004  0.00  0.00    +0.000 A 
BRANCH  11  15
ATOM     15  O   UNL     1       0.467   2.998  19.704  0.00  0.00    +0.000 OA
ATOM     16  H   UNL     1       0.106   3.405  20.508  0.00  0.00    +0.000 HD
ENDBRANCH  11  15
ENDBRANCH   1   2
BRANCH   1  17
ATOM     17  C   UNL     1       7.357   8.902  17.642  0.00  0.00    +0.000 C 
BRANCH  17  19
ATOM     18  O   UNL     1       9.153   9.079  19.209  0.00  0.00    +0.000 OA
ATOM     19  C   UNL     1       8.510   9.628  18.316  0.00  0.00    +0.000 C 
ATOM     20  N   UNL     1       8.732  10.920  17.866  0.00  0.00    +0.000 N 
ATOM     21  H   UNL     1       7.960  11.386  17.382  0.00  0.00    +0.000 HD
BRANCH  20  22
ATOM     22  C   UNL     1       9.797  11.763  18.309  0.00  0.00    +0.000 A 
ATOM     23  C   UNL     1      11.094  11.256  18.480  0.00  0.00    +0.000 A 
ATOM     24  C   UNL     1      12.125  12.039  19.004  0.00  0.00    +0.000 A 
ATOM     25  C   UNL     1      11.885  13.358  19.359  0.00  0.00    +0.000 A 
ATOM     26  C   UNL     1      10.622  13.908  19.147  0.00  0.00    +0.000 A 
ATOM     27  C   UNL     1       9.585  13.130  18.589  0.00  0.00    +0.000 A 
BRANCH  27  28
ATOM     28  C   UNL     1       8.258  13.754  18.356  0.00  0.00    +0.000 C 
ATOM     29  O   UNL     1       7.658  14.373  19.218  0.00  0.00    +0.000 OA
BRANCH  28  30
ATOM     30  O   UNL     1       7.741  13.515  17.130  0.00  0.00    +0.000 OA
ATOM     31  H   UNL     1       7.744  12.582  16.847  0.00  0.00    +0.000 HD
ENDBRANCH  28  30
ENDBRANCH  27  28
ENDBRANCH  20  22
ENDBRANCH  17  19
ENDBRANCH   1  17
TORSDOF 7
ENDMDL
MODEL 9
REMARK VINA RESULT:      -7.8      5.902      7.708
REMARK  Name = 
REMARK  7 active torsions:
REMARK  status: ('A' for Active; 'I' for Inactive)
REMARK    1  A    between atoms: C_2  and  C_3
REMARK    2  A    between atoms: C_3  and  C_4
REMARK    3  A    between atoms: C_4  and  C_5
REMARK    4  A    between atoms: C_14  and  O_15
REMARK    5  A    between atoms: N_19  and  C_20
REMARK    6  A    between atoms: C_25  and  C_26
REMARK    7  A    between atoms: C_26  and  O_28
REMARK                            x       y       z     vdW  Elec       q    Type
REMARK                         _______ _______ _______ _____ _____    ______ ____
ROOT
ATOM      1  C   UNL     1       7.822   7.980  17.639  0.00  0.00    +0.000 C 
ENDROOT
BRANCH   1   2
ATOM      2  C   UNL     1       7.143   6.708  17.988  0.00  0.00    +0.000 A 
ATOM      3  N   UNL     1       7.792   5.678  18.619  0.00  0.00    +0.000 NA
ATOM      4  N   UNL     1       6.908   4.711  18.863  0.00  0.00    +0.000 NA
ATOM      5  N   UNL     1       5.707   5.123  18.402  0.00  0.00    +0.000 N 
ATOM      6  C   UNL     1       5.814   6.380  17.839  0.00  0.00    +0.000 A 
ATOM      7  C   UNL     1       4.661   7.006  17.311  0.00  0.00    +0.000 A 
ATOM      8  C   UNL     1       3.481   6.370  17.349  0.00  0.00    +0.000 A 
ATOM      9  C   UNL     1       3.365   5.024  17.937  0.00  0.00    +0.000 A 
ATOM     10  C   UNL     1       2.136   4.362  17.970  0.00  0.00    +0.000 A 
ATOM     11  C   UNL     1       2.061   3.092  18.536  0.00  0.00    +0.000 A 
ATOM     12  C   UNL     1       3.190   2.472  19.073  0.00  0.00    +0.000 A 
ATOM     13  C   UNL     1       4.427   3.122  19.050  0.00  0.00    +0.000 A 
ATOM     14  C   UNL     1       4.503   4.393  18.477  0.00  0.00    +0.000 A 
BRANCH  11  15
ATOM     15  O   UNL     1       0.876   2.414  18.583  0.00  0.00    +0.000 OA
ATOM     16  H   UNL     1       0.380   2.585  17.766  0.00  0.00    +0.000 HD
ENDBRANCH  11  15
ENDBRANCH   1   2
BRANCH   1  17
ATOM     17  C   UNL     1       8.674   8.593  18.754  0.00  0.00    +0.000 C 
BRANCH  17  19
ATOM     18  O   UNL     1       8.251  10.599  17.525  0.00  0.00    +0.000 OA
ATOM     19  C   UNL     1       8.749  10.095  18.531  0.00  0.00    +0.000 C 
ATOM     20  N   UNL     1       9.429  10.800  19.511  0.00  0.00    +0.000 N 
ATOM     21  H   UNL     1      10.074  10.271  20.104  0.00  0.00    +0.000 HD
BRANCH  20  22
ATOM     22  C   UNL     1       9.568  12.221  19.540  0.00  0.00    +0.000 A 
ATOM     23  C   UNL     1       8.605  13.027  20.166  0.00  0.00    +0.000 A 
ATOM     24  C   UNL     1       8.674  14.422  20.122  0.00  0.00    +0.000 A 
ATOM     25  C   UNL     1       9.719  15.046  19.458  0.00  0.00    +0.000 A 
ATOM     26  C   UNL     1      10.722  14.273  18.875  0.00  0.00    +0.000 A 
ATOM     27  C   UNL     1      10.675  12.864  18.944  0.00  0.00    +0.000 A 
BRANCH  27  28
ATOM     28  C   UNL     1      11.772  12.073  18.333  0.00  0.00    +0.000 C 
ATOM     29  O   UNL     1      12.327  11.155  18.912  0.00  0.00    +0.000 OA
BRANCH  28  30
ATOM     30  O   UNL     1      12.151  12.506  17.109  0.00  0.00    +0.000 OA
ATOM     31  H   UNL     1      12.635  13.352  17.094  0.00  0.00    +0.000 HD
ENDBRANCH  28  30
ENDBRANCH  27  28
ENDBRANCH  20  22
ENDBRANCH  17  19
ENDBRANCH   1  17
TORSDOF 7
ENDMDL
