MODEL 1
REMARK VINA RESULT:      -6.6      0.000      0.000
REMARK  Name = 
REMARK  2 active torsions:
REMARK  status: ('A' for Active; 'I' for Inactive)
REMARK    1  A    between atoms: C_1  and  C_2
REMARK    2  A    between atoms: C_2  and  C_14
REMARK                            x       y       z     vdW  Elec       q    Type
REMARK                         _______ _______ _______ _____ _____    ______ ____
ROOT
ATOM      1  C   UNL     1       4.199   3.092  19.178  0.00  0.00    +0.000 C 
ATOM      2  C   UNL     1       4.204   4.457  18.547  0.00  0.00    +0.000 C 
ATOM      3  C   UNL     1       3.511   5.536  18.968  0.00  0.00    +0.000 C 
ATOM      4  S   UNL     1       3.456   7.049  18.135  0.00  0.00    +0.000 S 
ATOM      5  C   UNL     1       2.190   7.615  19.201  0.00  0.00    +0.000 C 
ATOM      6  N   UNL     1       1.611   8.832  18.961  0.00  0.00    +0.000 N 
ATOM      7  C   UNL     1       2.016   9.790  17.945  0.00  0.00    +0.000 C 
ATOM      8  C   UNL     1       1.611  11.125  18.548  0.00  0.00    +0.000 C 
ATOM      9  C   UNL     1       0.316  10.791  19.266  0.00  0.00    +0.000 C 
ATOM     10  C   UNL     1       0.525   9.365  19.777  0.00  0.00    +0.000 C 
ATOM     11  N   UNL     1       1.884   6.812  20.166  0.00  0.00    +0.000 NA
ATOM     12  C   UNL     1       2.622   5.649  20.176  0.00  0.00    +0.000 C 
ATOM     13  O   UNL     1       2.576   4.821  21.073  0.00  0.00    +0.000 OA
ENDROOT
BRANCH   2  14
ATOM     14  C   UNL     1       5.045   4.511  17.329  0.00  0.00    +0.000 A 
ATOM     15  C   UNL     1       4.487   4.240  16.071  0.00  0.00    +0.000 A 
ATOM     16  C   UNL     1       5.271   4.330  14.920  0.00  0.00    +0.000 A 
ATOM     17  C   UNL     1       6.615   4.689  15.024  0.00  0.00    +0.000 A 
ATOM     18 BR   UNL     1       7.666   4.858  13.463  0.00  0.00    +0.000 Br
ATOM     19  C   UNL     1       7.188   4.933  16.272  0.00  0.00    +0.000 A 
ATOM     20  C   UNL     1       6.403   4.842  17.424  0.00  0.00    +0.000 A 
ENDBRANCH   2  14
TORSDOF 1
ENDMDL
MODEL 2
REMARK VINA RESULT:      -6.5      1.139      1.648
REMARK  Name = 
REMARK  2 active torsions:
REMARK  status: ('A' for Active; 'I' for Inactive)
REMARK    1  A    between atoms: C_1  and  C_2
REMARK    2  A    between atoms: C_2  and  C_14
REMARK                            x       y       z     vdW  Elec       q    Type
REMARK                         _______ _______ _______ _____ _____    ______ ____
ROOT
ATOM      1  C   UNL     1       3.971   2.467  19.589  0.00  0.00    +0.000 C 
ATOM      2  C   UNL     1       3.906   3.910  19.171  0.00  0.00    +0.000 C 
ATOM      3  C   UNL     1       3.176   4.882  19.758  0.00  0.00    +0.000 C 
ATOM      4  S   UNL     1       3.042   6.499  19.162  0.00  0.00    +0.000 S 
ATOM      5  C   UNL     1       1.774   6.842  20.318  0.00  0.00    +0.000 C 
ATOM      6  N   UNL     1       1.140   8.054  20.270  0.00  0.00    +0.000 N 
ATOM      7  C   UNL     1       1.484   9.171  19.405  0.00  0.00    +0.000 C 
ATOM      8  C   UNL     1       1.035  10.381  20.207  0.00  0.00    +0.000 C 
ATOM      9  C   UNL     1      -0.231   9.886  20.884  0.00  0.00    +0.000 C 
ATOM     10  C   UNL     1       0.048   8.410  21.171  0.00  0.00    +0.000 C 
ATOM     11  N   UNL     1       1.520   5.891  21.155  0.00  0.00    +0.000 NA
ATOM     12  C   UNL     1       2.307   4.774  20.981  0.00  0.00    +0.000 C 
ATOM     13  O   UNL     1       2.313   3.820  21.743  0.00  0.00    +0.000 OA
ENDROOT
BRANCH   2  14
ATOM     14  C   UNL     1       4.720   4.183  17.963  0.00  0.00    +0.000 A 
ATOM     15  C   UNL     1       6.059   4.579  18.087  0.00  0.00    +0.000 A 
ATOM     16  C   UNL     1       6.836   4.797  16.948  0.00  0.00    +0.000 A 
ATOM     17  C   UNL     1       6.276   4.622  15.684  0.00  0.00    +0.000 A 
ATOM     18 BR   UNL     1       7.339   4.870  14.142  0.00  0.00    +0.000 Br
ATOM     19  C   UNL     1       4.937   4.254  15.548  0.00  0.00    +0.000 A 
ATOM     20  C   UNL     1       4.159   4.038  16.687  0.00  0.00    +0.000 A 
ENDBRANCH   2  14
TORSDOF 1
ENDMDL
MODEL 3
REMARK VINA RESULT:      -6.5      1.166      1.281
REMARK  Name = 
REMARK  2 active torsions:
REMARK  status: ('A' for Active; 'I' for Inactive)
REMARK    1  A    between atoms: C_1  and  C_2
REMARK    2  A    between atoms: C_2  and  C_14
REMARK                            x       y       z     vdW  Elec       q    Type
REMARK                         _______ _______ _______ _____ _____    ______ ____
ROOT
ATOM      1  C   UNL     1       3.947   2.397  19.673  0.00  0.00    +0.000 C 
ATOM      2  C   UNL     1       3.897   3.835  19.236  0.00  0.00    +0.000 C 
ATOM      3  C   UNL     1       3.170   4.820  19.805  0.00  0.00    +0.000 C 
ATOM      4  S   UNL     1       3.053   6.430  19.188  0.00  0.00    +0.000 S 
ATOM      5  C   UNL     1       1.777   6.797  20.329  0.00  0.00    +0.000 C 
ATOM      6  N   UNL     1       1.153   8.013  20.260  0.00  0.00    +0.000 N 
ATOM      7  C   UNL     1       1.513   9.116  19.385  0.00  0.00    +0.000 C 
ATOM      8  C   UNL     1       1.067  10.340  20.168  0.00  0.00    +0.000 C 
ATOM      9  C   UNL     1      -0.209   9.863  20.840  0.00  0.00    +0.000 C 
ATOM     10  C   UNL     1       0.057   8.389  21.148  0.00  0.00    +0.000 C 
ATOM     11  N   UNL     1       1.510   5.859  21.175  0.00  0.00    +0.000 NA
ATOM     12  C   UNL     1       2.290   4.733  21.022  0.00  0.00    +0.000 C 
ATOM     13  O   UNL     1       2.282   3.789  21.796  0.00  0.00    +0.000 OA
ENDROOT
BRANCH   2  14
ATOM     14  C   UNL     1       4.723   4.087  18.032  0.00  0.00    +0.000 A 
ATOM     15  C   UNL     1       4.183   3.906  16.752  0.00  0.00    +0.000 A 
ATOM     16  C   UNL     1       4.950   4.182  15.619  0.00  0.00    +0.000 A 
ATOM     17  C   UNL     1       6.259   4.637  15.764  0.00  0.00    +0.000 A 
ATOM     18 BR   UNL     1       7.283   5.057  14.233  0.00  0.00    +0.000 Br
ATOM     19  C   UNL     1       6.818   4.795  17.032  0.00  0.00    +0.000 A 
ATOM     20  C   UNL     1       6.050   4.517  18.166  0.00  0.00    +0.000 A 
ENDBRANCH   2  14
TORSDOF 1
ENDMDL
MODEL 4
REMARK VINA RESULT:      -6.5      0.209      1.101
REMARK  Name = 
REMARK  2 active torsions:
REMARK  status: ('A' for Active; 'I' for Inactive)
REMARK    1  A    between atoms: C_1  and  C_2
REMARK    2  A    between atoms: C_2  and  C_14
REMARK                            x       y       z     vdW  Elec       q    Type
REMARK                         _______ _______ _______ _____ _____    ______ ____
ROOT
ATOM      1  C   UNL     1       4.273   3.244  18.982  0.00  0.00    +0.000 C 
ATOM      2  C   UNL     1       4.240   4.626  18.391  0.00  0.00    +0.000 C 
ATOM      3  C   UNL     1       3.534   5.679  18.853  0.00  0.00    +0.000 C 
ATOM      4  S   UNL     1       3.435   7.213  18.065  0.00  0.00    +0.000 S 
ATOM      5  C   UNL     1       2.176   7.724  19.168  0.00  0.00    +0.000 C 
ATOM      6  N   UNL     1       1.570   8.934  18.972  0.00  0.00    +0.000 N 
ATOM      7  C   UNL     1       1.938   9.929  17.977  0.00  0.00    +0.000 C 
ATOM      8  C   UNL     1       1.517  11.238  18.625  0.00  0.00    +0.000 C 
ATOM      9  C   UNL     1       0.241  10.858  19.355  0.00  0.00    +0.000 C 
ATOM     10  C   UNL     1       0.487   9.422  19.821  0.00  0.00    +0.000 C 
ATOM     11  N   UNL     1       1.902   6.888  20.114  0.00  0.00    +0.000 NA
ATOM     12  C   UNL     1       2.664   5.740  20.079  0.00  0.00    +0.000 C 
ATOM     13  O   UNL     1       2.649   4.886  20.952  0.00  0.00    +0.000 OA
ENDROOT
BRANCH   2  14
ATOM     14  C   UNL     1       5.059   4.731  17.160  0.00  0.00    +0.000 A 
ATOM     15  C   UNL     1       6.386   5.178  17.229  0.00  0.00    +0.000 A 
ATOM     16  C   UNL     1       7.169   5.238  16.075  0.00  0.00    +0.000 A 
ATOM     17  C   UNL     1       6.625   4.855  14.849  0.00  0.00    +0.000 A 
ATOM     18 BR   UNL     1       7.697   4.890  13.294  0.00  0.00    +0.000 Br
ATOM     19  C   UNL     1       5.298   4.435  14.764  0.00  0.00    +0.000 A 
ATOM     20  C   UNL     1       4.515   4.376  15.919  0.00  0.00    +0.000 A 
ENDBRANCH   2  14
TORSDOF 1
ENDMDL
MODEL 5
REMARK VINA RESULT:      -6.1      4.066      5.496
REMARK  Name = 
REMARK  2 active torsions:
REMARK  status: ('A' for Active; 'I' for Inactive)
REMARK    1  A    between atoms: C_1  and  C_2
REMARK    2  A    between atoms: C_2  and  C_14
REMARK                            x       y       z     vdW  Elec       q    Type
REMARK                         _______ _______ _______ _____ _____    ______ ____
ROOT
ATOM      1  C   UNL     1       7.211   5.334  15.301  0.00  0.00    +0.000 C 
ATOM      2  C   UNL     1       6.660   5.522  16.687  0.00  0.00    +0.000 C 
ATOM      3  C   UNL     1       5.691   4.786  17.272  0.00  0.00    +0.000 C 
ATOM      4  S   UNL     1       5.008   5.122  18.823  0.00  0.00    +0.000 S 
ATOM      5  C   UNL     1       3.766   3.918  18.561  0.00  0.00    +0.000 C 
ATOM      6  N   UNL     1       2.773   3.773  19.491  0.00  0.00    +0.000 N 
ATOM      7  C   UNL     1       2.689   4.455  20.772  0.00  0.00    +0.000 C 
ATOM      8  C   UNL     1       1.920   3.472  21.639  0.00  0.00    +0.000 C 
ATOM      9  C   UNL     1       0.923   2.872  20.664  0.00  0.00    +0.000 C 
ATOM     10  C   UNL     1       1.679   2.820  19.336  0.00  0.00    +0.000 C 
ATOM     11  N   UNL     1       3.881   3.238  17.469  0.00  0.00    +0.000 NA
ATOM     12  C   UNL     1       4.975   3.589  16.708  0.00  0.00    +0.000 C 
ATOM     13  O   UNL     1       5.332   2.985  15.709  0.00  0.00    +0.000 OA
ENDROOT
BRANCH   2  14
ATOM     14  C   UNL     1       7.272   6.678  17.384  0.00  0.00    +0.000 A 
ATOM     15  C   UNL     1       8.018   6.485  18.555  0.00  0.00    +0.000 A 
ATOM     16  C   UNL     1       8.628   7.570  19.188  0.00  0.00    +0.000 A 
ATOM     17  C   UNL     1       8.490   8.850  18.652  0.00  0.00    +0.000 A 
ATOM     18 BR   UNL     1       9.354  10.312  19.480  0.00  0.00    +0.000 Br
ATOM     19  C   UNL     1       7.728   9.058  17.503  0.00  0.00    +0.000 A 
ATOM     20  C   UNL     1       7.117   7.973  16.871  0.00  0.00    +0.000 A 
ENDBRANCH   2  14
TORSDOF 1
ENDMDL
MODEL 6
REMARK VINA RESULT:      -5.8      4.086      5.416
REMARK  Name = 
REMARK  2 active torsions:
REMARK  status: ('A' for Active; 'I' for Inactive)
REMARK    1  A    between atoms: C_1  and  C_2
REMARK    2  A    between atoms: C_2  and  C_14
REMARK                            x       y       z     vdW  Elec       q    Type
REMARK                         _______ _______ _______ _____ _____    ______ ____
ROOT
ATOM      1  C   UNL     1       7.252   5.165  15.301  0.00  0.00    +0.000 C 
ATOM      2  C   UNL     1       6.705   5.391  16.683  0.00  0.00    +0.000 C 
ATOM      3  C   UNL     1       5.720   4.686  17.280  0.00  0.00    +0.000 C 
ATOM      4  S   UNL     1       5.044   5.065  18.824  0.00  0.00    +0.000 S 
ATOM      5  C   UNL     1       3.776   3.883  18.583  0.00  0.00    +0.000 C 
ATOM      6  N   UNL     1       2.781   3.776  19.516  0.00  0.00    +0.000 N 
ATOM      7  C   UNL     1       2.710   4.483  20.784  0.00  0.00    +0.000 C 
ATOM      8  C   UNL     1       1.921   3.533  21.667  0.00  0.00    +0.000 C 
ATOM      9  C   UNL     1       0.910   2.936  20.703  0.00  0.00    +0.000 C 
ATOM     10  C   UNL     1       1.666   2.844  19.377  0.00  0.00    +0.000 C 
ATOM     11  N   UNL     1       3.878   3.181  17.504  0.00  0.00    +0.000 NA
ATOM     12  C   UNL     1       4.979   3.494  16.738  0.00  0.00    +0.000 C 
ATOM     13  O   UNL     1       5.324   2.864  15.750  0.00  0.00    +0.000 OA
ENDROOT
BRANCH   2  14
ATOM     14  C   UNL     1       7.341   6.546  17.359  0.00  0.00    +0.000 A 
ATOM     15  C   UNL     1       7.241   7.831  16.809  0.00  0.00    +0.000 A 
ATOM     16  C   UNL     1       7.806   8.925  17.467  0.00  0.00    +0.000 A 
ATOM     17  C   UNL     1       8.475   8.734  18.675  0.00  0.00    +0.000 A 
ATOM     18 BR   UNL     1       9.201  10.219  19.592  0.00  0.00    +0.000 Br
ATOM     19  C   UNL     1       8.606   7.456  19.218  0.00  0.00    +0.000 A 
ATOM     20  C   UNL     1       8.041   6.362  18.559  0.00  0.00    +0.000 A 
ENDBRANCH   2  14
TORSDOF 1
ENDMDL
MODEL 7
REMARK VINA RESULT:      -5.8      3.696      5.548
REMARK  Name = 
REMARK  2 active torsions:
REMARK  status: ('A' for Active; 'I' for Inactive)
REMARK    1  A    between atoms: C_1  and  C_2
REMARK    2  A    between atoms: C_2  and  C_14
REMARK                            x       y       z     vdW  Elec       q    Type
REMARK                         _______ _______ _______ _____ _____    ______ ____
ROOT
ATOM      1  C   UNL     1       1.644   9.109  21.971  0.00  0.00    +0.000 C 
ATOM      2  C   UNL     1       1.178   8.940  20.552  0.00  0.00    +0.000 C 
ATOM      3  C   UNL     1       0.221   9.664  19.932  0.00  0.00    +0.000 C 
ATOM      4  S   UNL     1      -0.364   9.348  18.337  0.00  0.00    +0.000 S 
ATOM      5  C   UNL     1      -1.654  10.509  18.557  0.00  0.00    +0.000 C 
ATOM      6  N   UNL     1      -2.597  10.651  17.576  0.00  0.00    +0.000 N 
ATOM      7  C   UNL     1      -2.590   9.999  16.276  0.00  0.00    +0.000 C 
ATOM      8  C   UNL     1      -3.337  10.982  15.391  0.00  0.00    +0.000 C 
ATOM      9  C   UNL     1      -4.405  11.529  16.322  0.00  0.00    +0.000 C 
ATOM     10  C   UNL     1      -3.726  11.568  17.692  0.00  0.00    +0.000 C 
ATOM     11  N   UNL     1      -1.620  11.165  19.670  0.00  0.00    +0.000 NA
ATOM     12  C   UNL     1      -0.560  10.825  20.483  0.00  0.00    +0.000 C 
ATOM     13  O   UNL     1      -0.277  11.414  21.515  0.00  0.00    +0.000 OA
ENDROOT
BRANCH   2  14
ATOM     14  C   UNL     1       1.861   7.820  19.864  0.00  0.00    +0.000 A 
ATOM     15  C   UNL     1       1.845   6.533  20.418  0.00  0.00    +0.000 A 
ATOM     16  C   UNL     1       2.455   5.471  19.749  0.00  0.00    +0.000 A 
ATOM     17  C   UNL     1       3.085   5.694  18.526  0.00  0.00    +0.000 A 
ATOM     18 BR   UNL     1       3.870   4.250  17.596  0.00  0.00    +0.000 Br
ATOM     19  C   UNL     1       3.132   6.976  17.978  0.00  0.00    +0.000 A 
ATOM     20  C   UNL     1       2.523   8.039  18.648  0.00  0.00    +0.000 A 
ENDBRANCH   2  14
TORSDOF 1
ENDMDL
MODEL 8
REMARK VINA RESULT:      -5.8      4.085      5.456
REMARK  Name = 
REMARK  2 active torsions:
REMARK  status: ('A' for Active; 'I' for Inactive)
REMARK    1  A    between atoms: C_1  and  C_2
REMARK    2  A    between atoms: C_2  and  C_14
REMARK                            x       y       z     vdW  Elec       q    Type
REMARK                         _______ _______ _______ _____ _____    ______ ____
ROOT
ATOM      1  C   UNL     1       3.288   8.096  17.294  0.00  0.00    +0.000 C 
ATOM      2  C   UNL     1       2.338   8.041  18.457  0.00  0.00    +0.000 C 
ATOM      3  C   UNL     1       1.687   9.087  19.010  0.00  0.00    +0.000 C 
ATOM      4  S   UNL     1       0.701   8.987  20.425  0.00  0.00    +0.000 S 
ATOM      5  C   UNL     1       0.585  10.732  20.494  0.00  0.00    +0.000 C 
ATOM      6  N   UNL     1      -0.056  11.316  21.553  0.00  0.00    +0.000 N 
ATOM      7  C   UNL     1      -0.770  10.624  22.613  0.00  0.00    +0.000 C 
ATOM      8  C   UNL     1      -1.824  11.632  23.036  0.00  0.00    +0.000 C 
ATOM      9  C   UNL     1      -1.093  12.957  22.910  0.00  0.00    +0.000 C 
ATOM     10  C   UNL     1      -0.167  12.763  21.708  0.00  0.00    +0.000 C 
ATOM     11  N   UNL     1       1.136  11.358  19.508  0.00  0.00    +0.000 NA
ATOM     12  C   UNL     1       1.715  10.526  18.574  0.00  0.00    +0.000 C 
ATOM     13  O   UNL     1       2.174  10.911  17.510  0.00  0.00    +0.000 OA
ENDROOT
BRANCH   2  14
ATOM     14  C   UNL     1       2.200   6.672  19.008  0.00  0.00    +0.000 A 
ATOM     15  C   UNL     1       2.241   6.459  20.393  0.00  0.00    +0.000 A 
ATOM     16  C   UNL     1       2.072   5.175  20.913  0.00  0.00    +0.000 A 
ATOM     17  C   UNL     1       1.863   4.101  20.048  0.00  0.00    +0.000 A 
ATOM     18 BR   UNL     1       1.586   2.369  20.751  0.00  0.00    +0.000 Br
ATOM     19  C   UNL     1       1.848   4.296  18.667  0.00  0.00    +0.000 A 
ATOM     20  C   UNL     1       2.019   5.581  18.148  0.00  0.00    +0.000 A 
ENDBRANCH   2  14
TORSDOF 1
ENDMDL
MODEL 9
REMARK VINA RESULT:      -5.8      3.664      5.521
REMARK  Name = 
REMARK  2 active torsions:
REMARK  status: ('A' for Active; 'I' for Inactive)
REMARK    1  A    between atoms: C_1  and  C_2
REMARK    2  A    between atoms: C_2  and  C_14
REMARK                            x       y       z     vdW  Elec       q    Type
REMARK                         _______ _______ _______ _____ _____    ______ ____
ROOT
ATOM      1  C   UNL     1       1.627   9.075  21.972  0.00  0.00    +0.000 C 
ATOM      2  C   UNL     1       1.173   8.914  20.548  0.00  0.00    +0.000 C 
ATOM      3  C   UNL     1       0.222   9.639  19.923  0.00  0.00    +0.000 C 
ATOM      4  S   UNL     1      -0.349   9.332  18.322  0.00  0.00    +0.000 S 
ATOM      5  C   UNL     1      -1.642  10.491  18.536  0.00  0.00    +0.000 C 
ATOM      6  N   UNL     1      -2.576  10.637  17.547  0.00  0.00    +0.000 N 
ATOM      7  C   UNL     1      -2.558   9.991  16.245  0.00  0.00    +0.000 C 
ATOM      8  C   UNL     1      -3.298  10.978  15.358  0.00  0.00    +0.000 C 
ATOM      9  C   UNL     1      -4.374  11.519  16.282  0.00  0.00    +0.000 C 
ATOM     10  C   UNL     1      -3.707  11.553  17.658  0.00  0.00    +0.000 C 
ATOM     11  N   UNL     1      -1.618  11.141  19.652  0.00  0.00    +0.000 NA
ATOM     12  C   UNL     1      -0.565  10.798  20.473  0.00  0.00    +0.000 C 
ATOM     13  O   UNL     1      -0.292  11.381  21.510  0.00  0.00    +0.000 OA
ENDROOT
BRANCH   2  14
ATOM     14  C   UNL     1       1.863   7.797  19.860  0.00  0.00    +0.000 A 
ATOM     15  C   UNL     1       2.515   8.014  18.638  0.00  0.00    +0.000 A 
ATOM     16  C   UNL     1       3.199   6.971  18.011  0.00  0.00    +0.000 A 
ATOM     17  C   UNL     1       3.231   5.710  18.604  0.00  0.00    +0.000 A 
ATOM     18 BR   UNL     1       4.196   4.309  17.781  0.00  0.00    +0.000 Br
ATOM     19  C   UNL     1       2.563   5.475  19.806  0.00  0.00    +0.000 A 
ATOM     20  C   UNL     1       1.878   6.519  20.432  0.00  0.00    +0.000 A 
ENDBRANCH   2  14
TORSDOF 1
ENDMDL
